%nproc=4
%Mem=2GB
# td=(NStates=1) CAM-B3LYP/6-31G(d,p) 

TD

0 1
12 -7.12910348334833  0.63164191229123  0.08434612201220
 6 -4.90217483548355 -1.90702188058806  0.56498303100310
 6 -4.70842077097710  2.80242869016902  1.13739010391039
 6 -9.31056579207921  2.98502399789979 -0.38721158085809
 6 -9.54024433813381 -1.84767027802780 -0.89594602370237
 7 -5.16218964356436  0.45803562166217  0.74340475877588
 6 -4.40678038413841 -0.68694851685168  0.75659368256826
 6 -2.92075108050805 -0.38630805650565  1.13935428962896
 6 -3.05159859825983  1.09022169046905  1.70749147984798
 6 -4.33004999989999  1.48372912171217  1.03416044594459
 6 -3.07142222432243  1.19461174927493  3.27621903080308
 6 -1.87682114311431 -0.61618688008801  0.01298525682568
 6 -0.36493391599160 -0.43618796599660  0.39051318061806
 6  0.56831796899690 -0.59964347724772 -0.74698007850785
 8  0.18333957405741 -0.72334774237424 -1.83788011971197
 8  1.78287009750975 -0.49123652005201 -0.39772656155616
 7 -7.07547799569957  2.58394398419842  0.24790348584858
 6 -5.97506678567857  3.39855083088309  0.70309384298430
 6 -6.39478673177318  4.74033832323232  0.72666335353535
 6 -7.66548925592559  4.87461809330933  0.25878426972697
 6 -8.00154442604260  3.40702989828983  0.06360890719072
 6 -5.53514147084709  5.87723018891889  1.26874163466347
 6 -8.65778357595759  5.97706874057406  0.16068305370537
 6 -8.46898078937894  7.16095221382138  0.70333658345835
 7 -9.11096336893689  0.54348720982098 -0.61784581828183
 6 -9.85200145984598  1.74210416351635 -0.64438076217622
 6 -11.16627572417242  1.44820315941594 -1.08976069556956
 6 -11.20984338823882  0.00635599969997 -1.06098481248125
 6 -9.92561824252425 -0.48113008730873 -0.84745976207621
 6 -12.24715353905390  2.37096766776678 -1.23443021782178
 6 -12.43163771007101 -0.77634504460446 -1.70929173767377
 6 -12.30354784318432 -0.92010442164216 -3.14299941854185
 7 -7.28719818811881 -1.51302091569157 -0.17555223222322
 6 -8.26089632943294 -2.31172634473447 -0.57932288748875
 6 -7.75424156975698 -3.63815208270827 -0.50038731603160
 6 -6.41935581968197 -3.52351668866887 -0.20759249114911
 6 -6.21491408780878 -2.21756003730373  0.00079288348835
 6 -8.59160662806281 -4.84136697909791 -0.94159263766377
 6 -5.33479795009501 -4.30492437593759  0.20038291089109
 8 -5.09997883578358 -5.42216670007001  0.37648467916792
 6 -4.20470404980498 -3.27551334113411  0.56654651995200
 6 -3.60317094799480 -3.76561178247825  1.88673904680468
 8 -3.87157875847585 -3.11788852505251  2.89935261636164
 8 -2.76824801850185 -4.78359308170817  1.89406798769877
 6 -2.32429301720172 -5.08470269936994  3.18435337083708
 6  2.82973548524852 -0.72977077167717 -1.23784498489849
 6  4.09643173217322 -0.37195537183718 -0.55295544454445
 6  5.11945542994299  0.46966323172317 -1.00950072277228
 6  5.05627405040504  1.22301495079508 -2.28026219151915
 6  6.35303963676368  0.64998684888489 -0.17844432963296
 6  7.65876341424142 -0.15365571247125 -0.82812976347635
 6  9.01109298189819  0.07095196479648 -0.15213702650265
 6  10.21515213971397 -0.44876194789479 -0.90761173167317
 6  10.11936863706371 -2.02106304240424 -1.28199166416642
 6  11.46231910881088 -0.21913569436944  0.00238110671067
 6  12.68276318401840 -0.46458050915091 -0.64588461136114
 6  13.85579504790479 -0.14068527132713  0.25801286878688
 6  15.29911603650365 -0.28162189128913 -0.35437367716772
 6  15.53645531443144 -1.62806043984398 -0.95483510121012
 6  16.52567667356736  0.15675003500350  0.61937644484448
 6  17.79461405080508  0.55093649204921 -0.18208402300230
 6  18.84871524102410  1.22243046004600  0.76137657065707
 6  20.28299696889689  1.32746307980798  0.13221798499850
 6  20.20886224002400  2.14324262146215 -1.09332032473247
 6  21.33431436223622  1.84313725002500  1.24501986538654
 1 -3.98672015651565  3.60001552295230  1.57704229112911
 1 -10.16137653035304  3.76180701570157 -0.49864525602560
 1 -10.37933122252225 -2.59526886768677 -1.05029168136814
 1 -2.69556601350135 -0.86513482738274  2.04436512771277
 1 -2.14110771597160  1.60557414001400  1.44832548294829
 1 -2.15555001250125  0.74160461336134  3.65928964246425
 1 -3.15987104710471  2.33437749524952  3.30535270067007
 1 -4.01046448914891  0.67505218921892  3.61569398219822
 1 -1.91114359925993 -1.58554851525153 -0.43524743394339
 1 -2.22075374787479  0.16572382278228 -0.85257529712971
 1 -0.41299481688169  0.45279989388939  0.93110350945095
 1 -0.03934173617362 -1.11953646884689  1.17935189038904
 1 -5.58691746714671  6.56824546864686  0.44777048624863
 1 -5.79089607900790  6.09539290239024  2.21376767386739
 1 -4.36603055905591  5.39887105350535  1.01727490309031
 1 -9.64826687918792  5.76459260736074 -0.40585081328133
 1 -8.95304652055206  7.95456619551955  0.45483510531053
 1 -7.51891135693569  7.59703610311031  1.57369575507551
 1 -11.88681278637864  3.15859618561856 -1.93178618331833
 1 -13.13019268846885  1.92967685888589 -1.70420161166117
 1 -12.68365009610961  2.92558121282128 -0.30981222522252
 1 -12.60064484288429 -1.70427987308731 -1.11402635753575
 1 -13.30955967486749 -0.18504524132413 -1.40307583508351
 1 -13.01325767836784 -1.56908159435944 -3.51399128362836
 1 -12.33065662986299 -0.06584112171217 -3.62339583528353
 1 -11.34544082338234 -1.44660952805281 -3.50844946494649
 1 -8.86554615761576 -5.08540928382838 -2.12189545364536
 1 -8.08462782758276 -5.75498550275027 -0.18371798479848
 1 -9.66962684758476 -4.90118513981398 -0.45843766636664
 1 -3.13566426232623 -3.17525077577758 -0.18103337483748
 1 -1.78223639013901 -4.20001644134413  3.71181409670967
 1 -3.22877248584859 -5.38189980758076  3.73968680758076
 1 -1.69070718221822 -5.97774704790479  3.05654960786079
 1  2.93851315541554 -1.85373720962096 -1.54724868986899
 1  2.67678515611561 -0.12724844524452 -2.20717386958696
 1  4.49136004160416 -0.92921513671367  0.38774199019902
 1  4.12262122562256  1.38886759715972 -2.85458382808281
 1  5.49637504920492  2.24265452435244 -1.93787025522552
 1  5.82259956755676  0.87763887138714 -2.97032576357636
 1  6.56316837973797  1.72310631063106  0.05174781758176
 1  6.11629574897490  0.05140710331033  0.68820853755375
 1  7.31152853755376 -1.05478471367137 -0.83365468906891
 1  7.73142557845785  0.40024323242324 -1.81680460406041
 1  9.23649570117012  1.16402428742874 -0.02540490829083
 1  8.82272076077608 -0.35111061726173  0.92228009170917
 1  10.31762931433143  0.10157269496950 -1.93234812431243
 1  9.13175816131613 -2.12025000150015 -1.87559348414842
 1  10.91747430313031 -2.37496428032803 -1.92999724362436
 1  9.97542042804280 -2.61238318031803 -0.24257369706971
 1  11.47872555345535  0.75878810901090  0.47683917141714
 1  11.41530458385839 -1.01536749804981  0.86806742834283
 1  12.78599191809181 -1.58620678187819 -0.85958362596260
 1  12.70573432593259  0.00035072607261 -1.58241160246025
 1  13.56133757045705  0.96101865786579  0.34996233923392
 1  13.67754050715071 -0.61220082478248  1.24969148564856
 1  15.42198548704870  0.33372285728573 -1.14199855785579
 1  15.14176161906191 -2.47375766786679 -0.13758521242124
 1  14.86618966966697 -1.92234461006101 -1.88032544764476
 1  16.48599822922292 -1.75123064796480 -1.40950241974197
 1  16.16721192189219  1.02020985468547  1.13420996529653
 1  16.95699014621462 -0.62730190529053  1.40319308050805
 1  18.21942288098810 -0.43931047844784 -0.65229857025703
 1  17.67036410091009  1.21441876077608 -1.02861643744374
 1  18.45560635323532  2.09521367906791  1.10002800810081
 1  18.75919307960796  0.69422360336034  1.67959796009601
 1  20.78022293499350  0.27846399459946  0.23848091209121
 1  19.50848495509551  3.16854041594159 -1.09049264266427
 1  21.18671292339234  2.50560721352135 -1.46760812411241
 1  19.84587849224923  1.36830864166417 -1.83754072307231
 1  21.48648462366237  1.32014012311231  2.19795941314131
 1  22.21849355565556  1.82707393709371  0.76430139643964
 1  21.23168289818982  2.93108319161916  1.47499794029403

