%nproc=4
%Mem=2GB
# td=(NStates=1) CAM-B3LYP/6-31G(d,p) 

TD

0 1
<<<<<<< HEAD
12 -7.20339091209121  0.61236998509851  0.05629331673167
 6 -4.84711932993299 -1.94412559095910  0.54139067176718
 6 -4.86001593049305  2.83092153945395  1.20703706860686
 6 -9.48040277577758  3.10545604110411 -0.36685954565457
 6 -9.57407772147215 -1.72375788678868 -0.78118454755476
 7 -5.17694111871187  0.41716153425343  0.75078549684968
 6 -4.37956766286629 -0.66808663066307  0.77473549674968
 6 -2.90958996439644 -0.30063948964896  1.27650800500050
 6 -3.05764920332033  1.18007067536754  1.63038376907691
 6 -4.45021201610161  1.48312906170617  1.16372340224022
 6 -2.85170025212521  1.37210949904990  3.27440884978498
 6 -1.92084554555456 -0.52477773917392  0.09484344264426
 6 -0.42722014461446 -0.21691603880388  0.52457658695870
 6  0.49984112131213 -0.54143765666567 -0.58259363986399
 8  0.19670091019102 -0.88352375997600 -1.72241857355736
 8  1.77714952545255 -0.55857325372537 -0.18406519541954
 7 -7.10907135503550  2.61936752655266  0.30171886738674
 6 -6.14014329332933  3.38735971177118  0.80780431403140
 6 -6.49739699279928  4.72167645704570  0.77088777597760
 6 -7.71265397239724  4.86854748624862  0.23258164946495
 6 -8.17451172277228  3.49156835213521 -0.01982943664366
 6 -5.58566652335234  5.83208567446745  1.14970973147315
 6 -8.63212100970097  5.95744677837784  0.17736472187219
 6 -8.42987687898790  7.09628574717472  0.88786503630363
 7 -9.20284255685569  0.68883174427443 -0.54486852055206
 6 -9.92591885158516  1.82860281338134 -0.64983130723072
 6 -11.17222631923192  1.40646898599860 -1.15678739823982
 6 -11.13087549144914 -0.01497613351335 -1.34698341234123
 6 -9.87060274097410 -0.35850782508251 -0.92009702580258
 6 -12.26513533723372  2.30099067006701 -1.40580735553555
 6 -12.32308685498550 -0.78226563666367 -1.74308511701170
 6 -12.31428891729173 -1.21905431663166 -3.08815393399340
 7 -7.22969243754376 -1.45081469506951 -0.16728140514051
 6 -8.22649288908891 -2.20947611971197 -0.57198215341534
 6 -7.80798694429443 -3.61345961346135 -0.54315159245925
 6 -6.48770265436544 -3.56524086108611 -0.03357508940894
 6 -6.21110370677068 -2.22684096539654  0.21459426362636
 6 -8.57852531993199 -4.85003784618462 -0.94154263266327
 6 -5.26080055035504 -4.33775765926593  0.15306817941794
 8 -5.15151398929893 -5.56632111551155  0.13720075077508
 6 -4.04591817121712 -3.29060485028503  0.56422628792879
 6 -3.38168879977998 -3.65187040834083  1.81451182408241
 8 -3.67826942754275 -3.14152088828883  2.88906158725873
 8 -2.40886207990799 -4.60878560096010  1.71674025492549
 6 -1.84326491439144 -4.97752198129813  2.90718565406541
 6  2.71782429412941 -0.67921571617162 -1.23330453085309
 6  4.07201929092909 -0.38793696999700 -0.51167131613161
 6  5.14082756715672  0.40133639903990 -1.01917168986899
 6  5.02965138813881  1.08370101940194 -2.37339150445044
 6  6.42404673747375  0.51802365256526 -0.26905339053905
 6  7.55467300520052 -0.23882422932293 -0.88476542704270
 6  8.83380525312531  0.10178504810481 -0.13485529832983
 6  10.07188781328133 -0.56784385608561 -0.84319529002900
 6  9.91154785498550 -2.05484642074207 -1.24255772077208
 6  11.37549042594259 -0.28353213401340  0.01901276987699
 6  12.81737664536454 -0.44982903400340 -0.71633165606561
 6  14.00552002040204 -0.10870207300730  0.17236430393039
 6  15.37049317421742 -0.26416014511451 -0.48053629342934
 6  15.61849351825182 -1.76186382018202 -0.93496311401140
 6  16.52212631853185  0.21845620562056  0.37970247744774
 6  17.80152474187419  0.31758315671567 -0.16377219181918
 6  18.71398176767677  1.18309652665267  0.67576800980098
 6  20.29443811301130  1.32313264676468  0.28097286048605
 6  20.45257661146115  2.11906020322032 -1.01965295799580
 6  21.09412034283428  1.98678161446145  1.33271863526353
 1 -4.13619510401040  3.71504702610261  1.48675326222622
 1 -10.17883827652765  3.96685752075207 -0.56467185868587
 1 -10.25248853825383 -2.49408874967497 -0.91181783398340
 1 -2.49253571047105 -0.92886120002000  2.04203489468947
 1 -2.19971357655766  1.81344492709271  1.24999564996500
 1 -1.97023148064806  0.95864631753175  3.74933864736474
 1 -2.94042910291029  2.49632368986899  3.46360852625263
 1 -3.78703214591459  1.00321500550055  3.87701011381138
 1 -1.92469495439544 -1.67395735613561  0.07145323612361
 1 -2.18464013651365  0.06942419281928 -0.74220426002600
 1 -0.19049256665667  0.72712732663266  0.96121652075208
 1 -0.19259706170617 -0.76108062326233  1.37798175337534
 1 -5.81841061646165  6.74370301440144  0.69956566576658
 1 -5.84169115851585  6.26935029812981  2.12846914401440
 1 -4.58552250825083  5.41395256165617  0.98870204580458
 1 -9.47283933643364  5.93190933903390 -0.43773400160016
 1 -9.18897011291129  7.78233897279728  1.00007962976298
 1 -7.72251171697170  7.32680908040804  1.75476386188619
 1 -11.93463756885689  3.00741106710671 -2.23402640734073
 1 -13.23679334853485  1.79747363856386 -1.59288047954795
 1 -12.44638636973697  3.02420107480748 -0.70411165516552
 1 -12.23048782718272 -1.96568601370137 -1.39924487938794
 1 -13.18490720962096 -0.30229696649665 -1.46526205370537
 1 -13.26384273687369 -1.85531021722172 -3.11191107560756
 1 -12.43394695889589 -0.35328986658666 -3.89056255195520
 1 -11.61628790809081 -1.84432930003000 -3.67523614361436
 1 -8.84201380438044 -5.10092083498350 -1.83299656375638
 1 -8.07938730353035 -5.75784578877888 -0.69524913791379
 1 -9.47474735963596 -5.14722974427443 -0.28799062166217
 1 -3.12535323122312 -3.11995524622462 -0.24136940844084
 1 -1.49353752025203 -4.04898133783378  3.68684159945995
 1 -2.61089069766977 -5.60503212081208  3.67757059595960
 1 -0.91498961046104 -5.58291756495650  2.47865181808181
 1  2.87128643274327 -1.79989182508251 -1.78766273127313
 1  2.55371284888489  0.13925820542054 -1.98349150135014
 1  4.13531443704370 -0.71438365356536  0.53300651665167
 1  3.92052101560156  0.91807051745175 -2.71509987968797
 1  5.21928734043404  2.15870612951295 -2.32532900110011
 1  5.61391869946995  0.73332443994399 -3.09288801980198
 1  6.70885294819482  1.57246124612461 -0.04101145834583
 1  6.40457457685769  0.03803576617662  0.63742345904590
 1  7.29214659935994 -1.29888912411241 -0.87158848244824
 1  7.89854229012901  0.18762197029703 -1.88008093169317
 1  9.17552960456046  1.08679656465647  0.00559819201920
 1  8.92825131383138 -0.27495300150015  0.94722258595860
 1  10.14889244064406 -0.00230769306931 -1.80665555505551
 1  9.25896088158816 -2.32775075157516 -1.97424334913491
 1  10.91781433713371 -2.36210299419942 -1.57309155305531
 1  9.89782266826683 -2.84525646764676 -0.34844428412841
 1  11.37942562346235  0.49301153135313  0.48856034353435
 1  11.17691074447445 -0.86990295159516  0.92125274687469
 1  12.87344066296630 -1.52141030223022 -0.98060572817282
 1  12.64647840034003  0.22692338333833 -1.65815917721772
 1  13.81133256995700  0.95784834083408  0.54129147214721
 1  13.76809956305631 -0.64200380508051  0.96420293679368
 1  15.22249553805380  0.41317080208021 -1.31280563856386
 1  15.44493193609361 -2.25403569566957  0.21737028312831
 1  14.80430348104811 -2.30708308390839 -1.65728314341434
 1  16.75978560796080 -1.72476800170017 -1.10311178067807
 1  16.14236943764377  1.09476731043104  0.70828737303730
 1  16.51167561476148 -0.24699387448745  1.32715547674767
 1  18.19899083778378 -0.78804535193519 -0.31077441784178
 1  17.65607267176718  0.70236755565557 -1.28038161396140
 1  18.27547834043404  2.12366652435243  0.84308231353135
 1  18.71035819611961  0.84312849384938  1.75415541584158
 1  20.81453636633663  0.39816596479648  0.09563662766277
 1  20.06212031863186  3.10377393929393 -1.21817541094109
 1  21.62336658875888  2.09062571537154 -1.34891625492549
 1  19.75259916431643  1.57415922672267 -1.75112208120812
 1  20.83891986718672  1.27862597169717  2.14426404360436
 1  22.10970267656765  1.85306653635363  1.20777574387439
 1  20.75038476837684  2.95397548084808  1.91907234773477
=======
12 -7.14000457345734  0.58509725782578  0.03715140254025
 6 -4.76912153015301 -1.96745792419242  0.55128166086609
 6 -4.78011794069407  2.83695214251425  1.24837120202020
 6 -9.41418615411541  3.08512400790079 -0.37542040174017
 6 -9.48891920562056 -1.71112662366237 -1.04277070617062
 7 -5.06887031163116  0.41731154925493  0.72718313661366
 6 -4.26292599869987 -0.73348317031703  0.78109613281328
 6 -2.90698970437044 -0.31722114781478  1.27822817701770
 6 -3.02116555495550  1.12731539983998  1.81103183388339
 6 -4.38935593049305  1.42461321012101  1.24980201010101
 6 -2.91016609870987  1.32852514061406  3.19095050395040
 6 -1.96330979197920 -0.51485674707471  0.07157111541154
 6 -0.55804322692269 -0.41855620282028  0.64160829012901
 6  0.47492863006301 -0.64342785568557 -0.48042342284228
 8  0.24054529462946 -1.00520592819282 -1.62572890459046
 8  1.74055586608661 -0.35624302070207 -0.00940772967297
 7 -7.10221066896690  2.54453004280428  0.30021871737174
 6 -6.02547182618262  3.32010298609861  0.90473400700070
 6 -6.42662991609161  4.74828911831183  0.80695138233823
 6 -7.68424113111311  4.81441207270727  0.31258965026503
 6 -8.17604187578758  3.45148434373437  0.02887543384338
 6 -5.49086704340434  5.85684815071507  1.21574633513351
 6 -8.51593939153915  5.99324035773577  0.05749273467347
 6 -8.43771766306631  7.15003112171217  0.70255650545054
 7 -9.07846011861186  0.60980384148415 -0.55286932063206
 6 -9.86635289498950  1.75234518761876 -0.67869419351935
 6 -11.14479357595759  1.45399373847385 -1.20757247674767
 6 -11.31628403230323  0.10621598569857 -1.33213192719272
 6 -9.91100678137814 -0.40850282458246 -0.99108412451245
 6 -12.17353617731773  2.43659423042304 -1.52570934573457
 6 -12.32325687198720 -0.70784819491949 -1.89431023952395
 6 -12.24582207060706 -1.09811222242224 -3.36832195079508
 7 -7.31245071337134 -1.40974058765877 -0.16218089508951
 6 -8.29048928872887 -2.25163033513351 -0.58059301450145
 6 -7.85972211781178 -3.63563183068307 -0.50250752805281
 6 -6.54356824092409 -3.59878421542154  0.06669493759376
 6 -6.22751534793479 -2.14713299459946  0.16519932413241
 6 -8.55748321572157 -4.93199604200420 -0.76474495289529
 6 -5.33606807710771 -4.36184006750675  0.29465233783378
 8 -5.30072891079108 -5.60995547894789  0.29302633333333
 6 -4.07644122352235 -3.27999378917892  0.58414828012801
 6 -3.47676830773077 -3.67921314261426  1.83176354925493
 8 -3.65327692829283 -3.15518225442544  2.98060074117412
 8 -2.71615280898090 -4.74969969236924  1.71848042894289
 6 -2.28019860776078 -5.40738496759676  2.94357929342934
 6  2.80768328002800 -0.59561735633563 -1.09716091649165
 6  4.11848393739374 -0.31624980128013 -0.39931008000800
 6  5.10287377177718  0.49860612601260 -0.92497226992699
 6  5.03431185418542  1.13456610591059 -2.26702086738674
 6  6.39183351615161  0.59004085428543 -0.27117360256026
 6  7.66403394129413 -0.12555290219022 -0.87957490799080
 6  8.93071494409441  0.04203907350735 -0.05918773157316
 6  10.14449507400740 -0.37719479117912 -0.93351432193219
 6  10.05677237743774 -1.96568750485048 -1.38620208520852
 6  11.49410228712871 -0.09204298509851 -0.15706483788379
 6  12.74927983568357 -0.56243029412941 -0.81568159105911
 6  13.94849431783178 -0.12512371517152  0.07859492699270
 6  15.38037416231623 -0.33355708480848 -0.57174541434143
 6  15.68062973187319 -1.83649128292829 -0.83724334203420
 6  16.42479658555856  0.28918327832783  0.37979248644864
 6  17.79932452185218  0.54962636103610 -0.20482629722972
 6  18.71933230273027  1.17547576457646  0.60081051405141
 6  20.20352902210221  1.32521285478548  0.22364712791279
 6  20.35316667046705  2.12638093529353 -1.12671366406641
 6  21.08773970477048  1.97509044534453  1.37737310071007
 1 -4.00725220972097  3.42232775417542  1.75031961886189
 1 -10.14024441714171  3.85162599759976 -0.38425381688169
 1 -10.28842213161316 -2.44282362316232 -1.20883753595359
 1 -2.72498895579558 -0.85119343324332  2.16101679287929
 1 -2.09017262246225  1.68484206680668  1.31501215161516
 1 -1.96803126062606  0.98826927982798  3.51149486298630
 1 -2.95761082108211  2.58662271977198  3.38464062946295
 1 -3.73248669136914  0.92609729372937  3.77683009580958
 1 -2.02296478137814 -1.47730769116912 -0.30950485968597
 1 -2.13810548304830  0.23794104450445 -0.62210224982498
 1 -0.46783030043004  0.63340795469547  0.91670206930693
 1 -0.29773757575758 -0.88149266446645  1.57425138033803
 1 -5.90766954235424  6.92321096519652  0.90996670587059
 1 -5.64933192259226  6.14902826592659  2.36478277537754
 1 -4.33878783478348  5.78289945634563  1.13325650125013
 1 -9.18255030753075  5.99353550165016 -0.61663189138914
 1 -9.04596581248125  8.04041478037804  0.34256387818782
 1 -7.72645211101110  7.51284768426843  1.44482286778678
 1 -11.98153225832583  3.15876620262026 -2.17325032973297
 1 -13.14783445264526  1.86718060926093 -1.70203139463946
 1 -12.22282401350135  3.22986164086409 -0.87132837683768
 1 -12.47717249564957 -1.66093553865387 -1.55678063296330
 1 -13.30900961986199 -0.05238197499750 -1.87705323282328
 1 -13.26073242584258 -1.51653633983398 -3.71302118661866
 1 -12.01077464166417 -0.15098963656366 -3.84384788048805
 1 -11.55378165746575 -2.04653952105211 -3.76366498649865
 1 -8.78386798979898 -5.10309105200520 -2.05310857495750
 1 -7.99088845364536 -5.73373337753775 -0.54825443844384
 1 -9.53640352525252 -4.80155517681768 -0.30897271987199
 1 -3.36874757065707 -3.47416066676668 -0.27484275577558
 1 -1.77626579307931 -4.80377681738174  3.58696161146115
 1 -3.18034764336434 -5.96937855545555  3.48431127002700
 1 -1.52002011351135 -5.95667494069407  2.51515546844684
 1  2.69301860596060 -1.54318615451545 -1.21353531853185
 1  2.75035251285129 -0.02567828822882 -1.91790494269427
 1  4.20218112371237 -0.93523573877388  0.27280049604960
 1  4.10082904640464  1.23999270967097 -2.59867823752375
 1  5.33623903560356  2.18879913881388 -1.90172664086409
 1  5.99056636423642  0.71342244974497 -2.89904863586359
 1  6.73361542444244  1.80927492749275 -0.06907426462646
 1  6.46733085248525  0.37850981358136  0.83175289198920
 1  7.29717710241024 -1.08670790599060 -1.05362668626863
 1  7.95669810571057  0.09830303840384 -1.99000192379238
 1  9.05700775237524  1.09892777777778  0.26281391359136
 1  8.83629211791179 -0.50182568876888  0.86762462616262
 1  10.16662421382138  0.15231776947695 -1.69472436193619
 1  9.12556754225423 -2.31645962246225 -1.89033495829583
 1  10.79588214391439 -2.40818760266027 -2.22608685258526
 1  10.13986687268727 -2.69888183018302 -0.40154959465947
 1  11.59500718161816  1.14323655385539 -0.08499701220122
 1  11.37307036043604 -0.51148711001100  0.79269989158916
 1  12.69395271417142 -1.60677883908391 -0.99454712231223
 1  12.67284103660366 -0.05996530553055 -1.98181154245425
 1  13.83878531523152  0.97588014401440  0.55981332433243
 1  13.91703445654566 -0.80697030173017  0.92088860536054
 1  15.43053634213421  0.13955344034403 -1.65094945294529
 1  15.70474791769177 -2.45922621472147  0.02223076917692
 1  15.16506955765577 -2.29245162076208 -1.71988940404040
 1  16.72469209860986 -1.82815834073407 -1.14894636413641
 1  15.84732993369337  1.24737257095710  0.62965951025103
 1  16.41213566076608 -0.46486566166617  1.14884764596460
 1  18.15390632933293 -0.43080962836284 -0.30612395279528
 1  17.49938700320032  1.17913523242324 -1.19655323112311
 1  18.26526731933193  2.13653781148115  1.02575058035804
 1  18.99732689298930  0.58855303630363  1.53238323862386
 1  20.32933784648465  0.16830297849785 -0.07179011501150
 1  19.89719382598260  3.14763832573257 -1.09739333273327
 1  21.49977422952295  2.12193884668467 -1.24389575287529
 1  19.82236614101410  1.65601741254125 -1.88229519851985
 1  21.05860183538354  1.46535464456446  2.31120073727373
 1  22.17473918021802  2.06926815651565  1.09474444074407
 1  20.46265599549955  2.86473655695570  1.50462090259026
>>>>>>> 8e03b5b5abfc0030b3aa597dc0de36371bfbd096

