%nproc=4
%Mem=3GB
# td=(NStates=1) iop(3/107=0140000000,3/108=0140000000) CAM-B3LYP/6-31G(d,p) 

TD

0 1
12 -7.17735242694269  0.59242762626263  0.23769013901390
 6 -4.82201101760176 -2.02463969456946  0.52425782818282
 6 -4.80138616921692  2.81328004590459  1.27399750495050
 6 -9.48020478497850  3.14898245124512 -0.36149862516252
 6 -9.48547464546455 -1.62925469116912 -0.89118592349235
 7 -5.10706773797380  0.37066315691569  0.80924874887489
 6 -4.28295054235424 -0.74538568176818  0.94032192689269
 6 -2.92980920152015 -0.44835323332333  1.27808347744774
 6 -2.99503273017302  1.02117081868187  1.73750002930293
 6 -4.35556579127913  1.50300495159516  1.24050844474447
 6 -2.84793097389739  1.18859167846785  3.28993430803080
 6 -1.97272300200020 -0.67497348654865  0.03885769606961
 6 -0.50963667286729 -0.42148539653965  0.45792917521752
 6  0.46438836203620 -0.72407902980298 -0.69320911101110
 8  0.12592280908091 -1.13867764546455 -1.73580097319732
 8  1.72013061146115 -0.51165110351035 -0.24008939653965
 7 -7.09486713011301  2.58460167006701  0.27413833793379
 6 -6.06223636743674  3.35155892329233  0.67632350845085
 6 -6.36454136253625  4.80210707430743  0.72452071077108
 6 -7.63043782908291  4.88427023222322  0.40942706910691
 6 -8.06243577107711  3.51460839963996  0.09143714231423
 6 -5.46994902880288  5.91731120482048  1.30283043824382
 6 -8.56415642364236  6.09492976257626  0.16900751325132
 6 -8.27404581458146  7.31137028672867  0.61673573287329
 7 -9.12577161826183  0.78698569296930 -0.47968454235424
 6 -9.89073655995599  1.88369169346935 -0.67493030653065
 6 -11.17682163486349  1.52285172967297 -1.13704856455646
 6 -11.20348983618362  0.16987453325333 -1.33979400770077
 6 -9.94761236483648 -0.31228142154215 -0.87077927922792
 6 -12.28261919961996  2.54368961036104 -1.54887434013401
 6 -12.24504829772977 -0.66781290509051 -1.84608393899390
 6 -12.16685859475948 -0.96758695099510 -3.36758740994099
 7 -7.23106606900690 -1.41976681238124 -0.08184085918592
 6 -8.25447977427743 -2.15584412991299 -0.60977255715572
 6 -7.82584462426243 -3.63383393479348 -0.54928522832283
 6 -6.48791658215822 -3.54230721282128 -0.19889197089709
 6 -6.17393112481248 -2.20393834963496  0.07951978737874
 6 -8.62760510001000 -4.77874397279728 -0.85814919801980
 6 -5.39873533643364 -4.36475003840384  0.12650762486249
 8 -5.14568556085609 -5.54097095409541  0.01395734433443
 6 -4.17434193679368 -3.30255770317032  0.51031935353535
 6 -3.61527570437044 -3.69842778547855  1.95107107560756
 8 -3.79813259665967 -3.07304466236624  2.96198955715572
 8 -2.87574292709271 -4.84587320582058  1.82239127662766
 6 -2.23906286328633 -5.27586279217922  3.15456285668567
 6  2.72128844924492 -0.77196548544854 -1.22411592879288
 6  4.04372525772577 -0.66471173907391 -0.63921648444844
 6  5.05204069536954  0.16876340434043 -0.92509538653865
 6  4.89599332493249  1.16671434673467 -2.05752988798880
 6  6.40279655835584  0.24969558555856 -0.16071659605961
 6  7.68841029362936 -0.44668321632163 -0.89610993969397
 6  8.88058577017702 -0.22823463956396 -0.05899200160016
 6  10.24562002260226 -0.48539020222022 -0.80009572957296
 6  10.19792306890689 -2.02566044594459 -1.33907087308731
 6  11.47778244204420 -0.46264115521552  0.07653969146915
 6  12.80951868736874 -0.50254028752875 -0.63308081318132
 6  14.05759703150315 -0.00715642994299  0.21896830843084
 6  15.39569556055605 -0.09548863246325 -0.50270592309231
 6  15.64973124412441 -1.49126751505151 -0.94603642994299
 6  16.45927291999200  0.47575409270927  0.33366810151015
 6  17.75935352305230  0.62428615821582 -0.19114564156416
 6  18.79580999959996  1.28154623312331  0.75353861056106
 6  20.16296910131013  1.47087652015202  0.11738844484448
 6  20.31795464126413  2.20147745284528 -1.19867456335634
 6  21.12148721572157  2.04977667756776  1.22377631763176
 1 -3.99274963846385  3.54913816521652  1.69395549134913
 1 -10.08726084938494  4.22224449894989 -0.51236576277628
 1 -10.22995741984198 -2.38029356445645 -1.22319013841384
 1 -2.56183347054705 -1.08075827852785  2.15704219491949
 1 -2.30408387468747  1.85506756785679  1.16156980598060
 1 -1.71253433983398  0.88030713711371  3.51857219461946
 1 -3.15297240634063  2.22450167296730  3.45766378857886
 1 -3.50940374087409  0.48092324662466  3.68756044124412
 1 -1.93223834283428 -1.65342601340134 -0.37531553865387
 1 -2.25842221122112 -0.21979435963596 -0.85814254885489
 1 -0.42913834253425  0.87648723602360  0.66777064006401
 1 -0.20543896419642 -0.84714548114811  1.53673713201320
 1 -5.75116929462946  6.83519103110311  0.84299413071307
 1 -5.43262473377338  6.05497837923792  2.32942495499550
 1 -4.50132497709771  5.56499076707671  1.03497423002300
 1 -9.16202646244624  6.01218460046005 -0.75967732043204
 1 -8.78934799849985  8.12471219221922  0.23424320002000
 1 -7.37533546564657  7.52898973537354  1.41931089138914
 1 -11.83567404040404  3.27878702580258 -2.06126195769577
 1 -13.19563686138614  1.96922566496650 -2.05148087628763
 1 -12.57626865956596  3.03468080218022 -0.58858929842984
 1 -12.12942490739074 -1.60381130393039 -1.20322382328233
 1 -13.21273357245725 -0.20883359385939 -1.64466022042204
 1 -12.96382158135814 -1.81714537663766 -3.56223718181818
 1 -12.28735914161416 -0.19357782908291 -4.12552153055306
 1 -11.20665550495050 -1.72529355655566 -3.51896017421742
 1 -8.86405102370237 -4.78671517231723 -1.85292135513551
 1 -8.02472685788579 -5.50970692399240 -0.75813576867687
 1 -9.60117429642964 -4.72202065046505 -0.38137040574057
 1 -3.39025654415442 -3.61970857645765 -0.17973571167117
 1 -1.67616100370037 -4.34350656405641  3.43798551615162
 1 -3.03166960426043 -5.42239176407641  3.99149018671867
 1 -1.77593811431143 -6.30247103190319  2.86153951505150
 1  2.62477053185319 -1.81472809560956 -1.75314676337634
 1  2.63324976627663 -0.08584049924993 -2.06038709620962
 1  4.21207169386939 -1.28955736953695  0.32777417761776
 1  4.11293660516052  1.34296983968397 -2.54857534323432
 1  5.22044897709771  2.09672009590959 -1.94347178557856
 1  5.51315088358836  0.74749594049405 -2.98649490639064
 1  6.53608179207921  1.45740572117212 -0.11827221332133
 1  6.33931180328033 -0.19019635633563  0.94447064256426
 1  7.36283840664066 -1.38911958495850 -1.16300105730573
 1  7.79583214171417  0.23007211021102 -1.84866568946895
 1  8.85964200850085  0.69438893639364  0.37714014211421
 1  8.61899502030203 -0.83433178587859  0.88227435083508
 1  10.28740337213721  0.20370651845184 -1.62678783678368
 1  9.38601821092109 -2.28930721422142 -1.96691507340734
 1  11.00421956255626 -2.43369676897690 -2.05483084118412
 1  10.15325752285229 -2.71009512421242 -0.49334672837284
 1  11.28306994859486  0.39738617201720  0.85500327112711
 1  11.59417701320132 -1.37338863646365  0.83360968106811
 1  13.25522347484748 -1.47456487578758 -1.28141041254125
 1  12.67674350425042  0.18690362636264 -1.50704503820382
 1  13.77832925322532  1.15214057735774  0.49746457515752
 1  14.22280059065907 -0.61193757265727  1.20265263926393
 1  15.28976937833784  0.56767016401640 -1.37833910271027
 1  15.92186598339834 -2.21247058825883 -0.04492262776278
 1  15.05706735113511 -2.23224774477448 -1.51051242474247
 1  16.77333561316131 -1.51158205520552 -1.48968548184818
 1  16.13171644514451  1.53698203190319  0.36251216751675
 1  16.53458753655365 -0.15665194999500  1.28434692939294
 1  18.28330506820682 -0.48388490249025 -0.55601579717972
 1  17.95281259085909  1.11190008410841 -1.14633037663766
 1  18.59735879277927  2.39773104110411  1.03726567336734
 1  18.98372433493349  0.54878971847185  1.71276452195219
 1  20.60346017831783  0.26471746934693 -0.07594170197020
 1  19.91307812631263  3.28484926142614 -0.87455964066407
 1  21.37356115691569  2.51635277737774 -1.44692267346735
 1  19.70576897449745  1.86874716491649 -1.89727811221122
 1  20.83157701120112  1.53492913381338  2.13697736653665
 1  22.26301419421942  2.01492196289629  0.98804545814581
 1  20.77190726922692  3.06697281448145  1.60769790649065

