%nproc=4
%Mem=2GB
# td=(NStates=1) CAM-B3LYP/6-31G(d,p) 

TD

0 1
<<<<<<< HEAD
12 -7.12471304430443  0.62700144824482  0.13393108050805
 6 -4.81807642564256 -1.92131330973097  0.57333386608661
 6 -4.76441637053705  2.77034548184818  1.01135750065007
 6 -9.36474120962096  3.14539003450345 -0.35698855855586
 6 -9.55288560226023 -1.72645815681568 -0.69841627072707
 7 -5.07326075067507  0.43541335943594  0.77110752905291
 6 -4.31401110721072 -0.72500232223222  0.86758478167817
 6 -2.85433443884388 -0.41370079577958  1.19864021822182
 6 -2.96722016041604  1.08020068836884  1.50344107480748
 6 -4.35962295719572  1.52181293009301  1.12253928382838
 6 -2.60653573567357  1.42398468656866  3.02439384828483
 6 -1.88768222922292 -0.53543880528053 -0.06784282598260
 6 -0.43181060366037 -0.36569091629163  0.40378450775078
 6  0.52106324352435 -0.66170968386839 -0.59949533003300
 8  0.33793503360336 -0.95233064066407 -1.81532786448645
 8  1.83978578907891 -0.45387278367837 -0.30644743364336
 7 -7.12791323922392  2.53414900470047  0.28710740624062
 6 -6.03639291829183  3.35146612241224  0.72874640824082
 6 -6.41668892199220  4.67964225362536  0.78535922312231
 6 -7.67434014101410  4.79175980748075  0.40117850915091
 6 -8.12788706030603  3.40968016331633  0.15946849314931
 6 -5.54685264196420  5.82563502940294  1.02869763026303
 6 -8.56907470507051  5.88244927862786  0.22912989838984
 6 -8.52077596889689  7.12671879047905  0.75390163996400
 7 -9.13370564316432  0.61874473557356 -0.43341737543754
 6 -9.85843210291029  1.88402835593559 -0.57766409050905
 6 -11.16713581018102  1.53676201530153 -1.14418613811381
 6 -11.29035143904390  0.11977734183418 -1.18606732073207
 6 -9.96993267396740 -0.38967094139414 -0.72457747384738
 6 -12.25493431713171  2.49469004000400 -1.36077285208521
 6 -12.44954950125013 -0.69937734783478 -1.55931674017402
 6 -12.44769225762576 -1.14721713291329 -3.06882200080008
 7 -7.27584705300530 -1.39351896549655 -0.13844852185219
 6 -8.30799103890389 -2.23107827992799 -0.40025498069807
 6 -7.93757990359036 -3.62104037153715 -0.40248752605261
 6 -6.54046793089309 -3.49560389738974 -0.05717744964496
 6 -6.18099069546955 -2.19838812011201  0.08341114531453
 6 -8.66384385178518 -4.89147198959896 -0.58213669206921
 6 -5.30979544984498 -4.30436431993199  0.15807868046805
 8 -5.13779261716172 -5.56256073947395  0.11585861656166
 6 -4.20681426082608 -3.28779456925693  0.53899376467647
 6 -3.40106073697370 -3.67319254055406  1.76345671857186
 8 -3.69739133973397 -3.17664440064006  2.84362704380438
 8 -2.57978917261726 -4.72096681908191  1.62609119001900
 6 -2.05800638853885 -5.07457168626863  2.80267520302030
 6  2.78621113281328 -0.72624041864186 -1.28188938933893
 6  4.02117420642064 -0.43566174247425 -0.62975312431243
 6  5.12627611201120  0.38153441884188 -1.15356512921292
 6  4.99259768276828  0.96718936823682 -2.56382054735474
 6  6.41820615341534  0.46950880108011 -0.31432791799180
 6  7.63986152405241 -0.12321266816682 -1.07989493999400
 6  8.92727460006001  0.03748861846185 -0.24830664346435
 6  10.18683930843084 -0.60592766446645 -0.89148011851185
 6  10.15360206040604 -2.11390232633263 -1.20359382438244
 6  11.37360023692369 -0.30787456825683  0.04177504610461
 6  12.73889879757976 -0.65819987108711 -0.53961398429843
 6  13.98575804420442 -0.10049125192519  0.28544561206121
 6  15.32069819471947 -0.28036176527653 -0.42829106890689
 6  15.71476314521452 -1.71824945874587 -0.87364698239824
 6  16.34362846874687  0.41239559955996  0.47724223142314
 6  17.79011360076008  0.47859925832583 -0.15255106970697
 6  18.67873824332433  1.17132534953495  0.81269170217022
 6  20.16793546274628  1.41928226172617  0.33995875907591
 6  20.26216757055706  2.31880017721772 -0.84332532523252
 6  20.99462039283928  2.03832676897690  1.43260862426243
 1 -3.98646013051305  3.70002552395240  1.43178776567657
 1 -10.20331072377238  3.93561439643964 -0.58560395189519
 1 -10.33313660306031 -2.29224856565657 -1.06593324552455
 1 -2.34202065896590 -0.93375168906891  2.02124281548155
 1 -2.39626323152315  1.73252683528353  1.04793544394439
 1 -1.59371382888289  1.09627007990799  3.46093980748075
 1 -2.95602066206621  2.50386444394439  3.27134930033003
 1 -3.42776621932193  0.99676436043604  3.81968438123812
 1 -1.81150363526353 -1.49225918631863 -0.54384829402940
 1 -2.42316398889889  0.08463571397140 -0.91163120272027
 1 -0.21171468886889  0.60907552145215  0.96971737083708
 1 -0.49239704170417 -1.29224373957396  0.97634158935894
 1 -5.84206298169817  6.67722636673667  0.54466017521752
 1 -5.41795878527853  6.20558392149215  2.17569386648665
 1 -4.58036199219922  5.68480964736474  0.49080225582558
 1 -9.45110716321632  5.50939708780878 -0.31029125732573
 1 -9.23650486638664  7.98606934583458  0.27966758855886
 1 -7.75178464426443  7.76765316481648  1.45567395289529
 1 -11.92661676677668  3.24417474347435 -2.31895490019002
 1 -13.00296996619662  2.14777866906691 -1.70652184368437
 1 -12.53652538363836  2.96079473417342 -0.44273551755176
 1 -12.37782256065607 -1.73383282838284 -0.96421137603760
 1 -13.24633335223522 -0.17574431123112 -1.40380590809081
 1 -13.21036738933893 -1.89442412861286 -3.37811769626963
 1 -12.57684124832483 -0.24885942354235 -3.93307680338034
 1 -11.42657893719372 -1.70333520062006 -3.47964658465847
 1 -9.22851245424543 -4.72402314521452 -1.54038730283028
 1 -8.03711307610761 -5.76312631683168 -0.48201781478148
 1 -9.48866875177518 -4.84506952825283  0.04277245464546
 1 -3.56348704460446 -3.04905815651565 -0.39696496799680
 1 -1.64410257675768 -4.07185362506251  3.49767268256826
 1 -2.98213782238224 -5.78565018261826  3.37711054995500
 1 -1.34869298079808 -5.85123439663966  2.42234618751875
 1  2.64527383148315 -1.57381921782178 -1.67669163416342
 1  2.70951842944294 -0.28383410381038 -2.35424857705771
 1  4.29466037163716 -0.88176039123912  0.40303351935193
 1  4.02732169566957  1.03538224862486 -3.03351172087209
 1  5.37587299899990  2.00286054495450 -2.46563303150315
 1  5.62383969156916  0.51830293779378 -3.21085981698170
 1  6.51091315421542  1.51714571457146 -0.23721107830783
 1  6.18672279167917 -0.07422545994600  0.60079979667967
 1  7.41410879557956 -1.24261349654965 -1.45687701130113
 1  7.82046448234823  0.41276448454846 -1.91778470207021
 1  9.12212426402640  1.12267015201520  0.06990462266227
 1  8.88787727642764 -0.42120762696270  0.72044990869087
 1  10.59895744714471 -0.11552901520152 -1.82077696719672
 1  9.32116710221022 -2.34368234473447 -1.99568549334933
 1  11.09250180588059 -2.24877166106611 -1.71472571647165
 1  9.99428231423142 -2.65427736973697 -0.26359579927993
 1  11.25775345624562  0.83397562776278  0.39442092959296
 1  11.27560061346135 -0.87864382568257  0.99463008460846
 1  12.86274959385939 -1.68138629982998 -0.62462012961296
 1  12.87742149464946 -0.19476878587859 -1.42741610291029
 1  13.85019645634564  0.89265182118212  0.64802214521452
 1  14.15304805790579 -0.57442704740474  1.07557407390739
 1  15.39590287878788  0.27719720472047 -1.43781813981398
 1  15.88252569546955 -2.13070336243624  0.09083762986299
 1  14.94693774447445 -2.24946732233223 -1.46947436253625
 1  16.58735836523653 -1.82204772967297 -1.12794426392639
 1  15.92442764346434  1.35309314301430  0.66575311961196
 1  16.40149459665966  0.00938176307631  1.48386114731473
 1  18.11687262596260 -0.59464601200120 -0.17607094749475
 1  17.70585765026503  1.02835015391539 -1.22994657045705
 1  18.37027782038204  2.18063222092209  1.14883288858886
 1  18.62143930423042  0.52237641864186  1.77577757805781
 1  20.70840575327533  0.58760490869087 -0.00075301130113
 1  19.67590169676967  3.16936049794979 -0.56005959935994
 1  21.32986723882388  2.42177883068307 -1.19951131443144
 1  19.65103900830083  1.75023683448345 -1.68820578957896
 1  21.16313228842884  1.16365447454745  2.20880049724972
 1  22.13229493579358  2.31726295599560  1.08849381568157
 1  20.70776050595060  2.92851293459346  1.80829126962696
=======
12 -7.04008458145815  0.55306405450545  0.05952363976398
 6 -4.86022064006401 -1.93972515091509  0.51314784748475
 6 -4.75200512941294  2.81273972127213  0.96569293419342
 6 -9.41231596709671  3.10965646114611 -0.39237209690969
 6 -9.50699101280128 -1.72140765176518 -0.81152758185819
 7 -5.10674409900990  0.47500731883188  0.65879629792979
 6 -4.37778748484848 -0.71792161416142  0.74694271747175
 6 -2.96715572097210 -0.39488891459146  1.24013436763676
 6 -3.01460489888989  0.96918958725873  1.64061479217922
 6 -4.35097209210921  1.50806155495550  1.04876190609061
 6 -3.03662874497450  1.17111940004000  3.15339674857486
 6 -1.96510997199720 -0.67322258365837  0.05283924222422
 6 -0.47339476207621 -0.46022036923692  0.31814594389439
 6  0.51732286948695 -0.69751326422642 -0.72164754525453
 8  0.28344958505851 -1.20558596619662 -1.75544187588759
 8  1.81918372887289 -0.44529192559256 -0.34819160806081
 7 -7.08804925282528  2.70245583538354  0.23512220772077
 6 -6.03071235023502  3.41807278307831  0.72256579017902
 6 -6.36143339643964  4.87126141554155  0.75077576477648
 6 -7.63489619661966  4.90060069156916  0.34278266956696
 6 -8.17914218581858  3.53428262356236  0.01600414671467
 6 -5.38623658035804  5.91961442734273  1.14514927542754
 6 -8.50137793539354  6.03207424112411  0.20133711911191
 6 -8.38311220252025  7.22394851345135  0.85421167096710
 7 -9.09632190479048  0.70317317841784 -0.61397543124312
 6 -9.82317857755775  1.81942189528953 -0.66024234833483
 6 -11.15134423102310  1.43838217731773 -1.00088180768077
 6 -11.22944534843484  0.15457082118212 -1.20315902990299
 6 -9.88973465416542 -0.37259923422342 -0.84950996709671
 6 -12.24770359405941  2.41057162816282 -1.20453722852285
 6 -12.31597614391439 -0.71346875697570 -1.72933374187419
 6 -12.39749723812381 -0.75595800700070 -3.34059917851785
 7 -7.26692616091609 -1.44147376097610 -0.00068474547455
 6 -8.28606884668467 -2.23514868696870 -0.47678263346335
 6 -7.86592273787379 -3.70225849334933 -0.43814109140914
 6 -6.59295317941794 -3.59622395939594  0.00099836793679
 6 -6.17945054145415 -2.20699898119812  0.17573037723772
 6 -8.56463393079308 -4.88826166856686 -0.79948842724272
 6 -5.38757322762276 -4.43901778527853  0.23425629822982
 8 -5.07285612351235 -5.59183366676668  0.20522755345535
 6 -4.23593717311731 -3.35694148394839  0.60272013731373
 6 -3.51281191209121 -3.66868208950895  2.00760113301330
 8 -3.77242884348435 -3.13031976817682  3.06265894699470
 8 -2.67048824252425 -4.62233695609561  1.76578515941594
 6 -2.11279186708671 -5.18808303740374  3.08396333183318
 6  2.74385689738974 -0.67162495709571 -1.34579577997800
 6  4.15076716571657 -0.57442561886189 -0.71819196819682
 6  5.24585807020702  0.23171943734373 -1.00540031273127
 6  5.15042346534653  1.13686633593359 -2.24332849814981
 6  6.41793612641264  0.33148499869987 -0.18422490769077
 6  7.60169770767077 -0.24957530443044 -0.97589453995400
 6  8.89630150275027  0.02820769036904 -0.23563537633763
 6  10.21387201170117 -0.59454652635264 -1.00837180768077
 6  10.04110081028103 -2.00474141024102 -1.36015948094809
 6  11.41795467236724 -0.38519230003000 -0.06766589798980
 6  12.77444235193519 -0.60038408950895 -0.76915693859386
 6  13.98077754615461 -0.28894009680968  0.10561762926293
 6  15.35715184008401 -0.34287801690169 -0.53419165896590
 6  15.70968263716372 -1.69059669346935 -0.98956857455746
 6  16.36890099599960  0.36376073607361  0.46085059225923
 6  17.77003159255926  0.61909330773077 -0.05952176677668
 6  18.74838520802080  1.38151636863686  0.92256268926893
 6  20.13887255645565  1.52771310481048  0.44048881208121
 6  20.16643799759976  2.22378067526753 -0.94718571127113
 6  20.98101903270327  2.29216215251525  1.40480584398440
 1 -3.92084356885689  3.62285780718072  1.20715530243024
 1 -10.25024541724172  3.92649348434843 -0.31872726422642
 1 -10.37724101350135 -2.38540788158816 -1.01109776197620
 1 -2.62814927182718 -0.98537685158516  2.12319301050105
 1 -2.14783838903890  1.50413399599960  1.42746339673967
 1 -2.04408886638664  1.02250270317032  3.50123383688369
 1 -3.15892095209521  2.14175823332333  3.31995416081608
 1 -3.86027947064707  0.66597128112811  3.66051846464646
 1 -2.02059454435444 -1.70318027842784 -0.17566147534753
 1 -2.21490316281628 -0.08441119071907 -0.79645968556856
 1 -0.06487000440044  0.52966758065807  0.84557495659566
 1 -0.41473927592759 -1.22245676087609  1.19761371657166
 1 -5.24358313371337  6.82978162226223  0.32038774797480
 1 -5.49575656505651  6.15609897299730  2.25661195829583
 1 -4.32104606060606  5.64339550595059  1.04461763736374
 1 -9.38775082758276  6.04193034113411 -0.31093132133213
 1 -9.26340755665566  8.08272901180118  0.72181180298030
 1 -7.86144561036104  7.29538593809381  1.74773315881588
 1 -12.19525363046305  3.04777510351035 -2.09544254895490
 1 -13.26266593579358  1.78032192339234 -1.40842203370337
 1 -12.24507623872387  3.09808846354635 -0.34336558055806
 1 -12.31237601600160 -1.71540098519852 -1.38108306320632
 1 -13.27433615251525 -0.45930266706671 -1.23108863636364
 1 -12.96754310691069 -1.59783446964697 -3.60900078457846
 1 -12.96268983318332  0.34870033243324 -3.68639213491349
 1 -11.30242652195220 -1.07895276237624 -3.70187880788079
 1 -9.20677028002800 -4.80462120502050 -1.59225248934893
 1 -7.93879324412441 -5.84165416961696 -0.73332294529453
 1 -9.32132201710171 -5.20590561186119  0.02768094549455
 1 -3.55078577447745 -3.42846609730973 -0.12845811731173
 1 -1.54124229072907 -4.37162360206021  3.51745466076608
 1 -2.81502111071107 -5.74658627622762  3.58290112901290
 1 -1.36338444994500 -5.81016028922892  2.68141209410941
 1  2.65805510961096 -1.59572140804080 -1.84641860686069
 1  2.54549202680268  0.14524880448045 -2.11977512971297
 1  4.22640354595460 -1.20848306350635  0.20376359235924
 1  4.10454941844184  1.12373108350835 -2.62496086578658
 1  5.32297770947095  2.21686194509451 -1.92406887508751
 1  5.73548085568557  1.05177628512851 -2.94607333833383
 1  6.68288035093509  1.39053305330533  0.13271591439144
 1  6.10570468986899 -0.34175221262126  0.65084480118012
 1  7.29433681838184 -1.20794002920292 -1.25952727632763
 1  7.71679411531153  0.35474868296830 -1.91138406200620
 1  8.96711876347635  0.98450633563356 -0.01026339413941
 1  8.87472596129613 -0.54173968016802  0.69510737443744
 1  10.32853040444044 -0.12863032533253 -1.90826571607161
 1  8.97563254875488 -2.06553452995300 -1.80574649944995
 1  10.96672922862286 -2.35190197409741 -1.82086633053305
 1  10.18646153215322 -2.59936187818782 -0.32800223992399
 1  11.40074775567557  0.75154738493849  0.18436992449245
 1  11.57821087448745 -1.02932889418942  0.95654627622762
 1  12.78167148604861 -1.70850901210121 -1.06676434403440
 1  12.80701445394539  0.03226391739174 -1.60259362066207
 1  13.89858129482948  0.79322187818782  0.46448379137914
 1  13.82961571467147 -1.08950855555556  1.03950046654665
 1  15.10494378287829  0.34830431543154 -1.25820017801780
 1  15.73107054995500 -2.24222451455145  0.05680422652265
 1  15.03230628132813 -2.37191956755676 -1.56257367246725
 1  16.65487511691169 -1.66131165606561 -1.40178164766477
 1  16.02212741344134  1.41302913661366  0.62937948224822
 1  16.31830627782778 -0.33009218431843  1.36588935013501
 1  18.14740567926793 -0.45725227262726 -0.13759710011001
 1  17.92495956045605  0.98540585948595 -1.04432800860086
 1  18.48090888348835  2.33744790249025  1.06175418071807
 1  18.68276543684368  0.87547172817282  1.96343634393439
 1  20.52202711541154  0.56486263446345  0.33007007100710
 1  19.78449255585558  3.32454601650165 -1.18561215461546
 1  21.25524977707771  2.35931258405841 -1.32226358965897
 1  19.67412131653165  1.81683349414941 -1.78830579957996
 1  21.03823979917992  1.61433954305431  2.29758937613761
 1  22.12782448874887  2.47722895259526  1.11636660296030
 1  20.69886961686169  3.16258634193419  1.71211165166517
>>>>>>> 8e03b5b5abfc0030b3aa597dc0de36371bfbd096

