%nproc=4
%Mem=3GB
# td=(NStates=1) iop(3/107=0140000000,3/108=0140000000) CAM-B3LYP/6-31G(d,p) 

TD

0 1
12 -7.15189988168817  0.61068945244524  0.05122149214921
 6 -4.83664248074807 -1.90826805740574  0.52887829022902
 6 -4.81288731933193  2.86700541844184  1.16421652685269
 6 -9.45529229372937  3.14051160416042 -0.39606208150815
 6 -9.49112521052105 -1.72437420312031 -0.97194399929993
 7 -5.08963599479948  0.43553964456446  0.74566239023902
 6 -4.42341458875888 -0.59517066026603  0.82630052475248
 6 -2.90227644824482 -0.37004540254025  1.36406207530753
 6 -3.00497372427243  1.04500320192019  1.68104438373837
 6 -4.37373760846085  1.48327297839784  1.18142253615362
 6 -2.99687586838684  1.36054887418742  3.24001931653165
 6 -1.97099282898290 -0.61288727792779  0.13461727202720
 6 -0.54904061326133 -0.43972722072207  0.55357874017402
 6  0.41732365556556 -0.58499512141214 -0.63803359345935
 8  0.13049326612661 -1.02389616731673 -1.73652104520452
 8  1.75909450785079 -0.32027196559656 -0.21548693629363
 7 -7.07860550395039  2.60847405730573  0.31569249334933
 6 -6.04419456325633  3.34340810821082  0.73691956805681
 6 -6.43215812421242  4.76339320292029  0.84266252495250
 6 -7.77204198949895  4.79124092929293  0.37342346874687
 6 -8.21629115661566  3.44806174497450  0.15163316191619
 6 -5.54310634453445  5.93173264696470  1.17034718991899
 6 -8.51070107810781  6.00533080268027  0.15411602410241
 6 -8.42160057005701  7.15739488918892  0.85959001830183
 7 -9.07648668976898  0.66105309970997 -0.64641121502150
 6 -9.79295678197820  1.85128845314531 -0.74670748424843
 6 -11.27056100880088  1.49343878837884 -1.08222308200820
 6 -11.27729721692169  0.15167271307131 -1.24700472877288
 6 -9.95132273587359 -0.41281147454745 -1.04445664696470
 6 -12.23922486018602  2.48686392779278 -1.38333778647865
 6 -12.44248804170417 -0.62855897969797 -1.76583591419142
 6 -12.32756466536654 -1.19468966126613 -3.27786843804380
 7 -7.22277523992399 -1.37446228192819 -0.16955963106311
 6 -8.26350067636764 -2.24931347684768 -0.59329090899090
 6 -7.85410745054505 -3.67556810821082 -0.57357765756576
 6 -6.49757754825483 -3.60555353745375 -0.15105718741874
 6 -6.21688542024202 -2.23148110391039  0.13637547294729
 6 -8.69483182268227 -4.84807090549055 -0.93622700580058
 6 -5.33594905780578 -4.39069263266327  0.14856983108311
 8 -5.10286127842784 -5.57314417141714  0.22407835643564
 6 -4.19444394699470 -3.23620106750675  0.47747606920692
 6 -3.54139831663166 -3.61933987668767  1.88385435393539
 8 -3.71363414681468 -3.03023038093809  2.93243660186019
 8 -2.85965131793179 -4.66867548604861  1.72868190569057
 6 -2.20131908890889 -5.17965317121712  3.00508790919092
 6  2.80913723412341 -0.61183947284728 -1.12567608480848
 6  4.05121600680068 -0.55529079697970 -0.44572713551355
 6  5.13564905620562  0.21556808480848 -0.79965284228423
 6  5.17912163776378  1.23204087938794 -1.91966610161016
 6  6.45402168086809  0.16196681268127 -0.04621514591459
 6  7.64523597619762 -0.40744929292929 -0.91454178287829
 6  8.97810552215222 -0.33523533963396 -0.08380448284828
 6  10.29511497209721 -0.67378904210421 -0.88978469846985
 6  10.20461373797380 -2.13052093199320 -1.38509547554755
 6  11.51373603740374 -0.39826471757176 -0.09476743924392
 6  12.91737947344735 -0.60017005050505 -0.71934944004400
 6  13.98831010281028 -0.05904161846185  0.12710912251225
 6  15.36056204720472 -0.13867295089509 -0.53790944344434
 6  15.82920919191919 -1.70159854815482 -0.81256308260826
 6  16.39316630933093  0.48780529782978  0.43759849454945
 6  17.80882847054706  0.68299202880288 -0.27751427842784
 6  18.87437785638564  1.30476855535554  0.63598685538554
 6  20.28217102150215  1.43494292679268  0.17920462646265
 6  20.31755460126013  2.21783908900890 -1.12021671757176
 6  21.22609767676768  1.95866756665667  1.28102204220422
 1 -3.93842420592059  3.66679993139314  1.25590168596860
 1 -10.09426154945495  3.90335260976098 -0.40543506970697
 1 -10.32959738383838 -2.42243777887789 -1.05448326772677
 1 -2.56159344654465 -1.07058726142614  2.16472296299630
 1 -2.34472793909391  1.58060012111211  1.26122977197720
 1 -2.21988507490749  0.96686579297930  3.94416475387539
 1 -3.02476958605861  2.51095031783178  3.38420644284428
 1 -4.00775357585759  1.09543469776978  3.68604028922892
 1 -2.02546766576658 -1.65496616741674 -0.28121612871287
 1 -2.33784015301530  0.06758437823782 -0.80458719331933
 1 -0.50625605430543  0.68968855615562  0.89680354335434
 1 -0.28440686098610 -1.04126489308931  1.26520997929793
 1 -5.66010018771877  6.82830034203420  0.77163699499950
 1 -5.52898436973697  6.27150003140314  2.16273828632863
 1 -4.49637448204821  5.69512378037804  0.93245397799780
 1 -9.34435469526953  5.78875225722572 -0.37657901060106
 1 -9.12413147684769  8.07839756075608  0.73549332503250
 1 -7.45667359945995  7.42274911131113  1.44699365966597
 1 -11.92382285528553  3.21567071417142 -2.19111494299430
 1 -13.22351964966496  2.08340708310831 -1.63497922612261
 1 -12.64728576127613  3.20335766986699 -0.45899633913391
 1 -12.78157012191219 -1.46530745354535 -1.21649515041504
 1 -13.27513981308131  0.18786607610761 -1.64990074447445
 1 -13.16322152135213 -1.72248591069107 -3.55131608970897
 1 -12.46795720142014 -0.25479395069507 -3.94744372277228
 1 -11.48332317171717 -1.67374840204020 -3.37806608480848
 1 -9.05855047364736 -4.61113761456146 -2.04240030303030
 1 -8.23173755895590 -5.76967292059206 -0.69794975007501
 1 -9.68958313731373 -4.99733818221822 -0.50602287098710
 1 -3.40363788228823 -3.51563816941694 -0.34142188028803
 1 -1.43692708030803 -4.49923213661366  3.34656637423742
 1 -2.89404584188419 -5.27007653255326  3.80363140084008
 1 -1.63101362186219 -6.02380316511651  2.64175753685369
 1  2.78724677947795 -1.56753337613761 -1.49292074077408
 1  2.48648508980898  0.19169725452545 -2.00280133763376
 1  4.05434592129213 -1.23887230103010  0.58539994019402
 1  4.09896520802080  1.41969751245125 -2.26235672137214
 1  5.64585151735174  2.26748717261726 -1.77891532993299
 1  5.71159072757276  0.89648083898390 -2.76151240814081
 1  6.77911609550955  1.09253923452345  0.27190680458046
 1  6.44227209930993 -0.44591192789279  0.86039223472347
 1  7.38183030583058 -1.50777145014501 -1.15857061426143
 1  7.83223578207821  0.06898600160016 -1.75334615751575
 1  8.95113115741574  0.61355085258526  0.50704313241324
 1  8.64583770457046 -1.05016336903690  0.78655477887789
 1  10.49258389018902 -0.05685953815382 -1.89204436243624
 1  9.50427003610361 -2.25649393289329 -2.11727010891089
 1  11.07018615921592 -2.36599999929993 -1.97868322642264
 1  10.14839703680368 -2.95356947164716 -0.58004539823982
 1  11.55378702030203  0.63702013541354  0.39035680648065
 1  11.26096369186919 -1.14411570917092  0.77857417751775
 1  13.22625057755776 -1.69155657495750 -0.99142141364136
 1  12.76877270717072 -0.13273833783378 -1.77862219591959
 1  13.62595401570157  0.82889825312531  0.31558638733873
 1  13.79371768236824 -0.72367874677468  1.00425279927993
 1  15.34805520692069  0.41350474747475 -1.56182745154515
 1  15.80808460526053 -2.35911525272527 -0.07925606110611
 1  14.94342598699870 -2.12536705670567 -1.59870124362436
 1  16.62902118171817 -1.76126702370237 -1.53574008730873
 1  16.23324659815981  1.50424875857586  0.61092700900090
 1  16.63431750955095 -0.20517680248025  1.23481197589759
 1  18.20304704240424 -0.34434094809481 -0.49909010461046
 1  17.73556086568657  1.39604849894989 -1.05543128672867
 1  18.57542659955996  2.20549181718172  0.85136708350835
 1  18.83972993549355  0.67717255675568  1.54398764426443
 1  20.68550838313832  0.44773577117712 -0.03297740554055
 1  19.82085890439044  3.20171094759476 -1.08848103280328
 1  21.34573837463746  2.55701684378438 -1.47668564976498
 1  19.77275567316732  1.94746503670367 -1.96957534193419
 1  21.12056591009101  1.27517315821582  2.26403007180718
 1  22.23030092289229  1.86785725642564  0.97463411701170
 1  20.90118019651965  2.94947106430643  1.64470160686069

