%nproc=4
%Mem=3GB
# td=(NStates=1) iop(3/107=0140000000,3/108=0140000000) CAM-B3LYP/6-31G(d,p) 

TD

0 1
12 -7.13229792149215  0.66992537603760 -0.00427405740574
 6 -4.81097991449145 -1.94059128972897  0.39881528392839
 6 -4.86590262086209  2.80109882778278  1.08652875807581
 6 -9.45741250575058  3.07400495349535 -0.25193766906691
 6 -9.56405250325033 -1.76771853755376 -0.95866267116712
 7 -5.05320235143514  0.44004009460946  0.66899472347235
 6 -4.32284453175318 -0.72463360656066  0.65700359505951
 6 -2.94647086768677 -0.41992039003900  1.17128279737974
 6 -3.03180640754075  1.07047574917492  1.69501578087809
 6 -4.31267150185018  1.51107575867587  1.14735912981298
 6 -2.92759894069407  1.14141696099610  3.18336365096510
 6 -1.91421715141514 -0.52274826402640  0.00480429072907
 6 -0.49035474467447 -0.18778202620262  0.47356073837384
 6  0.54573649684968 -0.71746836873687 -0.61063085318532
 8  0.26008622542254 -1.07060083778378 -1.71076846994699
 8  1.75842444084408 -0.53398333673367 -0.21181656925693
 7 -7.20144778817882  2.65548875877588  0.42368329242924
 6 -6.10847099089909  3.35538930633063  0.77121299739974
 6 -6.42972788118812  4.73773063666367  0.82492075077508
 6 -7.72009679497950  4.88972077727773  0.41421754815482
 6 -8.17130665816582  3.54004094289429  0.09406740534053
 6 -5.60112214611461  5.88561803550355  1.29087924312431
 6 -8.61635164316432  6.06613688328833  0.25279589208921
 6 -8.46905531553155  7.29881903160316  0.64537859715972
 7 -9.15930497159716  0.59215621002100 -0.48868544244424
 6 -9.91128861516152  1.78524184848485 -0.63092590609061
 6 -11.18443239593960  1.43698314281428 -1.00812567226723
 6 -11.21554104130413  0.06819436523652 -1.35901592989299
 6 -9.90378798239824 -0.40509070247025 -0.97003920522052
 6 -12.35474641234124  2.40361560296030 -1.30619007170717
 6 -12.35513930683068 -0.83058918271827 -1.77385671627163
 6 -12.14961687058706 -1.16105629792979 -3.18526917811781
 7 -7.20722368476848 -1.39457429312931 -0.25819849494949
 6 -8.27378170447045 -2.30208875437544 -0.65977755765577
 6 -7.77830987078708 -3.50748129952995 -0.55221552135214
 6 -6.46315410591059 -3.55872885498550 -0.14631671337134
 6 -6.15198893059306 -2.18860681648165  0.09156099149915
 6 -8.72050438993899 -4.67393349174917 -0.82940632373237
 6 -5.26729219211921 -4.36206977037704  0.17897287138714
 8 -5.13075406770677 -5.58821567856786  0.21232718131813
 6 -4.17508201080108 -3.33267071447145  0.57468579017902
 6 -3.68759293609361 -3.65875381808181  1.99915588408841
 8 -3.96636942034203 -3.03947130503050  2.95618897709771
 8 -2.60703605640564 -4.53875249374938  1.86045508300830
 6 -2.19963892089209 -5.05429063496350  3.07344474487449
 6  2.78157447784778 -0.80158844774477 -1.17666118331833
 6  4.18493937913791 -0.57803307120712 -0.63620618341834
 6  5.18208369966997  0.26077260526053 -0.92954583158316
 6  5.10293401900190  1.10189786508651 -2.21325546054605
 6  6.42732901160116  0.31460207620762 -0.11808233263326
 6  7.64183563616362 -0.12006055405541 -0.88491882058206
 6  8.96350406200620 -0.10323213931393 -0.02715881828183
 6  10.14260972157216 -0.46277794099410 -0.85372109210921
 6  10.07193046964696 -1.88235611551155 -1.34427139313931
 6  11.43851851565156 -0.19153404450445  0.02639467696770
 6  12.74534226972697 -0.39624965846585 -0.79589709480948
 6  13.99040031183118  0.02945723142314  0.06029244084408
 6  15.36202219321932 -0.11329041264126 -0.67615326782678
 6  15.67456372737274 -1.50582897119712 -1.06738856515652
 6  16.37869486218622  0.45410192749275  0.32420715541554
 6  17.88230581828183  0.49744347394739 -0.18354488148815
 6  18.81611202980298  1.18546662516252  0.75297855455546
 6  20.28392119651965  1.09695912841284  0.30938764476448
 6  20.56209905570557  1.87907521262126 -0.98698339423942
 6  21.17018208520852  1.73223492339234  1.44429836983698
 1 -4.17815817931793  3.31146439783978  1.58757485328533
 1 -10.20313243654366  3.71403367786779 -0.27485201140114
 1 -10.42431685578558 -2.45343087818782 -1.40887870727073
 1 -2.46085337253725 -1.00678088078808  1.89084557525753
 1 -2.21751521782178  1.69304136523652  1.14416806580658
 1 -1.94525761216122  0.70889999639964  3.84240457785779
 1 -2.98894600370037  2.21396061886189  3.47249527172717
 1 -3.72030483098310  0.57952310661066  3.60918260346035
 1 -1.88547366636664 -1.57937860866087 -0.45007301440144
 1 -2.34196056505650  0.29841746154615 -0.66258299289929
 1 -0.18377380608061  0.72556214351435  0.85725958895890
 1 -0.29919834013401 -1.14427519411941  1.15846930523052
 1 -5.82182636033603  6.89408692069207  1.01114094539454
 1 -5.66597806910691  6.06100898229823  2.60511252375238
 1 -4.63579842444244  5.75261952995300  1.18443917651765
 1 -9.41648190799080  5.82908629062906 -0.36483783648365
 1 -9.16126519021902  8.01093081408141  0.45994577027703
 1 -7.50945887798780  7.42238907530753  1.33453241354135
 1 -11.93340381338134  3.00837998509851 -2.37605343684368
 1 -13.29329662736274  2.07691643404340 -1.53125885408541
 1 -12.85344637733773  3.00310764486449 -0.47115755525553
 1 -12.48798076297630 -1.77547847064706 -1.29998349924993
 1 -13.37085938503851 -0.48266097659766 -1.69581533593359
 1 -13.06568176737674 -1.75058872097210 -3.64337529562956
 1 -12.12992339803980 -0.18627709900990 -3.72453143154315
 1 -11.30142498189819 -1.95029605680568 -3.50938921712171
 1 -9.27287190579058 -4.74695119591959 -1.92130819381938
 1 -8.27814219941994 -5.59357531083108 -0.63787374247425
 1 -9.62444662366237 -4.74470291869187 -0.17309957865787
 1 -3.32867038553855 -3.51687829342934 -0.02609034713471
 1 -1.83095648324832 -4.14933714711471  3.68153987158716
 1 -2.96661309860986 -5.55949547444744  3.67055809350935
 1 -1.20748126862686 -5.71145192999300  2.76112947404740
 1  2.68108616341634 -1.83011963476348 -1.50586203490349
 1  2.59962640394039 -0.23377529272927 -2.08857991549155
 1  4.20239072577258 -0.96936535033503  0.31239263946395
 1  4.04143945544554  1.40761630433043 -2.46350683638364
 1  5.44091102330233  2.17528795269527 -2.06674411281128
 1  5.60259982848285  0.49804099499950 -3.16381263816382
 1  6.48009619351935  1.38912889348935  0.23918353225323
 1  6.06693456555656 -0.33173050975097  0.76278247374737
 1  7.64406652945295 -1.14250492349235 -1.12512726992699
 1  7.71872443094309  0.66037514051405 -1.74197502040204
 1  9.04343038733873  0.84593409090909  0.49804223232323
 1  9.01167428822882 -0.85290364306431  0.89306542994299
 1  10.15126975877588  0.23726987478748 -1.60062522052205
 1  9.16115572467247 -1.95757404090409 -2.01383976587659
 1  11.06956609720972 -2.03640704000400 -1.71841719981998
 1  9.83562575967597 -2.43858797349735 -0.52036943064306
 1  11.47674931653165  0.94157059045905  0.29101687248725
 1  11.67515511101110 -0.75434673227323  0.97976429652965
 1  12.82685063756376 -1.47647506680668 -1.16941921342134
 1  12.91092692259226  0.24627956395640 -1.64729906360636
 1  13.72798421872187  0.87174253755376  0.52070689938994
 1  13.91191950255025 -0.56693307220722  0.98249062306231
 1  15.27478788018802  0.51411480848085 -1.50620188898890
 1  15.61132492929293 -2.33641298249825 -0.34671280678068
 1  15.12594423882388 -1.78565308530853 -1.92276364986499
 1  16.75428370797080 -1.36473737073707 -1.52433894719472
 1  16.03195646914691  1.49519785348535  0.53952986928693
 1  16.40031410921092 -0.09013529832983  1.22647114181418
 1  18.41635837353736 -0.58255476947695 -0.40013020862086
 1  17.96006331593159  0.95342423652365 -1.14584032763276
 1  18.62146120302030  2.31242251025102  1.00405235203520
 1  18.68786474897490  0.76640147964797  1.89383262876288
 1  20.85447527982798  0.15394639223922  0.34070996319632
 1  20.44293111161116  2.99340011651165 -0.99699188388839
 1  21.78466226702670  1.72970411251125 -1.28887686888689
 1  20.01446984458446  1.33848413861386 -1.84689307370737
 1  21.24730858435844  1.13402904380438  2.38850251905191
 1  22.12042993579358  1.73483395409541  1.18398505210521
 1  20.68000807930793  2.72461857905791  1.49084622132213

