%nproc=4
%Mem=2GB
# td=(NStates=1) CAM-B3LYP/6-31G(d,p) 

TD

0 1
<<<<<<< HEAD
12 -7.14514508750875  0.59853860196020  0.10470815821582
 6 -4.89401401940194 -1.98203938233823  0.49885641834183
 6 -4.72813274217422  2.82193064036404  1.14338070297030
 6 -9.32581731723172  3.23854935043504 -0.47689054875488
 6 -9.61619193289329 -1.68911442244224 -0.81054748384838
 7 -5.05276870147015  0.39843966206621  0.72165258355836
 6 -4.34094380048005 -0.78056787878788  0.87806582978298
 6 -2.95437444284428 -0.46729615531553  1.30061041524152
 6 -2.94429786818682  1.07888055635564  1.69794052475248
 6 -4.33058005290529  1.48652940174017  1.15124215411541
 6 -2.82772785488549  1.26443873197320  3.20194160306031
 6 -1.97185064606461 -0.72750801220122  0.08252221052105
 6 -0.51019844244424 -0.58914326152615  0.56337046634663
 6  0.50699183638364 -0.84200771367137 -0.52221760226023
 8  0.23869510961096 -1.19531493909391 -1.66200253195320
 8  1.82254406490649 -0.56288368476848 -0.07298408730873
 7 -7.07687813571357  2.61997758755876  0.20160885638564
 6 -5.99783906290629  3.33415439123912  0.76360989458946
 6 -6.32869012211221  4.79819410881088  0.77094778197820
 6 -7.59569227622762  4.93585421692169  0.33495188648865
 6 -8.10648492009201  3.48862805810581  0.11662420872087
 6 -5.37966592329233  5.96079854575458  0.99412417291729
 6 -8.31917971557156  6.10064109780978  0.04262124752475
 6 -8.21772566386639  7.30799691829183  0.74492074187419
 7 -9.15047732033203  0.67333019411941 -0.51050508420842
 6 -9.81588784848485  1.85276522962296 -0.67196352045205
 6 -11.17971706830683  1.56347468656866 -1.08749046854685
 6 -11.22738514241424  0.16209157325733 -1.18669738373837
 6 -9.95449112981298 -0.31063303760376 -0.80679569566957
 6 -12.22402122582258  2.53232380338034 -1.39734650945095
 6 -12.47318186448645 -0.57827523762376 -1.71388219671967
 6 -12.31206869526953 -0.96926933813381 -3.18541365996600
 7 -7.26753622192219 -1.34229384298430 -0.12180685768577
 6 -8.38364860466047 -2.25337050915092 -0.48165312051205
 6 -7.91845799139914 -3.59633790129013 -0.54636191349135
 6 -6.59508339243924 -3.55748008500850 -0.08697042894289
 6 -6.29639223562356 -2.23810209150915  0.07690049424943
 6 -8.64505197259726 -4.84770761316132 -0.95844432283228
 6 -5.35042951325133 -4.31054493799380  0.17129000160016
 8 -5.24754359225923 -5.52795727912791  0.20354738543854
 6 -4.18607218661866 -3.38139392919292  0.51585145044504
 6 -3.60262089298930 -3.68862408370837  1.81620199309931
 8 -3.82317391799180 -3.22530926712671  2.92768544964496
 8 -2.72748394209421 -4.80097481988199  1.66643522442244
 6 -2.25697628552855 -5.38516274537454  2.93610854635464
 6  2.84980749244924 -0.78571636623662 -1.13375457585759
 6  4.11980406940694 -0.55279345564556 -0.53577372637264
 6  5.14026751115111  0.24462072747275 -0.89040881358136
 6  5.17030545354535  1.06684933423342 -2.20658482378238
 6  6.45009934273427  0.23243509370937 -0.15890237543754
 6  7.66296383428343 -0.30854120102010 -0.96976392689269
 6  8.93234510711071 -0.11170630103010 -0.19585139793979
 6  10.17025765026503 -0.72656972867287 -0.85399637013701
 6  10.18149484968497 -2.07857879397940 -1.39012247724772
 6  11.39994287118712 -0.29061284208421  0.02589345794579
 6  12.80896580428043 -0.46793084418442 -0.80265028792879
 6  13.96361582998300 -0.22269347214721  0.25129219671967
 6  15.34468059295930 -0.21049477857786 -0.47635587538754
 6  15.74976664556456 -1.62256989078908 -0.74358397609761
 6  16.31900600650065  0.56291065106511  0.48171267846785
 6  17.72169675907591  0.66500789918992 -0.18097391199120
 6  18.66602697219722  1.47219543654365  0.72785321832183
 6  20.10341901110111  1.65427576107611  0.18566332953295
 6  20.24893624742474  2.36727502470247 -1.11009200190019
 6  21.03744467526753  2.24075701200120  1.16848221162116
 1 -3.86392787728773  3.33842936433643  1.52698728562856
 1 -10.09334972767277  3.89561039603960 -0.75010040154016
 1 -10.41612490189019 -2.35263460426043 -1.24528118031803
 1 -2.67669412631263 -1.03290160406041  2.12541323252325
 1 -2.06746035123512  1.56456003860386  1.34062471287129
 1 -1.91574603210321  1.05506595949595  3.77515122862286
 1 -2.82749780978098  2.32547660516052  3.42150431583158
 1 -3.71680512321232  0.86397108110811  3.80792320512051
 1 -2.15829831473147 -1.77889785018502 -0.30560446964697
 1 -1.93921559405941 -0.00334308390839 -0.72397243684368
 1 -0.34029754715472  0.39782439633963  0.90420081918192
 1 -0.16985478747875 -1.33946846204620  1.34443839903990
 1 -5.74827360276028  6.73024166826683  0.37312302150215
 1 -5.06464345374537  6.28913227632763  2.11856815391539
 1 -4.36964092009201  5.64187535393539  0.72057523312331
 1 -9.32634468696870  5.96255240334033 -0.59478970717072
 1 -8.96955817171717  7.98544928382838  0.40355997779778
 1 -7.64703416921692  7.41839823932393  1.67173555905591
 1 -11.82579668476848  3.15171549754975 -2.21498450315032
 1 -13.16745641484148  2.01173506470647 -1.88582977447745
 1 -12.54001573267327  3.15396405110511 -0.65619686368637
 1 -12.63898867726773 -1.68248769386939 -1.33563851875188
 1 -13.43946266516652 -0.19600633743374 -1.54680020752075
 1 -13.26249260186018 -1.38409309550955 -3.36648653315332
 1 -12.25403896809681 -0.01196573417342 -3.66250974667467
 1 -11.35440171947195 -1.59515438253825 -3.58922754275428
 1 -9.15650525352535 -4.76164690759076 -1.90918418251825
 1 -7.74968433323332 -5.49916992119212 -0.85128474147415
 1 -9.47456734163416 -5.43675869716972 -0.16982880548055
 1 -3.24862555845585 -3.55403865456546 -0.18571384288429
 1 -1.84219238573857 -4.61856829652965  3.75885880118012
 1 -3.22236184478448 -5.89872148974897  3.30839367826783
 1 -1.57667577907791 -6.23796306950695  2.61485543844384
 1  2.81830113421342 -1.64004584048405 -1.47040100510051
 1  2.53615109270927 -0.13270899129913 -1.98078123032303
 1  4.15712661826183 -1.10844305950595  0.42057527352735
 1  4.18793775727573  1.12977168756876 -2.61365973567357
 1  5.49717512921292  1.87038729762976 -2.02220868906891
 1  5.74127143474347  0.71067217471747 -3.15953468446845
 1  6.81650371327133  1.20889488948895  0.12160480328033
 1  6.28466258565857 -0.25322335973597  0.79323904060406
 1  7.62089947464746 -1.34684391959196 -1.24373569716972
 1  7.69761219711971 -0.00368716061606 -2.00347327092709
 1  9.18229028062806  0.88481636663666  0.06836446864686
 1  9.00522901160116 -0.66750225642564  0.97327519121912
 1  10.19614716611661 -0.19907737003700 -1.75232012151215
 1  9.41502648814881 -2.34396237273727 -1.88339426422642
 1  11.18804135983599 -2.09231601550155 -2.04962920682068
 1  10.13905679167917 -2.99874181618162 -0.49190863056306
 1  11.23343102400240  0.81462369256926  0.26465795329533
 1  11.50524357775778 -1.01746770807081  0.92402302390239
 1  12.98799211811181 -1.44697285848585 -1.21673934153415
 1  12.92126587908791  0.10968165916592 -1.66923028432843
 1  13.70864230093009  0.80116267226723  0.70896823982398
 1  13.90209296239624 -0.94420402510251  0.99687620412041
 1  15.15398868736874  0.37887737273727 -1.26793115111511
 1  15.84507195009501 -2.20125041714171  0.16546509260926
 1  15.02503555425543 -2.25124750035003 -1.51497891299130
 1  16.69635926532654 -1.51617714261426 -1.11202267176718
 1  15.89584478517852  1.54731256495650  0.73678022232223
 1  16.56877132433243  0.03577440234023  1.41655441664166
 1  18.32408334703470 -0.22978952635264 -0.49963330373037
 1  17.61905897039704  1.17322464136414 -1.13009658545855
 1  18.06522731533153  2.30344450215021  0.99307731303130
 1  18.82786994729473  1.05380956195620  1.93221322162216
 1  20.36121103380338  0.74944109230923 -0.08336127212721
 1  19.79733383998400  3.43266682858286 -0.85555914931493
 1  21.36703095519552  2.48239489228923 -1.37267863116312
 1  19.48129203360336  1.96208801960196 -1.95839280828083
 1  21.09844581978198  1.67120522962296  1.92529214641464
 1  22.02035374167417  2.26533776347635  0.50702566886689
 1  20.72867259715972  3.24137422072207  1.46845728622862
=======
12 -7.07867844084408  0.54593334143414 -0.01175348794879
 6 -4.84182880088009 -1.91990316871687  0.45210174287429
 6 -4.88981891079108  2.83986243354335  1.26434279917992
 6 -9.41461619711971  3.10880637613761 -0.47430028972897
 6 -9.44788510221022 -1.78132364336434 -0.93682011111111
 7 -5.05111853645365  0.45007482558256  0.67768818711871
 6 -4.31781148724872 -0.67059688168817  0.79780780398040
 6 -2.92106111151115 -0.35902532823282  1.30169052325233
 6 -2.93788722712271  1.13423609190919  1.79403013371337
 6 -4.43067006190619  1.52453320212021  1.12620965086509
 6 -3.01736681878188  1.24594688278828  3.35370677957796
 6 -1.88908236923692 -0.58002326372637  0.21421537983798
 6 -0.51033845644564 -0.27784213141314  0.60085421472147
 6  0.50014115131513 -0.57265077797780 -0.56524190469047
 8  0.11769300940094 -0.99316472407241 -1.67866419811981
 8  1.75979779027903 -0.34842223862386 -0.24921171007101
 7 -7.18618906680668  2.61721731153115  0.32878157365737
 6 -6.14474375337534  3.32016299209921  0.77854138773877
 6 -6.43861111421142  4.79452374177418  0.83108379557956
 6 -7.77443015001500  4.81348197969797  0.38176656795680
 6 -8.16912118371837  3.45761495679568  0.05924847114711
 6 -5.55733369006901  5.91824429032903  1.15842060256026
 6 -8.63261105870587  6.01877291099110  0.19101608700870
 6 -8.63445733703370  7.12557867646765  0.94259050885089
 7 -9.10275254785479  0.65962882398240 -0.60128416211621
 6 -9.81381764146415  1.74829478257826 -0.78295461956196
 6 -11.12183127972797  1.39528786788679 -1.21672339183918
 6 -11.15602800670067  0.06094145824582 -1.31923063706371
 6 -9.81374705540554 -0.38945091939194 -0.97758277437744
 6 -12.15974479817982  2.45464603560356 -1.55995277007701
 6 -12.29834438073807 -0.78906631673167 -1.79595040354035
 6 -12.31493898229823 -1.08000041124112 -3.25009012761276
 7 -7.22004147244725 -1.39059867346735 -0.16008068506851
 6 -8.23028326812681 -2.27254242634263 -0.54419937513751
 6 -7.83617976357636 -3.62907117461746 -0.52310958825883
 6 -6.43063694779478 -3.58127246424643 -0.08058979087909
 6 -6.17435003140314 -2.14893317461746  0.03743654785479
 6 -8.60425789318932 -4.89385222762276 -0.79558803720372
 6 -5.31762623292329 -4.37416129962996  0.15238811141114
 8 -5.09971880978098 -5.64297878127813  0.18713574427443
 6 -4.17035061446145 -3.35311110091009  0.48052791809181
 6 -3.56164679557956 -3.59868508980898  1.94922529542954
 8 -3.68465006560656 -3.03602033823382  2.95854853595360
 8 -2.73997519121912 -4.71467619001900  1.81896047694769
 6 -2.16474706260626 -5.07777200630063  3.07675261076108
 6  2.75990850255025 -0.71542933753375 -1.20657185758576
 6  4.08341043004300 -0.47066524282428 -0.68235838483848
 6  5.09909339373937  0.37339360476048 -0.93651342404240
 6  5.12591101410141  1.33327597689769 -2.17137130243024
 6  6.40495482828283  0.37728957915792 -0.21443792899290
 6  7.68094563246325 -0.06979732663266 -0.91028797929793
 6  8.83573544614461 -0.21385651605161 -0.03290510331033
 6  10.20144076857686 -0.55494256595660 -0.74726569706971
 6  10.09436613681368 -1.93287422352235 -1.23946741174117
 6  11.40830370727073 -0.32580636143614  0.18704957355736
 6  12.71069597729773 -0.57408145924592 -0.53738376127613
 6  13.98164763316332 -0.11379258205821  0.23486055355536
 6  15.29878600350035 -0.32084581368137 -0.47152539233923
 6  15.61457312621262 -1.65354298809881 -0.87017663536354
 6  16.44110821672167  0.35505986598660  0.33446795399540
 6  17.78976356575657  0.65223662206221 -0.30992680728073
 6  18.77568793829383  1.31640985798580  0.59299973297330
 6  20.23805247444744  1.28272860636064  0.06083084628463
 6  20.31379273307331  2.11506980418042 -1.18964995769577
 6  21.21671260206021  1.77644058035804  1.17675303870387
 1 -4.33056454095410  3.50768629002900  1.43574816171617
 1 -10.16521691439144  3.78741957695770 -0.64790018151815
 1 -10.19660294969497 -2.42774211501150 -1.33149980218022
 1 -2.71562801970197 -1.04136245014501  2.04886557775778
 1 -2.08859246444645  1.69828341094109  1.53789443984398
 1 -2.13925838333833  0.96967742064206  3.79219293279328
 1 -3.17921298129813  2.29905396289629  3.61450361576158
 1 -3.72568601130113  0.41208589258926  3.54340675347535
 1 -1.98489097399740 -1.78644860526053 -0.06023993319332
 1 -2.21450312281228  0.00488773917392 -0.61414145374537
 1 -0.48486200360036  0.79053366726673  0.93804420352035
 1 -0.04370217221722 -0.72535705090509  1.58894284948495
 1 -5.77649642504250  6.71682032613261  0.54558026722672
 1 -5.39434642404240  6.09512287538754  2.23112941004100
 1 -4.51178513451345  5.55341650805081  0.93301647724773
 1 -9.31944399689969  6.02210835893589 -0.56368659685969
 1 -9.26634785068507  7.99127986688669  0.85569519131913
 1 -7.70701016681668  7.23682008150815  1.62055044054405
 1 -11.81812591769177  2.95291561756176 -2.52740574527453
 1 -13.16308597779778  1.95189908110811 -1.79199039053905
 1 -12.44217594869487  3.20391904660466 -0.68457970197020
 1 -12.66138091649165 -1.75560500560056 -1.21798675357536
 1 -13.08254697359736 -0.25858259505951 -1.27510303780378
 1 -13.00624697729773 -1.85142982918292 -3.75658554305431
 1 -12.63283684788479 -0.08584312191219 -3.88023151885189
 1 -11.17742402170217 -1.32539740684068 -3.46157477747775
 1 -8.96101570457046 -4.97130787368737 -1.87475073917392
 1 -8.08160752555255 -5.71765176937694 -0.87254686768677
 1 -9.50088997389739 -4.82342736403640 -0.23176499909991
 1 -3.31738243414341 -3.57685093579358 -0.15527079857986
 1 -1.56830499699970 -4.20468690839084  3.73497641294130
 1 -2.85398500710071 -5.57231884948495  3.68425126402640
 1 -1.22372048354835 -5.74438371157116  2.77747170007001
 1  2.52500180428043 -1.78488032393239 -1.44829879487949
 1  2.60094757235724  0.03434771437144 -1.97372052425242
 1  4.20144104970497 -0.89053126832683  0.30562377837784
 1  4.17176614011401  1.38813752415242 -2.60198856855686
 1  5.48767417911791  2.23884414331433 -1.75320178837884
 1  5.80514782238224  0.97776888438844 -3.00700943194319
 1  6.58232029492949  1.31244524452445  0.07163980678068
 1  6.40906502590259 -0.21481951935194  0.75796551325132
 1  7.57549493419342 -1.19352858805881 -1.18731005460546
 1  7.87292972887289  0.50546375447545 -1.87174009760976
 1  8.97467951955195  0.84169205420542  0.36038367056706
 1  8.73084157285729 -0.84041954815482  0.90928879257926
 1  10.29030658205821  0.03237577527753 -1.65512040154015
 1  9.13127811331133 -2.18757673417342 -1.66721264606461
 1  10.96360891659166 -2.28984576847685 -2.02391663556356
 1  10.34128701470147 -2.79230117211721 -0.50121956165617
 1  11.62041972287229  0.67767999819982  0.72026351385139
 1  11.47925097849785 -1.12851881318132  0.83301392299230
 1  12.85629894879488 -1.48132629382938 -0.73825149274928
 1  12.67318107060706 -0.00096940594059 -1.50694405570557
 1  13.70903233993399  0.90830338633863  0.59901724472447
 1  13.96070882398240 -0.75278488318832  1.13978049454946
 1  15.11341462996300  0.19022850785078 -1.33406776477648
 1  15.64173161606161 -2.45774606670667  0.05932447854785
 1  14.84530758145815 -1.92051442704270 -1.45019243434343
 1  16.60369999939994 -1.60606613151315 -1.38748021752175
 1  16.20117531823182  1.33783161686169  0.65637218151815
 1  16.39845429262926 -0.29044821992199  1.27885064626463
 1  18.35018595729573 -0.20800734813481 -0.81732507290729
 1  17.46312337683769  1.44278159705971 -1.22591616741674
 1  18.60445123772377  2.43871802950295  0.72351035633563
 1  18.69898705900590  0.84142832383238  1.56519651995200
 1  20.40981589428943  0.35032118031803 -0.02192512851285
 1  19.79893400000000  3.01046460836084 -1.17525111851185
 1  21.35203945604561  2.31480813361336 -1.46164752805281
 1  19.86473037743774  1.61585339613961 -2.17840480948095
 1  21.17584355955595  1.39313742284228  2.25026464366437
 1  22.20320202650265  1.52324355405541  0.87124209050905
 1  21.12403213311331  2.98517860116012  1.15974641514151
>>>>>>> 8e03b5b5abfc0030b3aa597dc0de36371bfbd096

