%nproc=4
%Mem=2GB
# td=(NStates=1) CAM-B3LYP/6-31G(d,p) 

TD

0 1
<<<<<<< HEAD
12 -7.09867044004400  0.52188093619362  0.03239092649265
 6 -4.83732835083508 -1.92229340774077  0.50902743544354
 6 -4.70138006690669  2.83640208750875  1.11839820472047
 6 -9.35620035553555  3.02970846634663 -0.31687454715472
 6 -9.56822713641364 -1.67555306630663 -0.89344577367737
 7 -5.10564398899890  0.43024284238424  0.76208662696270
 6 -4.33418312441244 -0.73147296929693  0.80324834803480
 6 -2.88065707110711 -0.37135656135614  1.22977333153315
 6 -2.97831126952695  1.03777644594459  1.65462619331933
 6 -4.27219421432143  1.51347209600960  1.10372740264026
 6 -2.85163024512451  1.35515780388039  3.19378078697870
 6 -1.84004746574657 -0.62704796619662  0.12803676197620
 6 -0.39944736733673 -0.46192053925393  0.50119424872487
 6  0.51582271947195 -0.62849636253625 -0.67687306780678
 8  0.18346958705871 -1.09398480608061 -1.67619395109511
 8  1.78947075757576 -0.33078047444744 -0.29648643754375
 7 -7.10395084298430  2.66707229702970  0.37225592109211
 6 -6.00626990599060  3.35518649444944  0.77815134873487
 6 -6.35660291339134  4.76552084148415  0.85144583178318
 6 -7.69481218821882  4.91269190069007  0.39666805810581
 6 -8.08801307290729  3.40629982528253  0.11232377867787
 6 -5.53752170887089  5.89155162106211  1.21734649514952
 6 -8.57923572117212  6.01098213191319  0.19657664306431
 6 -8.37543143444345  7.24029014761476  0.65773202300230
 7 -9.05914818741874  0.64106696779678 -0.60223425712571
 6 -9.82168842854285  1.71906185928593 -0.70416674077408
 6 -11.18322741934193  1.46414475357536 -1.02738445794579
 6 -11.23393579747975  0.06526189028903 -1.22202091609161
 6 -9.91998767946795 -0.36538851315131 -1.00003501960196
 6 -12.37888671237124  2.30882145314532 -1.44072084688469
 6 -12.36986153245325 -0.86190360046005 -1.62176298479848
 6 -12.31828931733173 -1.19265167636764 -3.15642076067607
 7 -7.27124659295930 -1.47824743834383 -0.13623830083008
 6 -8.33127336713671 -2.25150032213221 -0.46717167236724
 6 -7.85767191279128 -3.65179344684468 -0.57684496179618
 6 -6.51714559865987 -3.64283862086209 -0.04110584248425
 6 -6.18542113851385 -2.18230651195120  0.17764056825683
 6 -8.66352381978198 -4.82528537093709 -1.04930340874087
 6 -5.29980445074507 -4.35253913741374  0.23873674627463
 8 -5.17680651855185 -5.59659414281428  0.28492552325233
 6 -4.20237381678168 -3.28083387318732  0.60458032333233
 6 -3.56243687458746 -3.68308352965297  1.85471584448445
 8 -3.72924452505251 -3.08939567576758  2.95196787788779
 8 -2.76696789048905 -4.80395511791179  1.84277285818582
 6 -2.28745933383338 -5.23809803890389  3.16137107260726
 6  2.79294180588059 -0.58090588518852 -1.26779798019802
 6  4.13186527552755 -0.26805498179818 -0.68386853585359
 6  5.08608209260926  0.48808507390739 -1.18462823552355
 6  4.98979740274027  1.35735838513851 -2.37136130143014
 6  6.40666499929993  0.58200005020502 -0.33537002220222
 6  7.65451298919892  0.02939259235924 -1.14161111161116
 6  9.02479435203520  0.17926279587959 -0.25545735853585
 6  10.23239386388639 -0.45793286498650 -0.90348131863186
 6  10.07800450065006 -1.98624956105611 -1.23308677367737
 6  11.45674855175518 -0.13512729352935 -0.03387251865187
 6  12.72636754445445 -0.53179723082308 -0.76515653855386
 6  13.92360182858286 -0.11883308610861  0.12657972547255
 6  15.34607073197320 -0.21861559065907 -0.47069530933093
 6  15.59618128702870 -1.64796243004300 -0.83481309900990
 6  16.43663776967697  0.22002636263626  0.52829733693369
 6  17.73060765016502  0.49107050545055 -0.04787060166017
 6  18.75943631313131  1.24477269426943  0.79440987398740
 6  20.20526919611961  1.19338967246725  0.35991075427543
 6  20.25637699149915  1.91653995119512 -0.98926991969197
 6  21.18722965376538  1.86285922222222  1.38310367376738
 1 -4.11392287678768  3.51581710311031  1.55995058195820
 1 -10.36232662536254  3.68136897189719 -0.58077346884688
 1 -10.14911820122012 -2.60259960076008 -1.06463311551155
 1 -2.83734019091909 -1.11180949484948  2.09517020822082
 1 -1.99038264346435  1.49022260486049  1.24649529992999
 1 -1.83651810931093  1.02909336223622  3.60701441494149
 1 -3.01954701470147  2.41471552905290  3.26369853525352
 1 -3.53805724842484  0.61588627262726  3.61241365416542
 1 -1.94583706860686 -1.52916287668767 -0.40293420262026
 1 -2.03474514701470  0.25068231863186 -0.70319035863586
 1 -0.45945946334634  0.56160077397740  0.89708010711071
 1  0.01154335233523 -1.07785230043004  1.37257121232123
 1 -5.61869064446445  6.86090473457346  0.67467317651765
 1 -5.67302429182918  6.03667703080308  2.30661695879588
 1 -4.55716967296730  5.82613377977798  1.17468064366437
 1 -9.56007806030603  5.70470661876188 -0.47532776097610
 1 -9.04687590349035  8.15491623052305  0.53959358115812
 1 -7.49932939873987  7.76710310981098  1.14133251875187
 1 -12.16333043814381  2.85042536853685 -2.27346035073507
 1 -13.18730840004000  1.61157504870487 -1.24252544404440
 1 -12.20282201330133  3.03556221092109 -0.49658090209021
 1 -12.17992277067707 -1.84959440454045 -0.81560651555156
 1 -13.24616333523352 -0.37564430123012 -1.17523305080508
 1 -13.13797014961496 -1.79608429462946 -3.57494737923792
 1 -12.41353491769177 -0.41108564616462 -3.80219371507151
 1 -11.44439071837184 -1.61088595569557 -3.36271489148915
 1 -9.11876147914792 -4.94387513041304 -2.03781704580458
 1 -8.15273463826383 -5.66582658685869 -1.00569018201820
 1 -9.56177606250625 -4.97861288258826 -0.26133795639564
 1 -3.54354505040504 -3.37789103980398 -0.31249652115212
 1 -1.61134930143014 -4.50367680738074  3.60280319561956
 1 -3.04696430503050 -5.39550116771677  4.08745158405841
 1 -1.56337444894490 -6.19287856105611  2.88810276317632
 1  2.70078938303830 -1.66166800270027 -1.51008497349735
 1  2.46281375897590 -0.08832455285529 -2.21931508370837
 1  4.32621352695269 -0.91089330453045  0.17538075407541
 1  4.02645160866087  1.56741545194520 -2.86552492219222
 1  5.53481889358936  2.38095835473547 -2.35066153435343
 1  5.60472778037804  0.96516762426243 -3.14903363436344
 1  6.52094415731573  1.59277327732773 -0.16791414861486
 1  6.08427254665467  0.06613857645765  0.46378609530953
 1  7.61728911361136 -0.89691892709271 -1.72431375497550
 1  7.74928736463646  0.60504371247125 -2.00040296389639
 1  9.03144519611961  1.27347523252325 -0.02773514131413
 1  8.90755924462446 -0.38797430363036  0.65062292599260
 1  10.47621517291729 -0.03254071637164 -1.98388327782778
 1  9.15035002050205 -1.92906088258826 -1.59882580738074
 1  10.71042359805980 -2.39426621052105 -1.89051329522952
 1  10.30681356735674 -2.84425636763676 -0.41374081378138
 1  11.51886956785679  0.90578280848085  0.26133762126213
 1  11.05027808120812 -0.83196915821582  0.90551117271727
 1  12.80187350625063 -1.62356051725173 -1.20103777137714
 1  12.62287604010401  0.22278296929693 -1.61797515881588
 1  14.05745718241824  0.91305386138614  0.38627597059706
 1  13.94435718881888 -0.68244784948495  1.07442395889589
 1  15.38790207870787  0.47464694969497 -1.44483884188419
 1  15.34816225912591 -2.50290058215822 -0.04686614051405
 1  14.73216626732673 -1.96774915051505 -1.45305272037204
 1  16.59246887628763 -2.06481200610061 -1.32315378487849
 1  16.33066826752675  1.22662049574957  1.01288783308331
 1  16.60051449864986 -0.63217239233923  1.23411617281728
 1  18.14697563626363 -0.36271281868187 -0.13437677807781
 1  17.79103616811681  1.21639895879588 -1.09327290309031
 1  18.67621841444144  2.37137129482948  0.97743574887489
 1  18.81573873417342  0.80765494649465  1.73965396569657
 1  20.54007892059206  0.10765691389139  0.16148321232123
 1  19.82987709430943  2.94850841274127 -0.75341893529353
 1  21.28659291139114  2.11534818761876 -1.49121048434843
 1  19.39753365776578  1.61234304510451 -1.94052102110211
 1  20.86041201640164  1.39515762486249  2.46061567876788
 1  22.23259496579658  1.79930115981598  1.04118908520852
 1  20.98274800470047  2.94374445774577  1.61522196269627
=======
12 -7.09547012001200  0.63706245434543 -0.15686799939994
 6 -4.83910852885288 -1.95637681608161  0.54352088478848
 6 -4.81823175207521  2.82257070437044  1.07525389028903
 6 -9.35163989948995  3.06183167866787 -0.47418027772777
 6 -9.51098141184118 -1.75205071607161 -0.87983441254125
 7 -5.07724114871487  0.42273209130913  0.66597701600160
 6 -4.35191489758976 -0.66713653565357  0.66374439763976
 6 -2.83403240864086 -0.36991641734173  1.14300465466547
 6 -3.00504394279428  1.07027969626963  1.63817454815482
 6 -4.32752974787479  1.40642139093909  1.12870990089009
 6 -2.87062214431443  1.23154544264426  3.18251966086609
 6 -1.94562802380238 -0.67083234463446 -0.01053709540954
 6 -0.51043846644664 -0.39850419761976  0.50183431273127
 6  0.52438357555756 -0.67024053695370 -0.46404178467847
 8  0.24066530663066 -1.07072247984799 -1.63481981368137
 8  1.81338314881488 -0.31962935933593 -0.17302409130913
 7 -7.04788523642364  2.65126071587159  0.18920761626163
 6 -6.01642092109211  3.34267524332433  0.65064859845985
 6 -6.35631288438844  4.74702899229923  0.69385007220722
 6 -7.62217492449245  4.77017764926493  0.22265065636564
 6 -8.13456772837284  3.38502769806981 -0.01354880858086
 6 -5.41114907160716  5.91423388928893  0.91260602110211
 6 -8.58901669926993  5.97305833953395  0.30200718611861
 6 -8.43311720302030  7.02243836243624  1.02438868866887
 7 -9.19693196579658  0.58312117321732 -0.46105013871387
 6 -9.91291755145514  1.77925787888789 -0.65065138923892
 6 -11.25941503810381  1.45805414451445 -1.00251197069707
 6 -11.30256266016602  0.02828819291929 -1.10243895789579
 6 -9.95281096179618 -0.38647062136214 -0.92198721482148
 6 -12.44398322202220  2.43191376237624 -1.20478725352535
 6 -12.43778832513251 -0.72669007910791 -1.74205501400140
 6 -12.19322681108111 -0.96388880008001 -3.24233935253525
 7 -7.29405887418742 -1.37421703530353 -0.04582925992599
 6 -8.33032327212721 -2.27942311441144 -0.54160911611161
 6 -7.81878802440244 -3.60057832533253 -0.51736901420142
 6 -6.53252713681368 -3.56995133213321 -0.18808053995400
 6 -6.20186278267827 -2.17958623992399  0.07848065226523
 6 -8.68311577897790 -4.72983582598260 -0.81850032843284
 6 -5.29218368866887 -4.36615049854985  0.04543741634163
 8 -5.27094593249325 -5.54642912631263  0.30937796849685
 6 -4.20814439383938 -3.39562535233523  0.51818168346835
 6 -3.60689132003200 -3.80889611091109  1.93980435333533
 8 -3.94544614521452 -3.23693042924292  2.98649133023302
 8 -2.70162135583558 -4.71654637703770  1.76236481738174
 6 -2.07914850275027 -5.03326755585559  3.04245918141814
 6  2.83316582828283 -0.42769056365637 -1.22494369476948
 6  4.10256234523452 -0.36057423372337 -0.51116126512651
 6  5.16915039943994  0.40624689008901 -0.87529730243024
 6  5.03373179617962  1.31790443974397 -2.08152231753175
 6  6.43919825262526  0.60477232743274 -0.17678416361636
 6  7.69153669156916  0.02949260236024 -0.81393834433443
 6  8.95617749034903  0.01044591419142 -0.07972978577858
 6  10.25059568406841 -0.56790386208621 -0.81042201270127
 6  10.16293299349935 -2.06938787488749 -1.23178664366437
 6  11.39943282018202 -0.38046182698270  0.05426629522952
 6  12.76051095879588 -0.67687173827383 -0.51365138803880
 6  13.90976044444444 -0.13716491929193  0.37611467896790
 6  15.24940106500650 -0.28960268936894 -0.42687092689269
 6  15.75125679457946 -1.66477411121112 -0.81533115081508
 6  16.39117322322232  0.42941730173017  0.38842334953495
 6  17.81074566396640  0.58658005640564 -0.35954176877688
 6  18.87602797229723  1.16759497649765  0.66568700170017
 6  20.17206587578758  1.35994632813281  0.06019078227823
 6  20.37237859165917  2.20071836903690 -1.20614160686069
 6  21.12918384918492  1.93033596989699  1.14060942434243
 1 -3.89733121762176  3.22949847124712  1.30617520442044
 1 -10.15344573727373  3.73865470047005 -0.62088748024802
 1 -10.32330561996200 -2.56925626642664 -0.99718637083708
 1 -2.47028348524852 -1.05160347424742  1.88243893509351
 1 -2.13385699089909  1.78945252785279  0.99116976737674
 1 -1.90821527902790  0.89760021292129  3.50448416191619
 1 -3.15771083108311  2.26505056255626  3.55731789718972
 1 -3.55176861956196  0.43095777977798  3.43556596939694
 1 -2.01799428432843 -1.63371333173317 -0.20377428662866
 1 -2.12132380488049  0.07308455885589 -0.72652269186919
 1 -0.21770528792879  0.42956757065707  1.24608500760076
 1 -0.28950675267527 -1.26752126732673  1.12659661486149
 1 -5.54066284168417  6.78601724582458  0.28276398559856
 1 -5.45604259365937  6.27230059315932  2.09326562366237
 1 -4.24422837883788  5.68495966236624  0.87903107870787
 1 -9.22744479697970  5.88097424552455 -0.49666989518952
 1 -9.29413062896290  7.88784952385238  1.05504512631263
 1 -7.66729619541954  6.96324272377238  1.73078146364636
 1 -12.25361946704670  2.76328665466547 -2.22028503320332
 1 -13.42831250045004  1.96124001520152 -1.12417360886089
 1 -12.45008673977398  3.40179883458346 -0.60406165016502
 1 -12.58641341974197 -1.81117056215622 -1.36249120402040
 1 -13.41917063596360 -0.09273601040104 -1.61643717121712
 1 -13.01703805640564 -1.53964865106511 -3.68149803430343
 1 -12.15460902510251 -0.21542608020802 -4.00950444614461
 1 -11.25936221552155 -1.66565143224322 -3.06647526752675
 1 -8.91886148914891 -4.92510325322532 -1.98943220732073
 1 -8.09012837763776 -5.66589659385939 -0.53275288828883
 1 -9.76005589048905 -4.61319634093409 -0.29622144474447
 1 -3.37108780468047 -3.59036228692869 -0.09389466096610
 1 -1.69778794529453 -4.12250869056906  3.67006992229223
 1 -2.75719532813281 -5.75206682428243  3.57709054795480
 1 -1.17690580208021 -5.76405567876788  2.80139409230923
 1  2.88655795989599 -1.59942177807781 -1.64895886088609
 1  2.58609608720872  0.30360464006401 -1.80659381158116
 1  4.22969387498750 -0.78628084328433  0.57163037903790
 1  4.05041400490049  1.47737644804480 -2.40837920762076
 1  5.60024543624362  2.35015527442744 -1.80812728092809
 1  5.71829913751375  0.74668577607761 -2.81207993899390
 1  6.46893895679568  1.54440844084408  0.22012465526553
 1  6.20706482588259 -0.18695673307331  0.67425714241424
 1  7.55947333203320 -0.87710694589459 -1.27706903050305
 1  7.75807824372437  0.93338654675468 -1.59320224382438
 1  9.05777782938294  0.95309319431943  0.13666129832983
 1  8.72411089978998 -0.44734024022402  0.92849071277128
 1  10.39875742714271  0.07186972467247 -1.60013490299030
 1  9.37143212871287 -2.12032000850085 -1.82811873667367
 1  11.11784434013401 -2.43751053495350 -1.77126137003700
 1  10.12409529552955 -2.70594253625362 -0.33336277597760
 1  11.39308698959896  0.56423865406541  0.52443393089309
 1  11.37765081848185 -1.09059502080208  0.92729335093509
 1  12.75486880578058 -1.78420658185819 -0.81908957655766
 1  12.91271502400240 -0.34000330933093 -1.57123048434844
 1  13.87251868856886  0.86583913991399  0.49761710471047
 1  13.95173792689269 -0.71116072077208  1.33922043854385
 1  15.01275456395640  0.25692517751775 -1.36157051505151
 1  15.58553599649965 -2.33553384548455  0.07896644274427
 1  15.13323637433743 -2.27252962856286 -1.64544195929593
 1  16.70142977237724 -1.70324584948495 -1.13298476797680
 1  16.00845604630463  1.31607944164416  0.81482802710271
 1  16.47615206240624 -0.31462063716372  1.26190895209521
 1  17.87123806250625 -0.57745429282928 -0.73278661906191
 1  17.88167523202321  1.42717003590359 -1.25245882168217
 1  18.49493028562856  1.97467162486249  0.96611461676168
 1  18.69728688898890  0.48131231223122  1.52509250955096
 1  20.50690560326032  0.34932108030803 -0.16604954095410
 1  19.82686679327933  3.07419098099810 -0.95180877427743
 1  21.37333158525853  2.52144879767977 -1.49081044434443
 1  19.93912781718172  1.78122993379338 -2.11483845284528
 1  20.98005398059806  1.48156626572657  2.33205282248225
 1  22.25123682998300  1.91073230293029  1.06659162546255
 1  20.91301103100310  2.93061314461446  1.32006244674467
>>>>>>> 8e03b5b5abfc0030b3aa597dc0de36371bfbd096

