%nproc=4
%Mem=3GB
# td=(NStates=1) iop(3/107=0140000000,3/108=0140000000) CAM-B3LYP/6-31G(d,p) 

TD

0 1
12 -7.09106379807981  0.65429381288129  0.06376274627463
 6 -4.86896571307131 -2.02962019261926  0.49503490589059
 6 -4.74395042564256  2.79418813671367  1.04644474967497
 6 -9.41357812231223  3.12422997599760 -0.29380185548555
 6 -9.53385948394840 -1.66278804450445 -0.83298010291029
 7 -4.99982701390139  0.33612970357036  0.64688251225123
 6 -4.35121736903690 -0.81967311051105  0.82568046274627
 6 -2.92053827442744 -0.45044344234423  1.14616028512851
 6 -2.98485171207121  1.04563326492649  1.62288856815682
 6 -4.27973820852085  1.45858050915092  1.03707810171017
 6 -2.80483666446645  1.14740756005601  3.08671398599860
 6 -1.94632036173617 -0.72873886308631  0.08776258655866
 6 -0.42506821602160 -0.59859310731073  0.43403678597860
 6  0.53059498269827 -0.74008062996300 -0.80528031813181
 8  0.19228944574457 -0.99522330003000 -1.89474686778678
 8  1.80116871527153 -0.61460139853985 -0.31947733533353
 7 -7.13288093149315  2.63488669856986  0.28634955905591
 6 -6.03338348214821  3.33086685408541  0.73749962606261
 6 -6.32430733913391  4.71272813641364  0.80255851455146
 6 -7.70514529982998  4.89413121832183  0.39048517491749
 6 -8.14988451595160  3.54342128092809  0.05978397699770
 6 -5.40332236613661  5.76385585928593  1.11387154235424
 6 -8.49256926492649  6.06272654225423  0.14452506500650
 6 -8.29941835183518  7.28183733343334  0.60238429772977
 7 -9.09705874697470  0.71774876927693 -0.46233280718072
 6 -9.87507499379938  1.86255958025803 -0.52877569106911
 6 -11.22986693939394  1.64276372087209 -0.93399825952595
 6 -11.28878836603660  0.21804935073507 -1.15704573287329
 6 -9.97271487508751 -0.35320551395140 -0.79727192849285
 6 -12.31981291899190  2.58098333973397 -1.19430888358836
 6 -12.45245903880388 -0.65276139993999 -1.66513584418442
 6 -12.34340624952495 -0.91312150445045 -3.09644029522952
 7 -7.26654961736174 -1.32823765946595 -0.00176285138514
 6 -8.29615394169417 -2.15658420392039 -0.41433301320132
 6 -7.92453449324932 -3.49314986638664 -0.40371067086709
 6 -6.54881267176718 -3.52404538663866 -0.02127420912091
 6 -6.20135386708671 -2.19500745654565  0.18246008140814
 6 -8.84623696319632 -4.69641573997400 -0.79389277237724
 6 -5.34130959385939 -4.33418698209821  0.20214518861886
 8 -5.21210220252025 -5.48950580758076  0.17830377897790
 6 -4.13858836143614 -3.37051449884989  0.50210853245325
 6 -3.55403958075808 -3.66169411211121  1.89415538403840
 8 -3.68193097649765 -3.06922428032803  2.94305766396640
 8 -2.71279663246325 -4.76236485498550  1.73280231773177
 6 -2.13512246924692 -5.16387159305931  2.93977137753775
 6  2.86703302370237 -0.93981227012701 -1.35102862006201
 6  4.19834071927193 -0.64851011891189 -0.59960252305231
 6  5.09684517581758  0.13556008400840 -1.08965184218422
 6  5.03280700630063  0.94498217351735 -2.41347548254825
 6  6.50785706440644  0.30067068306831 -0.32107263166317
 6  7.64075552815282 -0.30650919891989 -1.15099542824282
 6  8.92014972657266 -0.27072888898890 -0.24269037143714
 6  10.17824328492849 -0.67305896909691 -0.90165588558856
 6  10.18753202980298 -2.11294917481748 -1.36027299329933
 6  11.40815547934793 -0.48620351145114 -0.07839580208021
 6  12.84418215371537 -0.42584261776178 -0.76668417351735
 6  13.89167043884388 -0.02428814311431  0.21957836943694
 6  15.23820981198120 -0.05381446504650 -0.47692334483448
 6  15.61480775177518 -1.50067845614561 -0.93942576887689
 6  16.44816180888089  0.47739425672567  0.45583031773177
 6  17.82264985268527  0.62534626422642 -0.05605213221322
 6  18.77499791839184  1.27203528202820  0.91694495119512
 6  20.19081188558856  1.56502593509351  0.39433613961396
 6  20.29281212701270  2.42085939103910 -0.77303199909991
 6  20.99828489548955  2.08771047094709  1.54493843384338
 1 -3.99873023652365  3.54715796719672  1.37940403620362
 1 -10.07599972327233  4.04698697319732 -0.31319584578458
 1 -10.18245266936694 -2.32903843894389 -1.17664548394840
 1 -2.71845913311331 -1.03512371507151  2.04471096179618
 1 -2.08386185248525  1.70714277537754  1.31204485348535
 1 -1.78633171957196  0.90791989838984  3.41976231363136
 1 -2.88201531063106  2.35366458925893  3.29393741594159
 1 -3.61811461196120  0.51071622592259  3.59807149234923
 1 -1.94916003500350 -1.69282995379538 -0.45653366046605
 1 -2.40472684168417 -0.00752313251325 -0.77970470507051
 1 -0.02330775947595  0.23477306460646  1.02035589858986
 1 -0.26376479677968 -1.38765953255326  1.17649110741074
 1 -5.82372655035504  6.73300081208121  0.57671750305030
 1 -5.55409688098810  5.97692057345735  2.18320033253325
 1 -4.42756760136014  5.70339460746075  0.80375110771077
 1 -9.28352861266127  5.92244562656266 -0.44699605230523
 1 -8.99926899059906  7.99061878287829  0.32124189988999
 1 -7.35091302340234  7.29333617001700  1.39895885618562
 1 -11.84885535853585  2.97660680778078 -2.29618545004500
 1 -13.23588088578858  2.06566530893089 -1.32455818401840
 1 -12.29359039173917  3.35941327542754 -0.51942238173817
 1 -12.62387435233523 -1.59883080588059 -0.97469096999700
 1 -13.24803710281028 -0.06916962746275 -1.41354710911091
 1 -13.14729992919292 -1.44778844094409 -3.50306126422642
 1 -12.50909131483148  0.06111764046405 -3.77416639503950
 1 -11.40531537093709 -1.49224025122512 -3.33765204340434
 1 -9.43551817041704 -4.71458795959596 -1.74052011501150
 1 -8.24353873907391 -5.57823377667767 -0.76801675677568
 1 -9.42194637363736 -4.76577502590259  0.04078180948095
 1 -3.28084560306031 -3.57913451905191 -0.08564630273027
 1 -1.30355374297430 -4.58006021942194  3.16347806540654
 1 -3.04586102340234 -5.20053957885789  3.84124516221622
 1 -1.74934545504550 -6.25262604740474  2.54787814891489
 1  2.69987804260426 -2.04431105390539 -1.49091053975397
 1  2.58813525482548 -0.29805172037204 -2.13439449694970
 1  4.13413390009001 -1.35523393719372  0.19446084628463
 1  4.08757406890689  0.98556409910991 -2.97545803150315
 1  5.38170510271027  1.90586101000100 -2.25416285468547
 1  5.84425399389939  0.51411260216022 -3.12504876177618
 1  6.51107929182918  1.35175515611561  0.03133274717472
 1  6.36479435153515 -0.40594793149315  0.53025922142214
 1  7.42057418021802 -1.38265893889389 -1.31545630283028
 1  8.05647820632063  0.08933803680368 -2.06791761466147
 1  9.18999504380438  0.78448794629463  0.05138756685669
 1  8.73703682448245 -0.73153150585059  0.81579770317032
 1  10.35056968876888 -0.01213506570657 -1.96578173617362
 1  9.59701931103110 -2.53360164366437 -2.15498388028803
 1  11.12377151775178 -2.38437183648365 -1.65185054315432
 1  9.99708190529053 -2.83932804750475 -0.68824621832183
 1  11.23646528812881  0.61660809420942  0.37873564436444
 1  11.44641223672367 -1.20614191179118  0.76923324342434
 1  12.97241519401940 -1.61463888318832 -1.02344461596160
 1  12.83948977887789  0.23367830383038 -1.61425575927593
 1  13.58999041934193  1.03705906920692  0.59567439613961
 1  13.86994530513051 -0.67068344724472  1.01611398539854
 1  15.32961336273627  0.46088948594859 -1.48336960576058
 1  15.93181697849785 -2.38446778797880 -0.02217035253525
 1  14.83294493889389 -1.89261378137814 -1.62864423792379
 1  16.42567084668467 -1.31082197919792 -1.47458397169717
 1  15.96490976447645  1.50915924962496  0.76512242854285
 1  16.49265334313431 -0.31279756455646  1.31416991169117
 1  18.20210694839484 -0.53494000800080 -0.06086628222822
 1  17.89234654425443  1.19548844294429 -1.01512725632563
 1  18.30493955085509  2.37827909590959  1.05046699349935
 1  18.81252721522152  0.98908374787479  1.94759800530053
 1  20.71349118141814  0.48452945054505  0.12743863606361
 1  19.44870168866887  3.31859263576358 -0.67567975267527
 1  21.19100290109011  2.78453959605961 -1.12256023722372
 1  19.97663606120612  1.76096638683868 -1.80450883528353
 1  20.88116196969697  1.38084372527253  2.50846451525153
 1  21.91807970077008  2.23577404810481  1.28977563116312
 1  20.47031711021102  3.00201631883188  1.92918005470547

