%nproc=4
%Mem=3GB
# td=(NStates=1) iop(3/107=0140000000,3/108=0140000000) CAM-B3LYP/6-31G(d,p) 

TD

0 1
12 -7.10844553625363  0.57817620112011  0.21521789178918
 6 -4.77263608010801 -1.82435966656666  0.51074647704770
 6 -4.88163419401940  2.86540525842584  1.29512961816182
 6 -9.40831759625963  3.09926747974797 -0.45667814311431
 6 -9.51876797479748 -1.74115588128813 -0.94084088898890
 7 -5.04667169836984  0.52424851545155  0.69026685068507
 6 -4.24011625892589 -0.56935807900790  0.79294718941894
 6 -2.96078229882988 -0.32447084508451  1.40723639273927
 6 -3.05967919481948  1.15750445204520  1.74146042534253
 6 -4.42445267996800  1.64941959305931  1.17057145104510
 6 -3.05553173397340  1.38017083638364  3.25514082868287
 6 -1.88309403910391 -0.60337632683268  0.31667547784778
 6 -0.42839854905491 -0.51443469146915  0.72933631593159
 6  0.56660858405841 -0.75348197009701 -0.45543533363336
 8  0.19092930973097 -0.93598737643764 -1.61954934803480
 8  1.86914551295130 -0.60420035843584 -0.05505089268927
 7 -7.09689733313331  2.66089929982998  0.34993591769177
 6 -6.19026917071707  3.40589435683568  0.91237711381138
 6 -6.48190309870987  4.79131599519952  0.88297655635564
 6 -7.83682846814681  4.80658246344634  0.37947407380738
 6 -8.18629815731573  3.52136907570757  0.03233123172317
 6 -5.57659969386939  5.96631610531053  1.25754590979098
 6 -8.72456246424643  5.93309357895790  0.22870348284828
 6 -8.61235964596460  7.15567471717172  0.79685374467447
 7 -9.12742178327833  0.68208520292029 -0.56273284718472
 6 -9.87238472477248  1.79758308260826 -0.68332114561456
 6 -11.17504145684569  1.45901534603460 -1.24006886658666
 6 -11.25854534173417  0.09307685348535 -1.34930495879588
 6 -9.93429103270327 -0.38319851325132 -0.85023722502250
 6 -12.20975191289129  2.49347458885889 -1.68633808650865
 6 -12.40289408230823 -0.77310343414341 -1.92395172577258
 6 -12.09799170807081 -1.28469866216622 -3.44602525372537
 7 -7.29586254865487 -1.40405524122412 -0.14646732183218
 6 -8.24266859315932 -2.23747229272927 -0.56024760466047
 6 -7.75644768456846 -3.62964351575158 -0.56653695349535
 6 -6.43615140564056 -3.53463644574457 -0.14240632233223
 6 -6.15905963766377 -2.10076803260326  0.13335517091709
 6 -8.55469780928093 -4.74705080348035 -1.02379576267627
 6 -5.18647411031103 -4.25987955135514  0.15299027312731
 8 -5.08858985128513 -5.50684754175418  0.05780172877288
 6 -4.16133063566357 -3.14955240264026  0.56561488308831
 6 -3.63461763856386 -3.62797073977398  1.91466743524352
 8 -3.79085186858686 -3.10540789868987  2.95812917111711
 8 -2.85244059685969 -4.69231785028503  1.87279631713171
 6 -2.18476743374337 -5.22545775167517  3.08373577397740
 6  2.85754207460746 -0.68846713561356 -1.20416393359336
 6  4.08013889908991 -0.43141840974097 -0.60403296609661
 6  5.16746223752375  0.33011953995400 -0.98590146714671
 6  5.06098982458246  1.23516119141914 -2.16451058605861
 6  6.44899117781778  0.29701031703170 -0.18801932633263
 6  7.53746519911991 -0.29153770177018 -1.01552188088809
 6  8.94658236983698 -0.21701351745175 -0.07870397279728
 6  10.24476993759376 -0.54628629182918 -0.93758947894789
 6  10.16613989058906 -2.04335221512151 -1.52331929792979
 6  11.48756342014201 -0.50397528862886  0.07555959345935
 6  12.75631336683668 -0.61637167066707 -0.72115962106211
 6  13.96944821662166 -0.23268898319832  0.17649406100610
 6  15.33842983398340 -0.18909799339934 -0.53919957245725
 6  15.71091736273628 -1.67009539783978 -0.95175700200020
 6  16.51005799849985  0.38727524482448  0.41388612331233
 6  17.82091967966797  0.45189891949195 -0.14441096809681
 6  18.82672309090909  1.23532161066107  0.72006526322632
 6  20.15966877127713  1.35994542704270  0.07137384338434
 6  20.29082192799280  2.31741904700470 -1.11090578647865
 6  21.14668973597360  1.91675337523752  1.24408834883488
 1 -4.14529489298930  3.56331958335834  1.72793888968897
 1 -10.14546666996700  3.93589586408641 -0.57989251545155
 1 -10.13436786088609 -2.51271680678068 -1.14394221362136
 1 -2.87382466966697 -1.02950315301530  2.31282777347735
 1 -2.39064253055305  1.85220728182818  1.37411106010601
 1 -2.13605669206921  0.76094520092009  3.77496783418342
 1 -2.89279638873887  2.21633085588559  3.72057007920792
 1 -3.99793259375938  0.93704885918592  3.78576026122612
 1 -1.96279139813981 -1.68940961176118 -0.00553856095610
 1 -2.11539790879088 -0.01000338053805 -0.64020075467547
 1 -0.18435386408641  0.38810839813981  1.42973683668367
 1 -0.47307572787279 -1.27325809240924  1.43146660496050
 1 -5.55740991869187  6.82586009800980  0.79342917421742
 1 -5.53929540084008  6.12209509090909  2.31121313381338
 1 -4.53843868846885  5.57440170817082  1.26773750635064
 1 -9.60835109490949  5.84435781778178 -0.48245959865987
 1 -9.41992105580558  7.80539026002600  0.44151392709271
 1 -7.94365229732973  7.56554339073907  1.51169012931293
 1 -11.71354182718272  3.18170731783178 -2.37808363986399
 1 -13.21720901860186  2.16314505690569 -2.10002573077308
 1 -12.51946297899790  3.27483481758176 -0.96983742324232
 1 -12.54690665556556 -1.61459238203820 -1.25007850875088
 1 -13.27153945304531 -0.19959266976698 -2.00477623202320
 1 -13.15205040424043 -1.88753241534153 -3.52410336843684
 1 -12.18199860556055 -0.41986045734573 -4.13712269066907
 1 -11.10963580298030 -1.69078010521052 -3.44926320452045
 1 -9.14532915151515 -4.53624012481248 -2.10304636763676
 1 -7.85510989618962 -5.70948690199020 -1.09220917601760
 1 -9.35219939893990 -5.11468991739174 -0.31687395609561
 1 -3.28390590909091 -3.27279388498850 -0.00398813691369
 1 -1.77911129872987 -4.49429164256426  3.60283200080008
 1 -2.91607804510451 -5.62935246014601  3.81100213791379
 1 -1.55030555105511 -5.95832661746175  2.78674203530353
 1  2.84185224002400 -1.89498612141214 -1.55388683738374
 1  2.52476891819182 -0.02520443564356 -1.93131418891889
 1  4.07007749444944 -1.17893630743074  0.17850925112511
 1  4.14969028052805  1.23842938563856 -2.51086157185719
 1  5.51608854105411  2.27787821172117 -1.91375881428143
 1  5.72010157865787  0.63534472537254 -3.05813207010701
 1  6.82734091799180  1.38393837443744  0.15862547644764
 1  6.30087795989599 -0.09559689638964  0.65269146464646
 1  7.28288041084109 -1.42588326132613 -1.22715747294729
 1  7.86285884438444  0.43920302330233 -1.84638546144614
 1  9.08658470277028  0.66942644014401  0.38222065016502
 1  8.81690481128113 -0.96215456815682  0.71175729912991
 1  10.32265689748975  0.19165531333133 -1.81177633563356
 1  9.34850445954596 -2.05034331783178 -2.20325870777078
 1  11.04590373097310 -2.46986038533853 -2.07084244234423
 1  10.07668986608661 -2.81406552125212 -0.56106350005000
 1  11.59912155375537  0.44840127352735  0.42763053385339
 1  11.33427102260226 -1.40333163076308  0.68587490759076
 1  13.00706865936594 -1.47699511881188 -1.13876614811481
 1  12.85633146304630 -0.10753581758176 -1.73783811751175
 1  13.78053947424742  0.85011037433743  0.62602743144314
 1  14.11545985658566 -1.05256163506351  0.92513488748875
 1  15.18901930333033  0.37159055605561 -1.53835510431043
 1  15.85848964576458 -2.37600694189419 -0.03677181268127
 1  15.01413305770577 -2.21673619361936 -1.60597197069707
 1  16.73629190879088 -1.43200409740974 -1.50624713801380
 1  16.06216949044904  1.33929226292629  0.70565648194819
 1  16.71029510731073 -0.20332661746175  1.38849734443444
 1  18.27255399309931 -0.42493900790079 -0.77025722132213
 1  17.58527583718372  1.09643853795380 -1.18727447104710
 1  18.33546260316032  2.29283055105511  0.90383233003300
 1  18.90359632213221  0.58824366386639  1.52098534403440
 1  20.51280111241124  0.34327532513251 -0.21426553435344
 1  19.85540235873587  3.37405818231823 -0.71244342904290
 1  21.13635743654365  2.28202934503450 -1.60808879007901
 1  19.64939333693370  1.82978326852685 -1.88600698509851
 1  21.30419427292729  1.10100574147415  2.05400906970697
 1  22.19219711251125  1.97989846054606  0.80248690229023
 1  20.94030410891089  2.89305542274227  1.39034617131713

