%nproc=4
%Mem=2GB
# td=(NStates=1) CAM-B3LYP/6-31G(d,p) 

TD

0 1
12 -7.12395296829683  0.62107085518552  0.00863855125513
 6 -4.94102872087209 -2.01827300570057  0.59777631033103
 6 -4.77374730363036  2.79069751705171  1.12016838173817
 6 -9.45613034853485  3.16438193369337 -0.49550240994099
 6 -9.48747906160616 -1.62836834783478 -0.80925735483548
 7 -5.15147857245725  0.37842766086609  0.62298271657166
 6 -4.40930063616362 -0.75779560156016  0.80931895509551
 6 -2.97696670207021 -0.45243466916692  1.25265561976198
 6 -3.09501293969397  1.07081975027503  1.63455418611861
 6 -4.43924091899190  1.48448919771977  1.11995902580258
 6 -3.03624870697070  1.20534282238224  3.14479588848885
 6 -1.91618507950795 -0.67222248364836  0.01064502280228
 6 -0.46505392799280 -0.47025137233723  0.42096622592259
 6  0.57084822202220 -0.69494300720072 -0.77246262676268
 8  0.34950619071907 -1.10457586518652 -1.87758409010901
 8  1.78951076157616 -0.38047544394439 -0.26275306420642
 7 -7.15247569546955  2.60378596839684  0.31346004150415
 6 -6.04679395839584  3.28714969076908  0.75065859945995
 6 -6.39387664076408  4.72565685508551  0.80595128232823
 6 -7.67752045904590  4.95818645014502  0.36083447474747
 6 -8.16716098769877  3.52882207750775 -0.02620007370737
 6 -5.45507346404640  5.81972443834383  1.12059682018202
 6 -8.57181497909791  6.03148418211821  0.13355034043404
 6 -8.50088397969797  7.17135325392539  0.74353060286029
 7 -9.16012828542854  0.73244610571057 -0.48006203990399
 6 -9.84256051575158  1.82335228832883 -0.71214753885389
 6 -11.17467656425642  1.48340667976798 -0.98931065056506
 6 -11.24300670457046  0.13893925802580 -1.14930364436444
 6 -9.86982266296630 -0.31536351065107 -0.83679869596960
 6 -12.34720354405441  2.43736430743074 -1.28173494829483
 6 -12.37972251855185 -0.73805121522152 -1.68686949544955
 6 -12.08132562096210 -0.97979039023902 -3.20040515911591
 7 -7.28259772807281 -1.38951856545655 -0.08047272427243
 6 -8.29868010781078 -2.23095826792679 -0.47961291649165
 6 -7.86586273187319 -3.67623589108911 -0.50974825212521
 6 -6.55589947404741 -3.56120045704570 -0.05282701460146
 6 -6.23894649104910 -2.18930721202120  0.11771457565757
 6 -8.79709717711771 -4.82369521192119 -0.83336181458146
 6 -5.34963943424342 -4.37119100260026  0.26988986158616
 8 -5.10797963586359 -5.58892337573757  0.33746077677768
 6 -4.28064164356436 -3.36596238603860  0.58792865816582
 6 -3.52822345324532 -3.67048226952695  1.94154452735274
 8 -3.83681528212821 -3.15147188338834  2.97103978507851
 8 -2.65263645734573 -4.64020874327433  1.77768634953495
 6 -2.05913650155015 -5.24417864696470  2.90806574207421
 6  2.84601711341134 -0.60644843944394 -1.26901810221022
 6  4.08282037103710 -0.33009118541854 -0.53936408540854
 6  5.17593107750775  0.35755202060206 -1.00529030173017
 6  5.17998642164216  1.33825647494750 -2.11379554485449
 6  6.44694902770277  0.42552440264026 -0.14286077127713
 6  7.72038957685769 -0.26337668456846 -0.86698364886489
 6  8.99016088868887 -0.16608173857386 -0.12372418521852
 6  10.23678430293029 -0.71839891159116 -0.91474244474447
 6  10.19128582878288 -2.21519245534553 -1.36102956795680
 6  11.40723360026003 -0.33804758555856 -0.03051218261826
 6  12.74709961766177 -0.72948699979998 -0.61597162006201
 6  13.99958942734273 -0.20062126492649  0.16500356785679
 6  15.37055318021802 -0.24317804690469 -0.47978621842184
 6  15.78973064196420 -1.66240387418742 -0.80871048874887
 6  16.31000510641064  0.38824318431843  0.51188569576958
 6  17.74715930533053  0.47707910631063 -0.10458627322732
 6  18.79378974847485  1.30566878387839  0.76332676567657
 6  20.25803447264726  1.50934126762676  0.18240300350035
 6  20.20952230603060  2.42714101130113 -1.03889488218822
 6  21.23665459625963  2.14711764806481  1.25719108250825
 1 -3.90086157065707  3.53803932533253  1.45493007990799
 1 -10.25864625732573  4.03192402740274 -0.63529892139214
 1 -10.43946723612361 -2.31281062186219 -0.92973962616262
 1 -2.60566702360236 -0.99234754865487  2.19246993819382
 1 -2.32090569576958  1.69384296689669  1.14394504490449
 1 -1.94647910541054  1.25624607750775  3.58903261676168
 1 -3.54132919291929  2.20408446594660  3.27650981638164
 1 -3.44079752245224  0.11914659865987  3.67424983778378
 1 -2.19829231413141 -1.71944190459046 -0.52676658585859
 1 -2.63894556705671 -0.08422117171717 -0.90543058265827
 1 -0.33927744514452  0.59581419531953  0.90106050515052
 1 -0.06926472847285 -1.34235875107511  1.16708066326633
 1 -5.58195697109711  6.78112675677568  0.68851456065607
 1 -5.28057504690469  6.29812317541754  2.30315661276128
 1 -4.38747270327033  5.48991015741574  0.85979915551555
 1 -9.24378643114312  5.77750389848985 -0.69593982218222
 1 -9.16956817271727  8.03801454035404  0.46646626842684
 1 -7.77659712551255  7.21736813631363  1.47495588108811
 1 -12.05203930903090  3.29083940994099 -2.16507951265127
 1 -13.26368603780378  1.84531842304230 -1.67886907840784
 1 -12.43584531563156  2.92182083678368 -0.35522676667667
 1 -12.35132991139114 -1.79396884198420 -1.26218117301730
 1 -13.36202492139214 -0.18175491229123 -1.58460398789879
 1 -12.84683103570357 -1.33255794199420 -3.86549643414342
 1 -11.99432299649965  0.05987144954495 -3.74628812451245
 1 -11.23067934723472 -1.34989985708571 -3.19646826682668
 1 -9.15626522952295 -4.72061280418042 -1.85036830093009
 1 -8.17328669346935 -5.61261126532653 -0.46607622062206
 1 -9.75928581348135 -4.62023704500450 -0.25595741834183
 1 -3.43808450435043 -3.59114236493649 -0.19553482498250
 1 -1.53273143964396 -4.52533897359736  3.43303621892189
 1 -2.83374298289829 -5.88786040364036  3.41077391629163
 1 -1.05834394589459 -5.70920019321932  2.63299725262526
 1  2.77143644774477 -1.59883171907191 -1.81345531053105
 1  2.56682416001600  0.11166544614462 -2.03492664486449
 1  4.17801870747075 -1.14009622482248  0.27020023602360
 1  4.37183614711471  1.56628533893389 -2.61158952865286
 1  5.36298170987099  2.25193545244524 -1.77303377157716
 1  5.67637494509451  1.02896400390039 -3.16996572757276
 1  6.85134719761976  1.36688068806881  0.05617826062606
 1  6.28433255265527 -0.31581961936194  0.73093280998100
 1  7.50266765146515 -1.13665290049005 -1.27615893949395
 1  7.94204664056406  0.45180838893889 -1.64693761736174
 1  9.07731978357836  0.77411529652965  0.30026765896590
 1  8.85227371607161 -0.80519602580258  0.87491535523552
 1  10.29055660706070 -0.11852931523152 -1.70353524302430
 1  9.07192217771777 -2.38231620812081 -1.92049797459746
 1  10.88356091179118 -2.35455223912391 -2.31167541144114
 1  10.43059594559456 -3.05314725672567 -0.61129056875688
 1  11.10626830773077  0.66162839303930  0.10581206870687
 1  11.30099315271527 -0.89916587788779  0.89802042364236
 1  12.77312063096310 -1.77834599579958 -0.68284595219522
 1  12.83250700320032 -0.12656196519652 -1.66346970827083
 1  13.83307474417442  0.80410296629663  0.44017136013601
 1  14.03670642374238 -0.74849445414541  1.07754427092709
 1  15.18174146264626  0.15826531153115 -1.54875923392339
 1  15.87120456335634 -2.32535282738274  0.09088763486349
 1  15.09863291399140 -2.06000837643764 -1.67480489558956
 1  16.75581521092109 -1.73761928682868 -1.10511198069807
 1  15.89188438913891  1.55156298999900  0.53344988928893
 1  16.32385683288329 -0.37738691379138  1.41780454165417
 1  18.22151309000900 -0.49104565196520 -0.50910425082508
 1  17.74331139563957  1.16143346224622 -1.20265384118412
 1  18.26581737433743  2.35421957965797  0.85781378667867
 1  19.18089524982498  0.74115829682968  1.70635063536354
 1  20.65768068076808  0.43597974617462  0.05085214921492
 1  19.80440454705470  3.48723228512851 -0.74747834123412
 1  21.24063831593159  2.49394604740474 -1.47830919421942
 1  19.47932183658366  1.87620943174317 -1.60322729172917
 1  21.11251722692269  1.76160426952695  2.22661227842784
 1  22.26719842614261  2.18278950865086  0.90321528782878
 1  20.76775650555056  3.14792487578758  1.61227166766677

