%nproc=4
%Mem=2GB
# td=(NStates=1) CAM-B3LYP/6-31G(d,p) 

TD

0 1
12 -7.21418199119912  0.55689443754375  0.13568125552555
 6 -4.88661327932793 -2.00894207260726  0.50371690439044
 6 -4.82823275217522  2.84121256855686  1.01776814171417
 6 -9.40051478697870  3.10347584308431 -0.32666552625262
 6 -9.60602091579158 -1.75090060106011 -0.89819624872487
 7 -5.12438586318632  0.36299611771177  0.64099451775178
 6 -4.38440814691469 -0.73751357335734  0.76477450065007
 6 -2.85156416181618 -0.43898332403240  1.22900325452545
 6 -2.98067150555056  1.00100276857686  1.60496122682268
 6 -4.36947394229423  1.44036478527853  1.05923295319532
 6 -2.61113619571957  1.38015030313031  2.97992940184018
 6 -1.93298675967597 -0.80233549494949  0.10692465076508
 6 -0.49009643224322 -0.53822817001700  0.53957808710871
 6  0.57445858305831 -0.69418293119312 -0.54632001250125
 8  0.28821006110611 -1.16276168376838 -1.66743307500750
 8  1.79659146964696 -0.51500889728973 -0.10611740064006
 7 -7.06632708060806  2.67890348014801  0.27766646214621
 6 -6.03715299429943  3.37164814061406  0.73298683228323
 6 -6.48503575667567  4.83787807720772  0.77776846404640
 6 -7.78474118111811  4.82669330083008  0.35176356765677
 6 -8.12905717731773  3.48043723902390  0.10855340164016
 6 -5.40522847954796  5.86476894279428  1.26811157165717
 6 -8.62456025362536  5.97338837253725 -0.06679969456946
 6 -8.39188307960796  7.21029714831483  0.61755800560056
 7 -9.12139441204120  0.65155801690169 -0.57989202290229
 6 -9.82387864756476  1.83135308840884 -0.57520384448445
 6 -11.13898299489949  1.42696103520352 -1.02803452295230
 6 -11.30606301020102  0.15310067416742 -1.19529824382438
 6 -10.00273595429543 -0.39154112841284 -0.86161117721772
 6 -12.21567039073907  2.43183375437544 -1.44223099789979
 6 -12.46590113641364 -0.65480289038904 -1.61098190669067
 6 -12.36587407580758 -1.13838624982498 -3.06933205180518
 7 -7.30291976027603 -1.40517013061306 -0.24712938993899
 6 -8.36796703650365 -2.22998817091709 -0.59514446964696
 6 -7.82447859345935 -3.63774204170417 -0.43156043334333
 6 -6.53674755885589 -3.57569190619062 -0.06840857275728
 6 -6.23975657205721 -2.15994427572757  0.04171697589759
 6 -8.68733620102010 -4.84887773017302 -0.80156863526353
 6 -5.44396886718672 -4.35311919541954  0.27754062666267
 8 -5.36340517841784 -5.57349183258326  0.24349137983798
 6 -4.24925850525053 -3.33861965176518  0.53735360066007
 6 -3.53907453835384 -3.60443566486649  1.84349472237224
 8 -3.69606120672067 -3.09896663286329  2.90980366146615
 8 -2.65060625432543 -4.68582330473047  1.69637821872187
 6 -2.00689127702770 -5.05694992409241  2.98128306380638
 6  2.84293680538054 -0.63020081468147 -1.19150035043504
 6  4.17314940394039 -0.34030220652065 -0.47940808980898
 6  5.20484396879688  0.50784705010501 -0.81164093679368
 6  5.02466088908891  1.39459210851085 -1.98757292259226
 6  6.46916124892489  0.46774862506251 -0.10054653985399
 6  7.59008654655466 -0.22081242814281 -0.96297324782478
 6  8.87715958855886 -0.01808693909391 -0.27622943574357
 6  10.23437406190619 -0.46593366506651 -1.01249221972197
 6  10.00562726292629 -1.96298723482348 -1.57320078507851
 6  11.45537841474147 -0.36539031983198 -0.02490162156216
 6  12.84763967166717 -0.51836588768877 -0.78441846474647
 6  13.98663813221322 -0.26598780158016  0.20527759525953
 6  15.40638676357636 -0.20813454255426 -0.48128636843684
 6  15.73352502140214 -1.67779541334133 -1.00380999869987
 6  16.50506461236123  0.36546090609061  0.50667517471747
 6  17.81782637203720  0.49085048344834 -0.17719353395340
 6  18.78863923342334  1.20097831483148  0.81036146914691
 6  20.25366403560356  1.39658999249925  0.27091185438544
 6  20.35205655945595  2.30889918711871 -0.99083007570757
 6  21.07922885368537  1.98728166446645  1.39595495889589
 1 -4.14207569206921  3.37069259065907  1.43845843274327
 1 -10.08416880958096  3.76005684068407 -0.38938432993299
 1 -10.45978926832683 -2.34800414121412 -1.29340599279928
 1 -2.82411886878688 -1.15223353725373  2.07578827002700
 1 -2.18619222442244  1.51905548814881  1.04746539693969
 1 -1.69967442494249  1.19719017191719  3.35794950845085
 1 -2.85279033903390  2.44460851835183  2.92275444084408
 1 -3.13147659035904  0.64381906590659  3.53933634643464
 1 -1.90377286218622 -1.83266322672267 -0.27320122932293
 1 -2.12138381088109 -0.10990373997400 -0.85863590319032
 1 -0.28599211661166  0.46201081498150  0.82691309040904
 1 -0.26373417541754 -1.29122363756376  1.21787574277428
 1 -5.66559533493349  6.88336698079808  0.97571328052805
 1 -5.55973296269627  5.96685004810481  2.23200949804981
 1 -4.35769972597260  5.60288145454545  0.82593576917692
 1 -9.43165521802180  5.92492864096410 -0.66335656385639
 1 -8.86690790669067  8.11791253015302  0.42037165896590
 1 -7.77281674747475  7.21555795529553  1.42537092259226
 1 -11.90814491959196  3.04606493249325 -2.35005801050105
 1 -13.02046171537154  1.91527541874187 -1.50352154365437
 1 -12.42042377347735  3.15975463016302 -0.66569781378138
 1 -12.48470324872487 -1.60325977107711 -1.09483443834383
 1 -13.47813653255326 -0.19106584338434 -1.50822635013501
 1 -13.32214856745675 -1.93627831403140 -3.29367925242524
 1 -12.54298786298630 -0.36918145574557 -3.80799429512951
 1 -11.41706798609861 -1.63873874097410 -3.58499711971197
 1 -8.81382098509851 -4.81263200610061 -1.95699896399640
 1 -7.78848821362136 -5.69627963216322 -0.36510612361236
 1 -9.60293017791779 -4.71372639393940 -0.23582540514051
 1 -3.62087278317832 -3.54517776847685 -0.36646191769177
 1 -1.50456862336234 -4.07363380308031  3.40912382768277
 1 -2.76221583018302 -5.31419303690369  3.80417325622562
 1 -1.45217332883288 -5.91474074727473  2.70664461736174
 1  2.76976628072807 -1.78647048294829 -1.43372733773377
 1  2.69537701530153  0.06833111271127 -1.99658281048105
 1  4.41671257685769 -0.91183339853985  0.20159337533753
 1  4.05887485098510  1.32993170357036 -2.47378574827483
 1  5.33240865256526  2.47921818071807 -1.90586705490549
 1  5.65826313391339  0.80434154165417 -2.68221695269527
 1  6.69360142304230  1.47038103810381  0.13767641044104
 1  6.48396251565157  0.05577754035404  0.91207092379238
 1  7.09400678537854 -1.21638087328733 -1.26070739433943
 1  7.83573600950095  0.33043625172517 -1.99803272687269
 1  8.97887993959396  0.94102198719872  0.01886951915192
 1  8.70149863856386 -0.44717022322232  0.78499636333633
 1  10.46288383978398  0.11214375207521 -1.88846373587359
 1  9.00213519901990 -1.98565654215422 -2.34051997679768
 1  10.95457801350135 -2.32597938183818 -1.85321956585659
 1  9.77491037703770 -2.56208815081508 -0.80827026672667
 1  11.38079576047605  0.66264849504951  0.69774126162616
 1  11.29175222862286 -1.50814677597760  0.54932555415542
 1  12.70450376927693 -1.60111827302730 -1.17095476307631
 1  12.76612036453645  0.00264095509551 -1.55097845914592
 1  13.78868030473047  0.71275383138314  0.61926926992699
 1  14.03905665876588 -1.09969957465747  0.92894941144114
 1  15.47627091559156  0.35304478947895 -1.23808816681668
 1  15.59267671057106 -2.31826211831183 -0.12365381928193
 1  15.09592264296430 -1.94263663926393 -1.86155357045705
 1  16.72183181258126 -1.81794731963196 -1.32726419591959
 1  15.95949114981498  1.29822765646565  0.77472401670167
 1  16.67690213741374 -0.32880205530553  1.39635239643964
 1  18.24862580128013 -0.58040458785879 -0.47600094049405
 1  17.69864692919292  1.16375369426943 -1.17773134893489
 1  18.52081287388739  2.28036219391939  1.07477548284828
 1  18.85627278757876  0.53028720972097  1.78315831613161
 1  20.43549846254626  0.37599374757476 -0.08472140814081
 1  19.77783188978898  3.28313187508751 -0.91214480788079
 1  21.52984723682368  2.55625227802780 -1.14752611591159
 1  19.97285118951895  1.85251706250625 -1.77131410041004
 1  20.95141111631163  1.37906601570157  2.38406802400240
 1  22.02362406870687  2.26482771247125  1.02870783708371
 1  20.54969469936994  2.92943302660266  1.86894733523352

