%nproc=4
%Mem=2GB
# td=(NStates=1) CAM-B3LYP/6-31G(d,p) 

TD

0 1
<<<<<<< HEAD
12 -7.05489606260626  0.58829757785779  0.11446913431343
 6 -4.91911652965296 -1.96038721712171  0.60744727742774
 6 -4.70859078797880  2.81422987028703  1.16761312621262
 6 -9.35799053455345  3.11144664016402 -0.41524438413841
 6 -9.43570388408841 -1.71162667366737 -0.90199662876288
 7 -5.11343476807681  0.44244406250625  0.75959637793779
 6 -4.34402410851085 -0.71664148614861  0.78254627782778
 6 -2.95242424782478 -0.41522094779478  1.28330868506851
 6 -2.95602904130413  0.99692236053605  1.64737546824682
 6 -4.28749574447445  1.54220496929693  1.06544357425743
 6 -2.92379746184618  1.22692498059806  3.12693410231023
 6 -2.01576503750375 -0.62134739613961  0.10867482578258
 6 -0.43829125172517 -0.37548189538954  0.50190431973197
 6  0.53164430163016 -0.68908242114211 -0.64749012951295
 8  0.24666590669067 -1.12616802440244 -1.72961929362936
 8  1.80780259075908 -0.39777717411741 -0.28985577447745
 7 -7.02508295619562  2.56119170897090  0.38560725622562
 6 -5.94135341434143  3.38143911971197  0.83693722732273
 6 -6.35306255935594  4.75445973537354  0.86269695689569
 6 -7.61826453345334  4.85887651915191  0.36446483778378
 6 -8.00203447504751  3.43891308660866  0.02862540884088
 6 -5.40406836353635  5.78448091399140  1.26176093659366
 6 -8.51784958255826  5.99068010171017  0.18009499489949
 6 -8.34927881918192  7.17978409700970  0.76845309510951
 7 -9.08637090969097  0.72076493759376 -0.55796983068307
 6 -9.80099635933593  1.84682463556356 -0.64515083918392
 6 -11.11643073967397  1.44299263836384 -1.11487320682068
 6 -11.16281868576858  0.09762512661266 -1.30871958595860
 6 -9.81822750345034 -0.37851982628263 -0.99978499459946
 6 -12.25335415911591  2.50629120012001 -1.47628440324032
 6 -12.30853539983998 -0.70407781788179 -1.74330513901390
 6 -12.29292678107811 -1.05718813001300 -3.28668378697870
 7 -7.18688815711571 -1.37611722532253 -0.20007468446845
 6 -8.22090233003300 -2.29648482058206 -0.60348530373037
 6 -7.80614676027603 -3.62164043154315 -0.58101537883788
 6 -6.50447433153315 -3.57417175417542 -0.06733846574657
 6 -6.15700829722972 -2.19293757505751  0.16836964116412
 6 -8.69196666406641 -4.85173801620162 -0.82308078647865
 6 -5.22529700000000 -4.38559244274427  0.18949182178218
 8 -5.12493133103310 -5.55568005140514  0.03758078877888
 6 -4.23354693409341 -3.30740653045304  0.69816968226823
 6 -3.57446807770777 -3.69139436073607  2.02471284418442
 8 -3.72777437803780 -3.09202593879388  3.09939262036204
 8 -2.70945213891389 -4.63366808920892  1.80619920082008
 6 -2.08243883178318 -5.17294152325232  3.06273120862086
 6  2.88656116781678 -0.59729752435244 -1.38233943434343
 6  4.20087217621762 -0.42448062436244 -0.65875602460246
 6  5.10239372377238  0.41263752915292 -1.02706247894789
 6  5.11006942994299  1.27072972227223 -2.16124028932893
 6  6.36102043484348  0.62464431463146 -0.26369285448545
 6  7.56888442634263 -0.24105445234523 -0.93229017951795
 6  8.89324119671967 -0.26102123252325 -0.10995280808081
 6  10.10263088758876 -0.60624769646965 -0.78707967846785
 6  9.93147984818482 -2.08199913601360 -1.24353781878188
 6  11.28943182008201 -0.41530531133113  0.06337720632063
 6  12.65804071177118 -0.55098915001500 -0.63386340924092
 6  13.83419288768877 -0.28566976977698  0.24595166266627
 6  15.27210333523352 -0.25632936203620 -0.44584282408241
 6  15.67528919781978 -1.76656429022902 -0.88152777047705
 6  16.28894300020002  0.34866922692269  0.54011851905191
 6  17.63243783318332  0.59440083848385 -0.30283609820982
 6  18.67274764426443  1.36016423342334  0.63933436643664
 6  20.10388905810581  1.51473180668067  0.23835859905991
 6  20.13146450025003  2.09324762196220 -1.23456444914491
 6  20.85238616941694  2.30291322762276  1.32749811321132
 1 -3.96550803530353  3.48812433383338  1.45459004590459
 1 -9.92782317501750  4.04582541754175 -0.64327971947195
 1 -10.24818810821082 -2.40164950575058 -1.37016366856686
 1 -2.41728818571857 -0.94547286118612  2.13898458965897
 1 -2.03973757895790  1.42987657025703  1.16551720212021
 1 -1.93995845334533  1.02085253815382  3.48405211871187
 1 -3.26286134613461  2.13503756125613  3.42015418081808
 1 -3.43551699439944  0.41062574657466  3.54528694149415
 1 -1.99433191809181 -1.51549150955095 -0.46204011321132
 1 -2.23200487298730  0.18395564596460 -0.61800183978398
 1 -0.32484600200020  0.41234584848485  0.89820021912191
 1 -0.18401620362036 -1.29506402160216  1.14650860606061
 1 -5.52667144254425  6.52897154125413  0.42991870107011
 1 -5.60683767316732  6.40513387648765  2.32464876197620
 1 -4.28593254925492  5.30083124952495  1.26555973157316
 1 -9.29701175367537  5.80243639173917 -0.49066929512951
 1 -9.01749296519652  7.98452919181918  0.40081970377038
 1 -7.64940440624062  7.33252965246525  1.36998538403840
 1 -11.63910801590159  3.20972129812981 -2.27909091379138
 1 -13.10349001820182  1.75564945614561 -1.92685387688769
 1 -12.37909964106411  3.29592824752475 -0.65838708270827
 1 -12.18540331873188 -1.53709315441544 -1.09773472837284
 1 -13.22091080998100 -0.09417615441544 -1.55742126962696
 1 -13.17299365196520 -1.52974766096610 -3.48818870337034
 1 -12.26692025622562 -0.11784632223222 -3.71795529122912
 1 -11.24668094739474 -1.60130499759976 -3.36213483348335
 1 -9.15669527252725 -4.67796853975398 -1.98931219531953
 1 -7.84545391019102 -5.65123512771277 -0.99880949394939
 1 -9.32534241914191 -5.03053807510751  0.01713989138914
 1 -3.41444214011401 -3.33191644234423 -0.10574584608461
 1 -1.74796296279628 -4.36381282098210  3.66050896619662
 1 -2.78562817141714 -5.66119773737374  3.58577141604160
 1 -1.14172228372837 -5.84229350255025  2.73501745464546
 1  2.69673897799780 -1.65121695759576 -1.64743870887089
 1  2.86798427602760  0.09776405600560 -2.18474162636264
 1  4.29027993359336 -1.11070328552855  0.31333454945495
 1  4.10601956545655  1.26839554995500 -2.43661203090309
 1  5.57930334203420  2.06656691559156 -2.04996146434643
 1  5.54617192479248  0.78791989948995 -3.09623835483548
 1  6.55933799669967  1.73359735973597 -0.08492584978498
 1  6.35981010041004  0.32120408300830  0.73932364906491
 1  7.08248563326333 -1.21970120532053 -0.92224354795480
 1  7.73937637353735  0.27115032313231 -2.00066298989899
 1  8.96265831743174  0.80323820882088  0.35305293749375
 1  8.73575206390639 -0.82268777497750  0.94492235593559
 1  10.12474002540254 -0.07651511381138 -1.76029091859186
 1  8.84942992849285 -2.34135211171117 -1.55861178597860
 1  10.95528808450845 -2.52500928482848 -1.85963020692069
 1  9.94777766376638 -2.64164610661066 -0.27598703840384
 1  11.39702738363836  0.59740197039704  0.63224471197120
 1  11.17288034143414 -1.15464142544254  0.94516513811381
 1  12.83680699959996 -1.57254541574157 -1.19464713231323
 1  12.57727147964796  0.16761745274527 -1.61948530983098
 1  13.59764120082008  0.56724928092809  0.77694503750375
 1  13.78574132723272 -0.91686129082908  1.13793030953095
 1  15.39860314881488  0.38774825982598 -1.38935329332933
 1  15.74944238713871 -2.59981027312731 -0.00974242814281
 1  14.98211126182618 -2.25410778637864 -1.66934434953495
 1  16.60164979437944 -1.71272679757976 -1.35792726222622
 1  16.23614881558156  1.34865269896990  0.81687823212321
 1  16.38888333553355 -0.49091826692669  1.47758051925193
 1  17.95615655435543 -0.24778132553255 -0.36144948534853
 1  17.43096016051605  1.14316163506351 -1.12149572537254
 1  18.40265105770577  2.38355251295129  0.79534754005401
 1  18.67762492279228  0.87346152715272  1.54995499579958
 1  20.62659757245725  0.53990013821382  0.34959202320232
 1  19.60360446704670  3.05766932883288 -1.37955154855486
 1  21.01472572467247  2.27288394119412 -1.63989535283528
 1  19.33704760916092  1.68322013281328 -1.84291126012601
 1  20.87030300550055  1.79914802390239  2.23993361056106
 1  21.99202090839084  2.33780501020102  0.86998196449645
 1  20.37582731263126  3.42093217651765  1.23641408190819
=======
12 -7.13304387738774  0.60023877197720 -0.00691300390039
 6 -4.77594221222122 -1.93284446284628  0.43046957965797
 6 -4.81287121602160  2.83049149644964  1.13025939083908
 6 -9.41971670717072  3.05612110761076 -0.39396225592559
 6 -9.46331664536454 -1.76933244424442 -0.94993142224222
 7 -5.14077750235024  0.47400721882188  0.61470188848885
 6 -4.37975768186819 -0.68191801380138  0.84597262046205
 6 -2.93490249564957 -0.31691111681168  1.34008436263626
 6 -3.09711314971497  1.05857852615262  1.78435916661666
 6 -4.39735673057306  1.52729347814781  1.21142817271727
 6 -3.04433951605161  1.12438472657266  3.31820322922292
 6 -1.84117757875788 -0.61810707210721  0.12235619391939
 6 -0.48091551415142 -0.38950329752975  0.51956608590859
 6  0.50950208740874 -0.59756326922692 -0.63729911041104
 8  0.22624386448645 -0.94334974257426 -1.73840017171717
 8  1.71073288378838 -0.32114951135113 -0.10614740364036
 7 -7.14713516141614  2.63265885568557  0.48773746924692
 6 -6.04572385138514  3.32293326912691  0.81703523712371
 6 -6.42710996409641  4.74046833623362  0.85331601880188
 6 -7.67308001500150  4.91503213471347  0.33499189048905
 6 -8.16533080468047  3.48201739703970  0.13283582988299
 6 -5.52969092579258  5.89981244714471  1.18449320982098
 6 -8.51156895449545  6.03476451015102  0.11921890729073
 6 -8.60165405670567  7.11820793939394  0.94892114191419
 7 -9.11621389398940  0.65321818291829 -0.63754778847885
 6 -9.91645790549055  1.77946789988999 -0.64125044914491
 6 -11.13502259885989  1.44890322942294 -1.23961568106811
 6 -11.16647905180518  0.03078844294429 -1.33625233923392
 6 -9.90292597329733 -0.43105507980798 -1.02221723782378
 6 -12.28460728442844  2.40056062706271 -1.37379415421542
 6 -12.34348889518952 -0.82753016311631 -1.69822063056306
 6 -12.13955144354435 -1.27823023422342 -3.16590170877088
 7 -7.20149961826183 -1.35030464406441 -0.19794447144714
 6 -8.24542478227823 -2.25057022912291 -0.64366932213221
 6 -7.75375152075208 -3.56092435993599 -0.65288256555656
 6 -6.36250013411341 -3.49442377937794 -0.26240797269727
 6 -6.12096469286929 -2.11053933523352  0.00436324052405
 6 -8.49445691309131 -4.71077391979198 -0.99317779617962
 6 -5.25270974127413 -4.26687057055705  0.13981685428543
 8 -5.18427726562656 -5.48557304070407  0.13872090279028
 6 -4.08608218761876 -3.25974176397640  0.47704757005701
 6 -3.65157578847885 -3.62523774507451  1.92861323422342
 8 -3.85806740734073 -2.99358609480948  2.97390007110711
 8 -2.74056525022502 -4.69069379177918  1.92807138803880
 6 -2.17406799469947 -5.16757098619862  3.13950888638864
 6  2.68239075077508 -0.53267106170617 -1.19157035743574
 6  4.07780986998700 -0.40097827412741 -0.57346749574958
 6  5.14300778517852  0.28639490489049 -0.94548432113211
 6  5.17981640464046  0.95816846614661 -2.23960812611261
 6  6.41087542034203  0.30683253345335 -0.09573605880588
 6  7.55682322022202 -0.28072841974197 -0.75064201470147
 6  8.84256612921292 -0.24582971337134 -0.05473728652865
 6  10.17750837533753 -0.67233430513051 -0.81863283378338
 6  10.00567726792679 -2.17965890199020 -1.24971843684368
 6  11.33947682458246 -0.34023780458046  0.05442631123112
 6  12.75282018971897 -0.53139719081908 -0.59985000790079
 6  13.95015448384838 -0.20702190499050  0.27664473197320
 6  15.36530265516552 -0.29694342344234 -0.45440368016802
 6  15.68365003390339 -1.61357899169917 -0.87739735743574
 6  16.43006711261126  0.36729108910891  0.42909741694169
 6  17.78504309370937  0.66888828722872 -0.19124493909391
 6  18.82575294479448  1.36199441644164  0.68572900590059
 6  20.22317098629863  1.43938427192719  0.11961672487249
 6  20.31058241204120  2.01444974217422 -1.33239423212321
 6  21.35329626042605  2.12457539383938  1.04730009340934
 1 -3.85383686818682  3.45149067046705  1.40177476437644
 1 -10.09800019271927  3.82530336533653 -0.51938733023302
 1 -10.12274556395640 -2.56006534733473 -1.58751540374037
 1 -2.74178063496350 -1.21994030793079  1.97128781998200
 1 -2.31151475667567  1.77004058665867  1.50473112351235
 1 -2.06086054355436  0.96198665156516  3.82761647514751
 1 -3.56344140414041  2.03637769526953  3.64644681008101
 1 -3.73082652535254  0.49626431043104  3.79206161896190
 1 -2.01699418431843 -1.67629759015902 -0.25610952015202
 1 -2.02581425392539 -0.17806055565557 -0.76967700730073
 1 -0.30571408880888  0.81366598049805  0.90781118021802
 1 -0.06473427542754 -0.93216773197320  1.44357831303130
 1 -5.76871564696470  6.83109175327533  0.47255296449645
 1 -5.69764675407541  6.32464582768277  2.15413171027103
 1 -4.41686564256426  5.83060422682268  0.93855703130313
 1 -9.24351640414041  5.92387853595359 -0.60697092529253
 1 -9.19364057995799  7.90685142404240  0.58723834563456
 1 -8.00757022282228  7.31158755825583  1.80772915841584
 1 -12.09361346644665  2.86842716871687 -1.99401240594059
 1 -13.49114878407841  2.04307819901990 -1.53715490699070
 1 -12.31417314841484  3.05743439813981 -0.68742998699870
 1 -12.38976375477548 -1.62467191229123 -1.14868982388239
 1 -13.30684940384038 -0.11207794459446 -1.59704523202320
 1 -13.05994234683468 -1.79457414361436 -3.49371925642564
 1 -12.05365893009301 -0.31344588218822 -3.81692518821882
 1 -11.21413769306931 -1.82701756885689 -3.33796241624162
 1 -9.12562216521652 -4.92440318321832 -2.01173443754375
 1 -7.91264062886289 -5.52130213441344 -0.74999461246125
 1 -9.38827871277128 -5.00986600790079 -0.26510833343334
 1 -3.25039573547355 -3.38729197989799 -0.05563083458346
 1 -1.28699686618662 -4.40731717141714  3.45382829812981
 1 -3.14886449504950 -5.20990260786079  4.00900373927393
 1 -1.77882599409941 -6.14891416461646  2.98758271117112
 1  2.47407671177118 -1.47547938383838 -1.61147511251125
 1  2.46115359295930  0.35793007260726 -1.92349550175017
 1  4.17389829542954 -1.09765198039804  0.28010122612261
 1  4.21361032453245  0.94663337373737 -2.90860923062306
 1  5.53758917061706  2.07697795669567 -1.99900636883688
 1  6.03163047064706  0.56517762526253 -2.96397512851285
 1  6.72208427132713  1.41823582358236  0.08041068386839
 1  6.13236735613561 -0.21144918231823  0.86022573927393
 1  7.08420580528053 -1.20222945814581 -1.16409773337334
 1  7.88989142504250  0.13414662276228 -1.81188411201120
 1  9.04499655125512  0.94123200820082  0.48021565376538
 1  8.81669015771577 -1.00259576577658  0.69453731743174
 1  10.20811836323632 -0.09083654595460 -1.73612850235024
 1  9.24530951645164 -2.02287026352635 -2.11966789158916
 1  10.87746030173017 -2.58528531243124 -1.75130937483748
 1  9.65463834983498 -2.75214715671567 -0.37933737343734
 1  11.31516919781978  0.80676290649065  0.35516700420042
 1  11.40643369676968 -0.94084004530453  1.13446406800680
 1  12.92850616951695 -1.52959112031203 -0.99452712031203
 1  12.85765951845184  0.02214290529053 -1.44398776007601
 1  13.91964340104010  0.84589714571457  0.65116245924592
 1  14.17663041614161 -1.04241384608461  1.09014553105311
 1  15.26083937243724  0.38065755075508 -1.30763512151215
 1  15.87842528542854 -2.37892818491849 -0.00073152705270
 1  15.14472752345235 -2.24723709930993 -1.75045246034603
 1  16.64550417981798 -1.55553107800780 -1.44129559905991
 1  15.86682188288829  1.47875570927093  0.92316886118612
 1  16.39030347754775 -0.16249542464246  1.33597635883588
 1  18.11484242294230 -0.24271081848185 -0.27361070147015
 1  17.62111917641764  1.16994431333133 -1.28795237103710
 1  18.41516230883088  2.41981613931393  0.72374037933793
 1  18.90920808110811  1.06571075207521  1.72792279257926
 1  20.80757567026703  0.45980212841284  0.00036710071007
 1  20.18866297289729  3.08999256115611 -1.06132972637264
 1  21.29319357145715  1.97423407620762 -1.81876323962396
 1  19.73093699809981  1.70036184698470 -1.95254222322232
 1  21.37038301350135  1.66719482858286  1.99187880508051
 1  22.48413011931193  2.09628085778578  0.55186015231523
 1  21.33071280118012  3.20641072437244  1.43570401090109
>>>>>>> 8e03b5b5abfc0030b3aa597dc0de36371bfbd096

