%nproc=4
%Mem=2GB
# td=(NStates=1) CAM-B3LYP/6-31G(d,p) 

TD

0 1
12 -7.15585615861586  0.62560130823082  0.16558424582458
 6 -4.83665828382838 -1.98204938333833  0.52546907960796
 6 -4.84934486338634  2.74958340564056  1.29575594049405
 6 -9.28168290379038  3.14428992449245 -0.50581344104410
 6 -9.54685499919992 -1.70223573457346 -0.82574900400040
 7 -5.07992141674167  0.37998781688169  0.70796121442144
 6 -4.32647235333533 -0.77442726472647  0.85865388858886
 6 -2.91099010441044 -0.41880130583058  1.22792314651465
 6 -3.00446388478848  1.00675334363436  1.67438816951695
 6 -4.38230522542254  1.46559730853085  1.22677970787079
 6 -2.79537461956196  1.27003929202920  3.25013642254225
 6 -1.91143460446045 -0.61298656005601  0.08111206950695
 6 -0.56245366796680 -0.45455980318032  0.59308343764376
 6  0.47876901410141 -0.68920243314331 -0.56372175267527
 8  0.23955519561956 -0.99715512311231 -1.64943127482748
 8  1.76137794829483 -0.52476987338734 -0.05807259615962
 7 -7.04093454135414  2.62939852965297  0.30651934743474
 6 -5.97652693169317  3.35455643144314  0.80457399099910
 6 -6.30893814691469  4.74125841524152  0.83803449064906
 6 -7.54987769476948  4.83103373487349  0.32509090039004
 6 -8.03643791539154  3.53918311361136  0.03534608090809
 6 -5.41028898559856  5.84927739363936  1.13076783728373
 6 -8.47735553315331  6.10451148484849  0.06515350075007
 6 -8.41498538983898  7.18737485608561  0.72500875067507
 7 -9.14629690229023  0.67956081718172 -0.52583661736174
 6 -9.88627488718872  1.79867982108211 -0.74826115021502
 6 -11.19147824442444  1.49193753285329 -1.32182390189019
 6 -11.20249265316532  0.18667403150315 -1.40065877987799
 6 -9.93342902360236 -0.36242821712171 -0.98147316341634
 6 -12.27253607730773  2.44711528252825 -1.36833360816082
 6 -12.39901444774477 -0.70436784688469 -1.75491630013001
 6 -12.47236472487249 -1.12627503870387 -3.25232035063506
 7 -7.30557002530253 -1.37132674627463 -0.19219389638964
 6 -8.34615485528553 -2.25414058615862 -0.47160211541154
 6 -7.92200834643464 -3.65933420092009 -0.44961223852385
 6 -6.52339622372237 -3.52324666166617 -0.10217194909491
 6 -6.23004560096010 -2.13564184548455  0.11019382358236
 6 -8.68577604500450 -4.75668851125113 -0.82375085348535
 6 -5.38305277557756 -4.37601148464846  0.20637350995100
 8 -5.16260509840984 -5.60270475387539  0.23666069676968
 6 -4.22803638303830 -3.29462525232523  0.62178204350435
 6 -3.53634426532653 -3.68910413171317  1.82986335923592
 8 -3.80169176977698 -3.06090282648265  2.89257193829383
 8 -2.77198839253925 -4.78820354275428  1.71063964486449
 6 -2.04500508840884 -5.23084731383138  2.91668660416042
 6  2.81984449614961 -0.81012880748075 -1.13251445184518
 6  4.14542663166317 -0.58209638593859 -0.50572072107211
 6  5.07928141254125  0.18923518891889 -1.09174894759476
 6  5.04801322432243  0.95001765106511 -2.38692285758576
 6  6.36528086088609  0.40166201640164 -0.22569905510551
 6  7.66540407830783 -0.15074542144214 -0.85232218271827
 6  8.92630450305031 -0.11396652705271 -0.06664847764776
 6  10.16143676817682 -0.55846291799180 -0.79414038453845
 6  10.06472317251725 -1.95326626272627 -1.40202366736674
 6  11.38741161806181 -0.22763654445445  0.00327119571957
 6  12.73979888758876 -0.43237728882888 -0.68380840374037
 6  13.94664413281328 -0.14424562736274  0.32061912941294
 6  15.28694481938194 -0.09854358345835 -0.35031327112711
 6  15.62993466236624 -1.57596523032303 -0.78608822652265
 6  16.43664777067707  0.53291765176518  0.49646415361536
 6  17.78440302970297  0.46228762716272 -0.16604241884188
 6  18.89977034653466  1.23168138513851  0.70757119011901
 6  20.22644131333133  1.44687502100210  0.01978674187419
 6  20.22761411521152  2.52842113931393 -1.09403039573957
 6  21.26395732653265  1.88198113441344  1.11670703410341
 1 -3.96006749124912  3.43456897829783  1.62430701760176
 1 -9.88723911661166  4.04453528852885 -0.71064645614562
 1 -10.23695698509851 -2.49775911671167 -1.15551220342034
 1 -2.50348680558056 -1.23149146304630  2.08365905710571
 1 -2.29750335553555  1.62870645324532  0.95044569496950
 1 -1.68257271477148  0.99576002890289  3.27887160066007
 1 -2.84082914291429  2.42674673217322  3.28690085548555
 1 -3.36197964066407  0.62480716471647  3.70685309810981
 1 -2.05127761266127 -1.54810477087709 -0.46619052825282
 1 -2.12260393289329  0.05123237363736 -0.59932997259726
 1 -0.27214073147315  0.42927754165417  1.02941334043404
 1 -0.40965876787679 -1.09948446364636  1.39888384358436
 1 -5.63449222462246  6.66011465556556  0.53381909110911
 1 -5.39908689808981  6.05900926402640  2.29387568466847
 1 -4.46216017201720  5.72092325872587  0.87568074367437
 1 -9.19358141064106  6.08634478257826 -0.68296852505251
 1 -9.11458267416742  8.05654639353935  0.48657827962796
 1 -7.76811627742774  7.38181458095810  1.59719810531053
 1 -12.05817992309231  3.71607193319332 -1.86801980668067
 1 -13.29986965616562  2.10183407460746 -1.80714190569057
 1 -12.68900063116312  2.89433808850885 -0.37052829682968
 1 -12.30958573697370 -1.70659010411041 -1.21912686758676
 1 -13.60949966886689 -0.33683041984198 -1.51638716621662
 1 -13.33629998259826 -1.63974866106611 -3.47793767826783
 1 -12.45110867506751 -0.17383192079208 -3.85708920462046
 1 -11.52844912421242 -1.78186305340534 -3.74582320232023
 1 -8.81935153815382 -4.93185392829283 -1.86779004310431
 1 -8.02242160696070 -5.40834083828383 -0.75583519651965
 1 -9.51049093399340 -4.66292131343134 -0.07051887448745
 1 -3.39540023592359 -3.54819807050705 -0.31018629012901
 1 -1.31446961346135 -4.53855029472947  3.04378729402940
 1 -2.86615622422242 -5.45065668326833  3.69872271117112
 1 -1.86446455795580 -6.28559783298330  2.49463341624162
 1  2.31440074417442 -1.71834367026703 -1.56157012201220
 1  2.44319179677968 -0.01088680908091 -1.98173132533253
 1  4.14684559015902 -0.96133834903490  0.66937015301530
 1  4.10204916841684  1.00088879927993 -2.98003637333733
 1  5.49582499419942  1.78351861076108 -2.11783825202520
 1  5.70603791139114  0.63605471297130 -3.07434616561656
 1  6.60895295819582  1.55561956195620 -0.10036739393939
 1  6.46379049844985 -0.01781981938194  0.78066778347835
 1  7.42176956165617 -1.27523675887589 -1.22251357495750
 1  7.95491792769277  0.20489369746975 -1.88442136573657
 1  9.10985303690369  0.90273815881588  0.45543317551755
 1  8.88616710541054 -0.92287779397940  0.70015787948795
 1  10.38156570797080  0.05450798849885 -1.69479436893689
 1  9.13302828832883 -1.96875485198520 -2.04398032283228
 1  10.97350990669067 -2.14318110201020 -2.07637188108811
 1  10.01418430443044 -2.78837077907791 -0.78551799149915
 1  11.32193987488749  0.74951718191819  0.38669015651565
 1  11.35084813821382 -1.07389335063506  0.93090371197120
 1  12.97312063096310 -1.62201036223622 -0.75256292389239
 1  12.62572632513251  0.13718440944094 -1.63817717901790
 1  13.77156859355935  0.80664322032203  0.71467881088109
 1  13.95399815291529 -0.81125072977298  1.22713923042304
 1  15.30733402190219  0.47535702070207 -1.36265062306231
 1  16.08197564046405 -2.36414670677068 -0.19846130003000
 1  14.83794684538454 -2.17551992759276 -1.29351676677668
 1  16.49950958035804 -1.46251177607761 -1.65986745624562
 1  16.12873807450745  1.63027086078608  0.57788433273327
 1  16.42648709590959  0.26184700960096  1.59041180238024
 1  18.28091903060306 -0.54402094949495 -0.39913325372537
 1  17.57291435593559  0.91443876277628 -1.03832740854085
 1  18.30116090869087  2.14858901660166  0.95359336463646
 1  18.90413757405741  0.70169435043504  1.80735073537354
 1  20.53713862656265  0.55975212341234 -0.43643657965797
 1  20.15512961956195  3.58162172407241 -0.59585317871787
 1  21.18566281838184  2.54317096989699 -1.53899526282628
 1  19.51203510791079  2.21842365316532 -1.84057102610261
 1  20.85144111931193  1.12244035313531  1.86638625582558
 1  22.33695540184018  1.58281951165116  1.26466143244324
 1  21.26350608050805  3.04783486678668  1.33698413891389

