%nproc=4
%Mem=2GB
# td=(NStates=1) CAM-B3LYP/6-31G(d,p) 

TD

0 1
12 -7.16438701170117  0.54273302140214  0.11323901130113
 6 -4.83870848884888 -1.96897807620762  0.48338487118712
 6 -4.88039796869687  2.81995044234423  1.18748511341134
 6 -9.49162389788979  3.17203269876988 -0.47680053975398
 6 -9.56181649534954 -1.69326483748375 -0.83426985608561
 7 -5.10650407500750  0.42130194829483  0.76459687798780
 6 -4.31951165726573 -0.73474329632963  0.81190921412141
 6 -2.82992199759976 -0.38286771247125  1.23959431363136
 6 -3.03508694709471  1.07197986628663  1.64157488818882
 6 -4.44602159705971  1.52730347914791  1.23470049995000
 6 -2.85827090919092  1.19793208130813  3.18185959485949
 6 -1.86762022302230 -0.59846510791079  0.03500745904590
 6 -0.47402482508251 -0.50174452165217  0.44578870817082
 6  0.45492662986299 -0.72015552845285 -0.71657703820382
 8  0.18633987408741 -1.04820022762276 -1.86603293499350
 8  1.75494730523052 -0.43662105850585 -0.32368915781578
 7 -7.19817026492649  2.59297488728873  0.33841253675368
 6 -6.13756303530353  3.32643361916192  0.83472700630063
 6 -6.43238049114911  4.74404869426943  0.73272395959596
 6 -7.70035274227423  4.81468209970997  0.27500589188919
 6 -8.22019629122912  3.50939013431343  0.00240278657866
 6 -5.49300725742574  5.80809327522752  1.16657141764176
 6 -8.56476427402740  6.01898293199320  0.17437442284228
 6 -8.52231612291229  7.18182430103010  0.80309655945595
 7 -9.05512778537854  0.79077193829383 -0.61971600530053
 6 -9.84455071477148  1.83822377547755 -0.73660998509851
 6 -11.19904900150015  1.47787612671267 -1.11980369986999
 6 -11.31489389328933  0.16356172027203 -1.16031474547455
 6 -9.97922360306030 -0.34814678897890 -0.80398541464146
 6 -12.33651247494749  2.42915348634863 -1.29780655545555
 6 -12.41120566686669 -0.71514892499250 -1.64551536003600
 6 -12.30719820822082 -1.11206361756176 -3.12540765936594
 7 -7.26421588988899 -1.37671728532853 -0.17404208120812
 6 -8.21956219601960 -2.22140731283128 -0.51279623482348
 6 -7.82210835643564 -3.58099636713671 -0.47056433373337
 6 -6.48961284538454 -3.53949828682868 -0.06498823072307
 6 -6.21752434883488 -2.22494077537754  0.03971677587759
 6 -8.68804627202720 -4.81032387478748 -0.85780425882588
 6 -5.30572504280428 -4.30844472797280  0.13563643624362
 8 -5.15622446034603 -5.54918940234023  0.15358238893889
 6 -4.10748432783278 -3.24707049684968  0.56434629992999
 6 -3.57097772867287 -3.64070929222922  1.97228760166017
 8 -3.92523412401240 -3.07878461466147  3.05864854595460
 8 -2.70620181388139 -4.73491821422142  1.84556313721372
 6 -2.07965855375538 -5.17368159725973  3.03583851935194
 6  2.84936744844484 -0.58623641824182 -1.29991119151915
 6  4.19760184918492 -0.37980615691569 -0.66201635063506
 6  5.15158864326433  0.33662992839284 -1.09935970867087
 6  5.25242366536654  1.13718636793679 -2.32723688898890
 6  6.56601093389339  0.23181503170317 -0.20530701590159
 6  7.66105364326433 -0.22283263016302 -1.02819977047705
 6  8.97876974957496 -0.26405153555356 -0.15575738853885
 6  10.21359198369837 -0.65895296699670 -0.86244721522152
 6  10.27239393959396 -2.13427436353635 -1.31472493749375
 6  11.54057693459346 -0.37236101690169 -0.03323245464546
 6  12.82734764246425 -0.46545059615962 -0.68708873177318
 6  13.90744021242124 -0.14756595939594  0.28539560706071
 6  15.31414753965396 -0.16636036513651 -0.52023026282628
 6  15.73932560146015 -1.57603523732373 -0.79018863656366
 6  16.34413851975198  0.47005136513651  0.50332483968397
 6  17.69229381878188  0.57899929832983 -0.11472728732873
 6  18.74780515001500  1.52686090309031  0.70155058805881
 6  20.14555322452245  1.36434676817682  0.28123288648865
 6  20.35609696349635  2.07096539373937 -1.05981697439744
 6  21.24230516131613  1.99207214351435  1.35901126452645
 1 -4.26290777527753  3.60093561496150  1.51194578147815
 1 -9.98751914461446  4.08046888188819 -0.83549894139414
 1 -10.28888217761776 -2.43512285308531 -1.12371902410241
 1 -2.65919237613761 -0.99687800170017  2.01937262846285
 1 -2.26512011721172  1.73852743534353  1.34003465386539
 1 -2.00963542104210  0.88656910981098  3.61879559305931
 1 -2.96590165016502  2.14818887638764  3.45633779917992
 1 -3.83264670737074  0.53546823082308  3.27606001880188
 1 -2.18673115801580 -1.55877583798380 -0.60283419261926
 1 -2.16947862036204  0.12329958035804 -0.76319635923592
 1 -0.22450596799680  0.39950456435644  0.87234763386339
 1 -0.13668147014701 -1.14966948214822  1.31599555475548
 1 -5.83515229062906  6.74816346044604  0.82347805700570
 1 -5.51796878627863  5.99904326742674  2.33431972907291
 1 -4.52339629562956  5.69168033443344  0.65995917151715
 1 -9.11852390489049  5.96003215131513 -0.43896412461246
 1 -9.40992220812081  7.79767050595060  0.52514213601360
 1 -7.94218368416842  7.20166656615662  1.58604699019902
 1 -12.12269637473747  3.22296262226223 -2.09283228792879
 1 -13.19233890309031  1.83480737193719 -1.52840403190319
 1 -12.70394212531253  3.04486314101410 -0.26181742574257
 1 -12.40389516791679 -1.61574101920192 -1.08550350525052
 1 -13.42949166806681 -0.26796353315332 -1.60779630713071
 1 -13.21553790639064 -1.62786747294729 -3.48835872037204
 1 -12.02809637383738 -0.09445398299830 -3.64045754145415
 1 -11.40743702300230 -1.89456432353235 -3.20884950495050
 1 -8.98416801980198 -4.75447619051905 -1.91982524662466
 1 -8.04198356315631 -5.62402240644064 -1.05317493049305
 1 -9.50937082198220 -5.20530555185519 -0.01666348894889
 1 -3.41327202310231 -3.18595184588459 -0.26568183968397
 1 -1.62952111861186 -4.40170661036104  3.70301321662166
 1 -2.78384799339934 -5.82395401300130  3.75861870077008
 1 -1.19711782328233 -5.84773404660466  2.75055900880088
 1  2.66352565666567 -1.59092092799280 -1.52108607360736
 1  2.60522800040004  0.07296157575758 -1.97736088828883
 1  4.10212111771177 -0.94777699289929  0.29512272827283
 1  4.32484144764476  1.41180989138914 -2.75495386508651
 1  5.49985539723972  2.14691495039504 -2.17766423462346
 1  5.83233054065407  0.76932804030403 -3.31492022302230
 1  6.74264632753275  1.21928592859286  0.13122576537654
 1  6.35904002340234 -0.65308334573457  0.55764548124813
 1  7.49481686638664 -1.27835707090709 -1.27502882648265
 1  7.87110954685469  0.31114432253225 -1.87171009460946
 1  9.18252030363036  0.83752163716372  0.28393602580258
 1  8.89655814451445 -0.84297980418042  0.69493735743574
 1  10.37503505490549  0.01687422512251 -1.84237912741274
 1  9.51232621812181 -2.47654563106311 -2.00191611641164
 1  11.28076063176318 -2.50077686158616 -1.61959620352035
 1  9.99072195819582 -2.72630457245725 -0.35907534723472
 1  11.51952963386339  0.57939016921692  0.58221970947095
 1  11.40742379577958 -1.05796175747575  0.84368499009901
 1  13.06684000290029 -1.56470463166317 -1.12464013161316
 1  12.70868462096210  0.17774846584659 -1.58541190249025
 1  13.88006944364436  0.84333688968897  0.80715805880588
 1  14.16997975107511 -0.88447805250525  1.19297581408141
 1  15.22885617411741  0.58815830083008 -1.33654801280128
 1  15.82896033893389 -2.31415170727073  0.01436998309831
 1  15.00896394709471 -1.96083845944594 -1.50851826692669
 1  16.72956258565857 -1.57194271917192 -1.41899336883688
 1  15.82321752245224  1.62418025172517  0.75364190849085
 1  16.38316276347635 -0.03807298239824  1.63215597679768
 1  18.16795773447345 -0.39317586498650 -0.35561890229023
 1  17.57193425792579  1.05770308920892 -1.12020559635964
 1  18.44149494209421  2.67521167886789  0.54726273157316
 1  18.72731989228923  1.08714289528953  1.76259625992599
 1  20.40561547424743  0.37640378857886  0.17965502950295
 1  19.99262336893689  3.04863842574257 -0.84027762116212
 1  21.41058531063106  2.01087774057406 -1.62760412371237
 1  19.66547045144515  1.30842265306531 -1.77324429342934
 1  20.97152312751275  1.47165527462746  2.23071268846885
 1  22.25306701300130  2.05689691939194  1.09713467976798
 1  21.08587831773178  3.09765984928493  1.49335977647765

