%nproc=4
%Mem=2GB
# td=(NStates=1) CAM-B3LYP/6-31G(d,p) 

TD

0 1
12 -7.09788036103610  0.61968071617162  0.02320000740074
 6 -4.86393101110111 -1.93259443784378  0.56352288498850
 6 -4.88291822072207  2.78885733303330  1.19201556645665
 6 -9.36055079057906  2.99330482598260 -0.45741860156016
 6 -9.54634494819482 -1.72642815381538 -0.94402083118312
 7 -5.10498392299230  0.46293611171117  0.68560897919792
 6 -4.39812951905191 -0.61912173417342  0.85853387658766
 6 -2.98967797319732 -0.35986541224122  1.29477983218322
 6 -3.02194563296330  1.10107277557756  1.67686841754175
 6 -4.35464245914591  1.51793254205421  1.15015204510451
 6 -2.75217029912991  1.24417670577058  3.14910631953195
 6 -1.93042650365036 -0.74249951135114  0.13460741904190
 6 -0.51715913851385 -0.47639198639864  0.58964309360936
 6  0.49579071627163 -0.80755426832683 -0.44871025152515
 8  0.38629987008701 -1.18414382198220 -1.61644797649765
 8  1.77349916041604 -0.60473787018702  0.01746495759576
 7 -7.06817726562656  2.61537712751275  0.28691738723872
 6 -6.04582386138614  3.40695167096710  0.75397893149315
 6 -6.39563681678168  4.80952524192419  0.82044273147315
 6 -7.75290799779978  4.90559119061906  0.25176356765677
 6 -8.15893016461646  3.48627782308231 -0.01300875457546
 6 -5.48542649934994  5.90860332623262  1.18260302080208
 6 -8.62531032863286  6.12580361406141  0.18013499889989
 6 -8.41739563086309  7.22204832343234  0.87965421522152
 7 -9.08480075267527  0.63085594669467 -0.58575260896090
 6 -9.82031829152915  1.76846679977998 -0.70331665576558
 6 -11.21685078167817  1.42489082818282 -1.19938165766577
 6 -11.25475787968797  0.17681304540454 -1.27643635763576
 6 -9.94509018971897 -0.44128610291029 -0.96864188028803
 6 -12.27736656035604  2.44305487648765 -1.52693946874687
 6 -12.36386093239324 -0.85026243634363 -1.69726053455346
 6 -12.46513400180018 -1.13607601880188 -3.22877799639964
 7 -7.24613408170817 -1.37760737433743 -0.18548322532253
 6 -8.30663090289029 -2.25838101020102 -0.63152810801080
 6 -7.81987813341334 -3.58715698319832 -0.50222750005001
 6 -6.54951883598360 -3.52322665966597 -0.11687341924192
 6 -6.19900249664966 -2.14134241554155  0.15516832103210
 6 -8.58640610801080 -4.74298714111411 -0.86637511591159
 6 -5.35785025532553 -4.41432531603160  0.13880675327533
 8 -5.18116695459546 -5.57129161256126  0.08090512121212
 6 -4.24277785718572 -3.35905169496950  0.60309017431743
 6 -3.60077070797080 -3.66832205350535  1.90181055395540
 8 -3.89942154275428 -3.09226596279628  2.94132681378138
 8 -2.78412960666067 -4.62052677507751  1.75743432433243
 6 -2.19620020792079 -5.05992022112211  3.02547748324832
 6  2.88366087778778 -0.74128192279228 -0.95550675107511
 6  4.21150323932393 -0.42816099239924 -0.43155330433043
 6  5.19089257365737  0.30777704310431 -0.83136290899090
 6  4.95561398439844  1.13400604990499 -2.17149131443144
 6  6.47509184198420  0.40556240644064 -0.19954643984398
 6  7.69589712761276 -0.12126247314731 -1.03038998949895
 6  8.96038791139114 -0.13557868826883 -0.18833064586459
 6  10.14737536203620 -0.61685875757576 -0.85096606710671
 6  10.08086478667867 -2.04384532063206 -1.20932439743974
 6  11.46469934683468 -0.32293607440744  0.00939180778078
 6  12.85965087278728 -0.38285233633363 -0.75761578447845
 6  14.00294976337634 -0.13121432423242  0.15423249074907
 6  15.37235336023602 -0.16171990109011 -0.60739897969797
 6  15.75557722662266 -1.58181581538154 -1.18596821452145
 6  16.48047215311531  0.33324768476848  0.40973548074807
 6  17.78266285568557  0.70028142654265 -0.32602841744174
 6  18.72871324082408  1.17418563556356  0.69453988698870
 6  20.26727539673967  1.35183551705171  0.23420818401840
 6  20.39258061186119  2.24578287548755 -1.01124211691169
 6  21.03430436123612  1.97437037333733  1.28201356475648
 1 -4.10392187668767  3.37818333973397  1.68559314621462
 1 -10.26927732043204  3.76823765876588 -0.75897128862886
 1 -10.23943723312331 -2.60609995079508 -1.07463411561156
 1 -2.75093155005501 -0.93695200910091  2.12801349254925
 1 -2.26593019821982  1.76091967456746  1.11472212261226
 1 -1.55811026852685  1.12833328622862  3.36086980048005
 1 -3.12371743174317  2.34540859835984  3.33552571797180
 1 -3.34446788948895  0.51634631863186  3.65910832363236
 1 -2.04585707060706 -1.77470743114311 -0.07900180938094
 1 -2.27622929542954 -0.28729147874787 -0.85597563716372
 1 -0.32989650705070  0.41692630653065  0.76046644574457
 1 -0.27996579857986 -1.16195071027103  1.48973292849285
 1 -5.57760653605361  6.88375701980198  0.74225993519352
 1 -5.32630962036204  6.15126848994899  2.27188348544854
 1 -4.37595155115512  5.61409257565757  0.89921309690969
 1 -9.58002005450545  5.93539968806881 -0.27723795199520
 1 -9.18116933283328  7.83345408430843  0.50668028982898
 1 -7.71715118091809  7.35863226272627  1.62000038553855
 1 -11.96423052815282  3.09003932993299 -2.22888589328933
 1 -13.16207587678768  1.94478837003700 -2.00695188668867
 1 -12.88751048214822  3.11535018971897 -0.68884012801280
 1 -12.39691446984699 -1.67524696979698 -0.97038199309931
 1 -13.44299301820182 -0.39992672947295 -1.25533106060606
 1 -13.42724907750775 -1.84107879407941 -3.48654853935393
 1 -12.55886945114512 -0.10926546414641 -3.69113260896090
 1 -11.51535781508151 -1.50698556565657 -3.60234885488549
 1 -9.35345494849485 -4.54219496239624 -1.91577484158416
 1 -8.00900026482648 -5.64800480468047 -0.69211882488249
 1 -9.20801068596860 -4.77045206650665 -0.24389621222122
 1 -3.49691038693869 -3.50998424912491 -0.32194746624662
 1 -1.68000616711671 -4.30039647934793  3.46826974227423
 1 -3.15664527312731 -5.31966358395840  3.74722756165617
 1 -1.56974508600860 -5.93932320552055  2.79045299819982
 1  2.78917822192219 -1.73898573447345 -1.06700066506651
 1  2.52291976957696 -0.15549126952695 -1.90258341054105
 1  4.53611451705170 -1.02854506970697  0.42104532053205
 1  3.92021098459846  1.30932964336434 -2.44283265296530
 1  5.36308171987199  2.13627388628863 -2.00100656885689
 1  5.73765107270727  0.74664577207721 -2.93338206920692
 1  6.75973803670367  1.46548054805481 -0.20416777397740
 1  6.56252037143714  0.08932089468947  0.84596431313131
 1  7.33368075277528 -1.14984421962196 -1.24010533413341
 1  7.86519895579558  0.48093130123012 -1.77896081968197
 1  9.18351040264026  0.91932981798180  0.22000963316332
 1  8.75056354505451 -0.79285479167917  0.75732359605961
 1  10.44113166456646  0.05757829552955 -1.72491738123812
 1  9.12324731023102 -2.34863283978398 -1.83315924072407
 1  10.90072262796280 -2.37050383428343 -1.67997224112411
 1  10.05240812681268 -2.64603654565457 -0.30114955465546
 1  11.41148882978298  0.74497672787279  0.46225771327133
 1  11.57500055345535 -0.92042800410041  0.86876749834984
 1  13.03328664756476 -1.36355451665166 -1.37830549814981
 1  12.71220497299730  0.36127681868187 -1.65025838713871
 1  13.83583502020202  0.77620017601760  0.52886022902290
 1  14.02504525762576 -0.68769837453745  0.96994351085108
 1  15.22316560506051  0.60744022902290 -1.43353771177118
 1  16.07633507640764 -2.28809910201020 -0.22947440134013
 1  15.13046609730973 -2.01065344094409 -1.89018643374337
 1  16.74882451185119 -1.30241576647665 -1.75404687418742
 1  16.10330553125312  1.24005183888389  1.01568811311131
 1  16.67025147234724 -0.45719489458946  1.23913667486749
 1  18.37927886658666 -0.13292984038404 -0.68731207160716
 1  17.59797686218622  1.46153347224723 -1.06269984578458
 1  18.46435722832283  2.26164032173217  1.26187419271927
 1  18.62172933323333  0.58695287628763  1.43480348064806
 1  20.69163407610761  0.27910405860586  0.19813687768777
 1  19.91383549014901  3.08664222612261 -0.75989958335834
 1  21.40970522262226  2.50860751355135 -1.18794015731573
 1  19.91397530193019  1.77973978477848 -2.00019698869887
 1  21.04023999919992  1.37911602070207  2.18971858905891
 1  22.18805051135113  1.94228545824582  0.93479844614461
 1  20.82332206210621  3.06422650595060  1.66525696619662

