%nproc=4
%Mem=2GB
# td=(NStates=1) CAM-B3LYP/6-31G(d,p) 

TD

0 1
12 -7.11921249424942  0.52899164726473  0.16662434983498
 6 -4.83092771077108 -1.88090926932693  0.62128866156616
 6 -4.75579550845085  2.85392383968397  1.12729909480948
 6 -9.40999573507351  3.08563405890589 -0.31801466116612
 6 -9.47884819851985 -1.71037654865487 -0.96054248334833
 7 -5.01804522912291  0.51109092719272  0.66232665096510
 6 -4.29274898099810 -0.64054387638764  0.83542156535654
 6 -2.93004200960096 -0.23073249894989  1.23155350955096
 6 -2.99075251365137  1.17270993929393  1.72155288598860
 6 -4.30171716661666  1.57961871067107  1.11876890679068
 6 -2.99299438153815  1.24888717681768  3.22726413531353
 6 -1.94585804680468 -0.61403666506651  0.15316927522752
 6 -0.48072549514951 -0.51745609280928  0.54881901120112
 6  0.46213735093509 -0.69471298419842 -0.65446082658266
 8  0.15521676177618 -1.04505991359136 -1.75179151085109
 8  1.73291510201020 -0.40429782618262 -0.19979676857686
 7 -7.06549699759976  2.61431702150215  0.31736043154315
 6 -6.03054233323332  3.37545852165217  0.69886341994199
 6 -6.39995724882488  4.72564685408541  0.83318400560056
 6 -7.66842954995500  4.90771140264026  0.32715110641064
 6 -8.13416768836884  3.49380857615762  0.05769831613161
 6 -5.28714667136714  5.86761922782278  1.24434919541954
 6 -8.56979477707771  6.03263429712971  0.18659564496450
 6 -8.39348323962396  7.20553667226723  0.82118836863686
 7 -9.06156842944294  0.59875273637364 -0.51868590229023
 6 -9.84098035773577  1.73326327942794 -0.66238256235624
 6 -11.18735783238324  1.44150248934893 -1.19363108260826
 6 -11.21080348424842  0.08138350245024 -1.27917663166317
 6 -9.93631931263126 -0.42657463176318 -0.96140115621562
 6 -12.29940876457646  2.36261683268327 -1.51899867466747
 6 -12.34319886618662 -0.74503191329133 -1.81605241374137
 6 -12.42643013141314 -1.05307771897190 -3.31686680528053
 7 -7.22161162946295 -1.46665627922792 -0.10802547954795
 6 -8.20105034483448 -2.18895406750675 -0.49837479267927
 6 -7.76172231783178 -3.61808007550755 -0.56252352965297
 6 -6.44588847294729 -3.58080241724172 -0.14085581748175
 6 -6.14954755115512 -2.20508879017902  0.18250105430543
 6 -8.55098256565656 -4.82020486288629 -0.84925340374037
 6 -5.30568503880388 -4.34045792929293  0.18690156275628
 8 -5.05489432733273 -5.55743022642264  0.10655768646865
 6 -4.19527310671067 -3.31178696849685  0.62841270657066
 6 -3.63681431233123 -3.64062928422842  1.94895526842684
 8 -3.84545614621462 -3.07759449564957  3.02535521662166
 8 -2.94285547924792 -4.84583930633063  1.85316389728973
 6 -2.40013060096010 -5.24664889398940  3.10960589608961
 6  2.87428994069407 -0.78083587818782 -1.18103930433043
 6  4.21912400140014 -0.47630580688069 -0.60256040504050
 6  5.14832831723172  0.35894215961596 -1.02862263496350
 6  5.04191261426143  1.16421907120712 -2.30446461176118
 6  6.34474880768077  0.37843969416942 -0.20571705690569
 6  7.61779931783178 -0.26229657655766 -0.99337628812881
 6  8.92287416001600 -0.15935106550655 -0.17598941174117
 6  10.21723234773477 -0.56821389308931 -0.92918388888889
 6  10.11848854905491 -2.14217515361536 -1.25237870287029
 6  11.44239711661166 -0.29647342814281 -0.00972010341034
 6  12.79743465116512 -0.38095214631463 -0.76237626052605
 6  13.98689815821582 -0.14386558935894  0.11344841234123
 6  15.26869299419942 -0.13045677477748 -0.60468870867087
 6  15.64624629352935 -1.55689332313231 -0.85055467316732
 6  16.35280938683868  0.58429278927893  0.26007051425142
 6  17.74575916531653  0.55394679307931 -0.24703051765177
 6  18.70870123962396  1.29075729272927  0.80384081708171
 6  20.20194886408641  1.37073740724072  0.23302806600660
 6  20.42752410621062  2.24864316151615 -0.95534652735274
 6  21.03813474427443  1.83038597489749  1.37358272167217
 1 -4.03046453095310  3.55030055145515  1.46079066596660
 1 -10.09964035673567  3.93476431143114 -0.42764815631563
 1 -10.32965625502550 -2.51302064286429 -1.42769942214221
 1 -2.61007746464646 -0.96206452035203  2.06922761396140
 1 -2.01926553175318  1.77035061766177  1.37479813021302
 1 -1.96861131863186  0.88019847274727  3.51195490899090
 1 -3.06847190719072  2.33060711821182  3.51226339173917
 1 -3.75811925462546  0.67479216321632  3.58629104190419
 1 -2.23942642754275 -1.84550451085109 -0.45307921712171
 1 -2.04071574407441 -0.02643539313931 -0.76909694929493
 1 -0.05182870027003  0.48207282118212  0.89263966306631
 1 -0.33937173917392 -1.28135265046505  1.29987394259426
 1 -5.61174995039504  6.75506415051505  1.03939964916492
 1 -5.11164815421542  5.94693805690569  2.35270156725672
 1 -4.26475043104310  5.75745691209121  0.86922009760976
 1 -9.04146619911991  5.91633778187819 -0.82256248444844
 1 -9.09446066196620  7.87853859275928  0.31828144994500
 1 -7.77299676547655  7.41919831933193  1.73380176567657
 1 -12.27080118521852  2.92488281428143 -2.48569157385739
 1 -13.31515118431843  1.82693658485849 -1.55264645614561
 1 -12.31236296739674  3.27712636733673 -0.68779002300230
 1 -12.13493827222722 -1.73063250835084 -1.28321327622762
 1 -13.02902162106211 -0.22232896969697 -1.35787131463146
 1 -13.44192054465447 -1.57877256345635 -3.43968385288529
 1 -12.50363392759276 -0.25943048064807 -3.92690618631863
 1 -11.63689996929693 -1.64156902400240 -3.63531215121512
 1 -8.79262886588659 -4.61619236213621 -1.87866113021302
 1 -8.03552291709171 -5.79366937113711 -0.64590420342034
 1 -9.56088597349735 -4.89729475077508 -0.31637345994599
 1 -3.38367906380638 -3.58740199089909 -0.09013428492849
 1 -2.03722188868887 -4.34108054775478  3.54470738603860
 1 -3.19810941954195 -5.67033865146515  3.63140597949795
 1 -1.74228233973397 -5.85352462566257  2.84480843374337
 1  2.51792109620962 -1.76877871377138 -1.47103106810681
 1  2.77625510311031 -0.33135885628563 -2.20752390459046
 1  4.31169207480748 -0.86266848204820  0.46164938093809
 1  4.13945290879088  0.95566427682768 -2.64902327202720
 1  5.44615002670267  2.29769002790279 -1.93099956815682
 1  5.93489079667967  0.85621672917292 -2.99537826882688
 1  6.82876493939394  1.40725472547255 -0.34762211941194
 1  6.27090120952095  0.04071603420342  0.94343406010601
 1  7.38373575827583 -1.40914014921492 -1.16970829442944
 1  7.73664610051005  0.36659986808681 -1.88884180778078
 1  9.02576462806281  1.00220810581058  0.10186781898190
 1  9.07368585728573 -0.65204071027103  0.93656151985198
 1  10.08509606100610  0.04682722042204 -1.95890077957796
 1  9.29752473797380 -2.47986596309631 -1.92569849464947
 1  11.28431098679868 -2.40517730163016 -1.64700894479448
 1  9.92790567656766 -2.66266820882088 -0.34367380708071
 1  11.52860054095409  0.60703293349335  0.36530801830183
 1  11.50689374277428 -0.99018497979798  0.85955657725773
 1  12.87631094999500 -1.28206636783678 -1.03988165576558
 1  12.84132788528853  0.11384207520752 -1.80757411871187
 1  13.69905134183418  0.99442199819982  0.44413175617562
 1  13.72456520962096 -0.68036764146415  1.05436195269527
 1  15.12411570007001  0.32816230123012 -1.64622898089809
 1  15.81920936383638 -2.27590788288829  0.03603214931493
 1  14.95823887458746 -2.12010438603860 -1.59461687678768
 1  16.50967059645965 -1.51802732763276 -1.54344581408141
 1  16.05261046174617  1.66353418711871  0.48551509580958
 1  16.11118556575657  0.20721154605461  1.37306006720672
 1  18.27801874057406 -0.36451299869987 -0.36528986938694
 1  17.69421648614862  1.20839815871587 -1.25619919571957
 1  18.47112790539054  2.29811396909691  0.98488649394939
 1  18.70222738303831  0.39806398739874  1.58046804710471
 1  20.37638255095510  0.22245839403940 -0.22217515351535
 1  20.03955806240624  3.19720328222822 -1.06519011241124
 1  21.50795504760476  2.31600825362536 -1.22075343864386
 1  19.81408531293129  1.92271408220822 -1.90332730173017
 1  20.88126410161016  1.18760686978698  2.36612622982298
 1  22.09635134143414  1.94151538123812  1.28916388268827
 1  20.78499822972297  2.91065114841484  1.68695913641364

