%nproc=4
%Mem=2GB
# td=(NStates=1) CAM-B3LYP/6-31G(d,p) 

TD

0 1
12 -7.16691726472647  0.59264801290129  0.00998868626863
 6 -4.86050066806681 -1.88953013141314  0.41531806450645
 6 -4.79854978387839  2.85003345064506  1.05585195009501
 6 -9.45063979947995  2.99627512301230 -0.22901576127613
 6 -9.54274458815882 -1.81284679567957 -0.79455588468847
 7 -5.08035145974597  0.52529234733473  0.70274069236924
 6 -4.38840854695470 -0.69137895989599  0.77076509970997
 6 -2.91748075347535 -0.32960238593859  1.05406576077608
 6 -2.97982142054205  1.11836450475048  1.59359008970897
 6 -4.38691568646865  1.55480622942294  1.07592462236224
 6 -3.02361744384438  1.19189147724772  3.17412882178218
 6 -1.86451991299130 -0.39828508990899 -0.10825686738674
 6 -0.46984440704070 -0.30216456365637  0.40078420772077
 6  0.54899603680368 -0.64930844374437 -0.52173755425543
 8  0.32697393749375 -1.00741614921492 -1.71027735943594
 8  1.79140095059506 -0.48480587698770 -0.13742053095310
 7 -7.12932338023802  2.52089767956796  0.39349804530453
 6 -6.07059633863386  3.39290026582658  0.79135266886689
 6 -6.51647890099010  4.70237452685268  0.73724441164116
 6 -7.77135984298430  4.80036066756676  0.33785217651765
 6 -8.15309958155816  3.41255045034503  0.10579312561256
 6 -5.46663462016202  5.84300676657666  0.95737049754976
 6 -8.64016181378138  6.01644267796780  0.17036402180218
 6 -8.53738763006301  7.18324444304430  0.72154840464046
 7 -9.16398867146715  0.68943180428043 -0.49936397009701
 6 -9.95370162986299  1.77835778887889 -0.61406773087309
 6 -11.22675177177718  1.40524886398640 -0.95751747124712
 6 -11.27408981288129  0.02815817991799 -1.20279899389939
 6 -9.99959564026403 -0.46171814611461 -0.91040605670567
 6 -12.26309513321332  2.47692826382638 -1.13367014181418
 6 -12.57637218351835 -0.77163457355736 -1.73565437393739
 6 -12.30479796819682 -1.19985239643964 -3.18840395899590
 7 -7.24538400670067 -1.42487210081008 -0.09853453045305
 6 -8.28133837363736 -2.25846101820182 -0.51328628382838
 6 -7.81283742934293 -3.71618988648865 -0.50638791609161
 6 -6.37855173927393 -3.57914225122512 -0.10714244614461
 6 -6.23848644504450 -2.19716799809981  0.19208201240124
 6 -8.75208267566757 -4.82605544794479 -0.81649012741274
 6 -5.33121759205921 -4.27258114161416  0.27678055065507
 8 -5.11300013791379 -5.53637812121212  0.13713074377438
 6 -4.13374695409541 -3.25539132893289  0.50342020732073
 6 -3.61567219811981 -3.58210343164316  1.77869824272427
 8 -3.86089769036904 -3.11415815201520  2.93740642174217
 8 -2.61584277797780 -4.50771549394939  1.79230781168117
 6 -2.26251683958396 -5.12339656875687  2.98345328082808
 6  2.74091660336034 -0.70615841044104 -1.25386658705871
 6  4.14964705370537 -0.52429060536054 -0.60411056005601
 6  5.14054753915392  0.27810407580758 -1.00191996469647
 6  5.07757618061806  1.19046169546955 -2.26140030533053
 6  6.48135246804680  0.43468531873187 -0.17364384958496
 6  7.64337187508751 -0.24222456935694 -0.95868281878188
 6  8.92560443304330 -0.17986311671167 -0.13583539633963
 6  10.22371299579958 -0.55352242394239 -0.81455242574257
 6  10.17900460066006 -1.98694963106311 -1.30636410141014
 6  11.44206708360836 -0.17614139493949  0.09680054865487
 6  12.84524943264326 -0.68426247734773 -0.53899392229223
 6  14.02826229462946 -0.11268247104710  0.15149221672167
 6  15.38918504340434 -0.21926565566557 -0.50958919871987
 6  15.80402207110711 -1.57465509930993 -1.02796241394139
 6  16.49338344424443  0.46911127112711  0.37888239543954
 6  17.83019760916092  0.65999739813981 -0.26291210581058
 6  18.88228859835984  1.14652286928693  0.81332176517652
 6  20.37293596279628  1.23496382988299  0.26329109230923
 6  20.39775112891289  2.08177647484748 -1.01114210691069
 6  21.25020595139514  1.95433837013701  1.41906727012701
 1 -4.18266975147515  3.60349587098710  1.27861244814481
 1 -10.10825121782178  3.86388722372237 -0.37737312881288
 1 -10.43471676107611 -2.50848018881888 -1.20567721992199
 1 -2.78177463436344 -0.95116343024302  1.82629332053205
 1 -2.27675128032803  1.67343092569257  1.20098074847485
 1 -2.06665112261226  0.85976642954295  3.64597831133113
 1 -2.86556161616162  2.44591864936494  3.40170233563356
 1 -3.85879932263226  0.65239992399240  3.39019143194320
 1 -2.02330481538154 -1.42958291869187 -0.43888779797980
 1 -2.02723439593959  0.25358260866087 -0.89447948754875
 1 -0.26126964436444  0.65966057995800  0.97585798489849
 1 -0.28880668266827 -0.90737525272527  1.30056401160116
 1 -5.79949872527253  6.76816546064606  0.59465517471747
 1 -5.34367135653565  6.30957432053205  1.99972626972697
 1 -4.53440739673967  5.71122228862886  0.66590976657666
 1 -9.45816786928693  5.92751889999000 -0.49356958515852
 1 -9.30513172907291  7.93081382028203  0.58751837363736
 1 -7.63002246804681  7.40079647914791  1.47122550805080
 1 -11.88177228232823  3.19124945094509 -1.75145815051505
 1 -13.33537320652065  2.12138602980298 -1.32830402190219
 1 -12.54106583768377  3.02144079877988 -0.26639788378838
 1 -12.53901868026803 -1.48747819291929 -1.05567052195220
 1 -13.56601532043204 -0.16560329712971 -1.50478600610061
 1 -13.07024337693769 -1.66145083128313 -3.58253813831383
 1 -12.25128869306931 -0.37383192079208 -3.95784928062806
 1 -11.31220750005001 -1.71854672177218 -3.51587020702070
 1 -9.03509311231123 -4.73538428132813 -1.88999226332633
 1 -8.15659502430243 -5.70284028822882 -0.93104271727173
 1 -9.56259614451445 -4.87248226952695 -0.24177600020002
 1 -3.22249294519452 -3.15801905260526 -0.26965223672367
 1 -1.56926509300930 -4.41275771547155  3.55402831813181
 1 -3.26210581918192 -5.28390000760076  3.65222806170617
 1 -1.65347345884588 -6.08415768896890  2.58957291019102
 1  2.75783508760876 -1.65837767366737 -1.46336030103010
 1  2.48559603720372  0.00531481108111 -2.08225137733773
 1  4.16607751335134 -1.05891810701070  0.36412962896290
 1  3.94350331383138  1.22875158555856 -2.84837320702070
 1  5.08335374707471  2.38470872977298 -2.09931639983998
 1  6.08525583318332  1.19102020952095 -3.03077180818082
 1  6.65555761866187  1.58344234423442 -0.24714207140714
 1  6.33295741514151  0.00846280888089  0.86235595229523
 1  7.23688107280728 -1.34706394159416 -1.14962628622862
 1  7.81512394829483  0.12989619771977 -1.94455737933793
 1  8.87994004560456  0.75347323232323  0.47943557575758
 1  8.80994948364837 -1.13279878607861  0.68276614031403
 1  10.38746629802980  0.16540907860786 -1.73331822132213
 1  9.26733171867187 -2.26217419391939 -1.96359228402840
 1  11.15909846554656 -2.26872365626563 -1.74217846174618
 1  10.11989487548755 -2.72187412941294 -0.52896233593359
 1  11.46227390829083  0.78758098829883  0.44050553805381
 1  11.28444149754976 -0.69611557285729  1.07938856045605
 1  12.84969828872887 -1.87123528472847 -0.58540620822082
 1  12.81142489498950 -0.23133244224422 -1.59844320562056
 1  13.81200263696370  0.96254881088109  0.44451179417942
 1  13.92974572767277 -0.47111671637164  1.07380389688969
 1  15.21965525402540  0.53825331033103 -1.22313667166717
 1  16.00073751665166 -2.51498179027903 -0.28625007890789
 1  15.03153620432043 -2.05937831343134 -1.72023943904390
 1  16.71960158955896 -1.20565609050905 -1.72941441094109
 1  15.86019121982198  1.30689852355236  0.61840838513851
 1  16.29268371557156 -0.12247142224222  1.24197695889589
 1  18.38260919961996 -0.26826337373737 -0.55475881628163
 1  17.91382844734473  1.29322664156416 -1.12938651445144
 1  18.42535332793279  2.16453061076108  1.19311731703170
 1  18.90899806010601  0.59582376337634  1.82910291059106
 1  20.68250316301630  0.23487963616362  0.17212427642764
 1  20.13875798239824  3.01411497339734 -0.98297189058906
 1  21.52363661576158  2.11998865166517 -1.32212357565757
 1  19.63537744214421  1.80803261406141 -1.78127509650965
 1  21.13837981318132  1.26393450255025  2.34044366156616
 1  22.22557426372637  1.99710093979398  1.06848181448145
 1  20.82283201310131  2.94177426072607  1.67149759025903

