%nproc=4
%Mem=3GB
# td=(NStates=1) iop(3/107=0140000000,3/108=0140000000) CAM-B3LYP/6-31G(d,p) 

TD

0 1
12 -7.13912860456046  0.64322270577058 -0.02523615361536
 6 -4.89380819731973 -1.93121035163516  0.55410081248125
 6 -4.75834186478648  2.78228694659466  1.11354145934593
 6 -9.36962372687269  3.06330388338834 -0.45283775907591
 6 -9.55278137613761 -1.77718948464846 -0.78829563446345
 7 -5.12831986318632  0.39785587618762  0.66229405340534
 6 -4.37298954625463 -0.74096523972397  0.78518641334133
 6 -2.95904212481248 -0.37960635863586  1.26095176427643
 6 -3.00016324322432  1.05040374197420  1.66040231953195
 6 -4.42247248194819  1.52512716381638  1.13570796469647
 6 -2.87723390419042  1.39805262456246  3.10624593919392
 6 -1.93612934263426 -0.61037702690269  0.10217402770277
 6 -0.50465617481748 -0.52904615261526  0.54620800310031
 6  0.47375929912991 -0.64964158605861 -0.59057884798480
 8  0.17801801860186 -0.87764154185419 -1.72394978807881
 8  1.72885148354836 -0.32782272067207 -0.31451683928393
 7 -7.08818646204621  2.71828503840384  0.24391531563156
 6 -6.06897704150415  3.36547031443144  0.82522839893989
 6 -6.44675958435844  4.75934279787979  0.85194345304530
 6 -7.63970875617562  4.91307311251125  0.32628875527553
 6 -8.12269179667967  3.54506144494449 -0.05252725412541
 6 -5.51733376727673  5.93265273897390  1.30517067226723
 6 -8.55530553855385  5.99219948954895  0.17650826332633
 6 -8.52292070207021  7.19814896459646  0.90303436273627
 7 -9.10854989608961  0.66755374977498 -0.46844341824182
 6 -9.91595908220822  1.77317064136414 -0.63652646614661
 6 -11.24112806550655  1.48366781128113 -1.14743960366037
 6 -11.27728721592159  0.12477002280228 -1.20844087238724
 6 -9.92838044164416 -0.37895808920892 -0.84093629492949
 6 -12.35656659435944  2.47187242864286 -1.38865831853185
 6 -12.34882867576758 -0.71855797959796 -1.65360469106911
 6 -12.18924083298330 -1.23807399969997 -3.13588423962396
 7 -7.19615257765777 -1.38295313101310 -0.34155683078308
 6 -8.27375170147015 -2.29170771627163 -0.54210579047905
 6 -7.92463450325033 -3.66974752615262 -0.40242054185419
 6 -6.59139693019302 -3.58683166526653  0.01496941524152
 6 -6.15985971767177 -2.24931288708871  0.14400623602360
 6 -8.71572391189119 -4.84358045644564 -0.67339072217222
 6 -5.38819428232823 -4.39669323272327  0.27180215431543
 8 -5.29677066936694 -5.62956981398140  0.28118406700670
 6 -4.22404690729073 -3.26084353175318  0.56493481508151
 6 -3.64116829362936 -3.71143908660866  1.93800976947695
 8 -3.68335111851185 -3.03664102200220  3.00896425462546
 8 -2.87534288708871 -4.87312593109311  1.76378541604160
 6 -2.16675563256326 -5.35367057295730  2.91714911531153
 6  2.72098841924192 -0.51240952985299 -1.31359487668767
 6  4.11275216041604 -0.36057132503250 -0.70584314711471
 6  5.17631312261226  0.43451997999800 -1.04503738073807
 6  5.11783550915091  1.26088376367637 -2.34616875187519
 6  6.39878615731573  0.34537515351535 -0.30039056345635
 6  7.64234568716872 -0.12063061106111 -1.10691101980198
 6  8.97648536013601 -0.06588840494049 -0.32511861426143
 6  10.20802626322632 -0.60631229442944 -1.00726644664466
 6  10.10603387998800 -1.97818569846985 -1.39433639963996
 6  11.47637230103010 -0.22097698879888 -0.17752571507151
 6  12.77364510001000 -0.41718175167517 -0.97018452355236
 6  14.00223149494949 -0.03131884618462 -0.01065465386539
 6  15.44335032603260 -0.15190427402740 -0.59717537003700
 6  15.77774404540454 -1.68701709000900 -0.87367919421942
 6  16.48452544524453  0.42047856515652  0.35962069676968
 6  18.03605119281928  0.35756948654865 -0.05208173517352
 6  18.87776819541954  1.13832191069107  0.92548580528053
 6  20.29056186058606  1.21631106360636  0.46726343234323
 6  20.51093393919392  2.02292959805981 -0.77001169706971
 6  21.11946701370137  1.86842854275428  1.61022496249625
 1 -4.15964632813281  3.36283953535354  1.46005210101010
 1 -10.13250537383738  3.89873214771477 -0.49597412361236
 1 -10.53046747084709 -2.42462799789979 -0.72374019341934
 1 -2.70602788998900 -1.00919112181218  2.24170066076608
 1 -2.23162662896290  1.77166922802280  1.16828047704770
 1 -1.79127221362136  1.02037114351435  3.56393673107311
 1 -2.79948705780578  2.58777800060006  3.36110413261326
 1 -3.79393219371937  1.05044019831983  3.97160884608461
 1 -2.09091421042104 -1.58546921772177 -0.39819782688269
 1 -2.07413378237824  0.06781440124012 -0.78943567816782
 1 -0.48056348504850  0.43234282158216  1.15384924792479
 1 -0.31290971127113 -1.34490525712571  1.45351881018102
 1 -5.80946512421242  6.66543405540554  0.69095892719272
 1 -5.57122859415942  6.17420030143014  2.53042505500550
 1 -4.69149399399940  5.60572484048405  1.03678441104110
 1 -9.19978023782378  5.73524690669067 -0.55086643934393
 1 -9.24846391009101  7.97615733673367  0.55390516621662
 1 -7.81349928202820  7.36098293469347  1.68052701300130
 1 -12.08196866986699  3.29917906500650 -2.11819765126513
 1 -13.39472677037704  1.99835857825783 -1.80344607280728
 1 -12.49107013971397  3.12865019911991 -0.33419385888589
 1 -12.43019498439844 -1.76423734653465 -1.20810431133113
 1 -13.33384568366837 -0.39287199769977 -1.38732448684869
 1 -12.79647484668467 -2.10426408850885 -3.39913087118712
 1 -12.34252465816582 -0.38449692099210 -3.84563354175418
 1 -11.23781862126213 -1.75130615781578 -3.31279955815582
 1 -9.22290690929093 -4.64121062186219 -1.61039710271027
 1 -8.18638302350235 -5.80725667896790 -0.50160011511151
 1 -9.57798197719772 -4.91255970437044 -0.14581685038504
 1 -3.50872839133913 -3.59889649524952 -0.29784752285229
 1 -1.64751813941394 -4.46087830123012  3.17667938553855
 1 -2.64363080038004 -5.75844536943694  3.79474051175117
 1 -1.41091161166117 -5.96074685948595  2.45652901400140
 1  2.63368142294229 -1.43539016181618 -1.77098854755476
 1  2.57540398169817  0.30559864466447 -2.04003506100610
 1  4.46883737043704 -1.01102951675168  0.20068146834683
 1  4.13606891839184  1.35884142684268 -2.67681816751675
 1  5.39959689188919  2.36166659055906 -2.10657809620962
 1  5.85001456995700  0.82702389328933 -3.01872812971297
 1  6.64591277517752  1.44055403600360  0.07277689158916
 1  6.13031090319032 -0.30221755845585  0.44715091059106
 1  7.50536265906591 -1.13429410241024 -1.59787454465447
 1  7.58603116161616  0.69697880088009 -1.80526134903490
 1  9.21400744504450  0.97439693719372  0.11946437453745
 1  8.53193631443144 -0.47758611131113  0.75534165756576
 1  10.28007263906391 -0.02388624082408 -2.04203936193619
 1  9.23700330943094 -2.21718000150015 -1.96275465736574
 1  10.86857599819982 -2.34770817011701 -1.95540089818982
 1  10.04284648174817 -2.67508162286229 -0.52926031973197
 1  11.24708635023502  0.84399083248325  0.08504627542754
 1  11.56370396589659 -0.79210050765076  0.81393771387139
 1  12.88553650615062 -1.32326974627463 -1.22603487498750
 1  13.02076790669067  0.23971890789079 -1.78098243194319
 1  14.12425384568457  1.18581394469447  0.20671550025003
 1  13.88233654425443 -0.55519189808981  0.89627200120012
 1  15.70601100250025  0.53404680168017 -1.63482475127513
 1  15.46022981978198 -2.41394073527353  0.13193505800580
 1  15.01279292369237 -1.96992151215122 -1.44006538003800
 1  16.79023730333033 -1.92589348634863 -1.05925243854385
 1  16.04155742924292  1.36854518821882  0.90897681398140
 1  16.45603968176818 -0.16712299709971  1.32983147784778
 1  18.50863760146015 -0.60993750775078 -0.08418861446145
 1  18.24415172477248  1.05001389548955 -0.98196393999400
 1  18.46431548844884  2.29531079907991  0.82938488528853
 1  18.79597556005601  0.79596443594359  1.97539078457846
 1  20.68344817711771  0.20967196479648  0.26646253845384
 1  20.70321714021402  3.24721549804980 -0.59589177387739
 1  21.66516031683168  1.78163930603060 -1.16316429762976
 1  19.80869926752675  1.77251754195420 -1.63077146154615
 1  21.11241509500950  1.24022966386639  2.51819548834884
 1  22.12401029382938  1.95132560326033  1.53020967456746
 1  20.62161223972397  2.91490760796079  1.74650178687869

