%nproc=4
%Mem=2GB
# td=(NStates=1) CAM-B3LYP/6-31G(d,p) 

TD

0 1
<<<<<<< HEAD
12 -7.15648622162216  0.67777652575258  0.12291997939794
 6 -4.90573519151915 -1.95018619701970  0.61191772447245
 6 -4.76026595549555  2.87093554085409  1.09822618751875
 6 -9.43856859235924  3.18514400990099 -0.50625348504850
 6 -9.55412572627263 -1.64102961396140 -0.77634406350635
 7 -5.12031545614562  0.46067588568857  0.68119853815382
 6 -4.37290699679968 -0.70224004600460  0.82933095629563
 6 -2.90212921832183 -0.34534396009601  1.20601095529553
 6 -2.93420685908591  1.15237790609061  1.59086981768177
 6 -4.29594658955896  1.53364411321132  1.08472550245024
 6 -2.77777285938594  1.43816610471047  3.16901831073107
 6 -1.87036049704970 -0.56839210061006  0.11351530983098
 6 -0.41778920152015 -0.61739608680868  0.60440456975698
 6  0.51033217041704 -0.77363087598760 -0.58125350585058
 8  0.18250949104910 -1.04110951855186 -1.71064739643964
 8  1.76648845934593 -0.38667606400640 -0.21078786768677
 7 -7.07072752065207  2.63355894569457  0.28470716621662
 6 -6.03336261526153  3.40742171797180  0.74192772637264
 6 -6.39625687878788  4.76168045744574  0.72594328152815
 6 -7.70915362236224  4.85366599809981  0.30174856615662
 6 -8.15958022962296  3.46707590289029 -0.06541399509951
 6 -5.49190714741474  5.89498196409641  1.05053981448145
 6 -8.56247404500450  5.96948798249825  0.12746973237324
 6 -8.61745563686369  7.12217833643364  0.94415066486649
 7 -9.14495676827683  0.69574243534353 -0.40622465616562
 6 -9.90685694539454  1.83011296439644 -0.61107743184318
 6 -11.20500959755976  1.42235057415742 -1.08018973847385
 6 -11.27070947484748  0.11992735683568 -1.18031674567457
 6 -9.96864254495449 -0.38952092639264 -0.72272728882888
 6 -12.35626445014501  2.34685525652565 -1.39082585738574
 6 -12.40795534183418 -0.75648305840584 -1.71074188268827
 6 -12.24390187858786 -0.96361877307731 -3.27313243184318
 7 -7.26488595689569 -1.44451406500650 -0.13152782978298
 6 -8.30253049284928 -2.19860503260326 -0.53486844204420
 6 -7.85453159875988 -3.67590585808581 -0.37707498479848
 6 -6.43624750885089 -3.49065340234023 -0.20484221612161
 6 -6.15428802520252 -2.11450973227323  0.11371417561756
 6 -8.68071553895389 -4.79722256465647 -0.77328580698070
 6 -5.34391886218622 -4.30166404990499  0.07098997159716
 8 -5.10852969086909 -5.55529001240124  0.22417944864486
 6 -4.13231681108111 -3.25627141694169  0.56509637493749
 6 -3.52869350025003 -3.78548376967697  1.77207758065807
 8 -3.91629322992299 -3.27148388458846  2.88811149224922
 8 -2.60482167586759 -4.73582830523052  1.70830941184118
 6 -1.96027661556156 -5.17171140024002  2.86304123962396
 6  2.82133464516452 -0.80049784438444 -1.12437363776378
 6  4.14314640364036 -0.57970614691469 -0.53306345534553
 6  5.12549603400340  0.17981424682468 -1.01289106180618
 6  4.98486690969097  1.08375102440244 -2.22084624992499
 6  6.44177851065106  0.31834368456846 -0.17287377257726
 6  7.65682322022202 -0.26906725362536 -1.02511946244624
 6  8.88721059365937 -0.29610474087409 -0.23668548134813
 6  10.15142576707671 -0.59533660536054 -0.92609357985799
 6  10.19948664886489 -2.06673760986099 -1.30283374837484
 6  11.37625050195020 -0.33794757555756 -0.05345447684768
 6  12.80474538223822 -0.44509856095610 -0.67821784468447
 6  13.99378884728473  0.04218301550155  0.09567663516352
 6  15.28971509640964 -0.15264899399940 -0.54438267806781
 6  15.65891756065606 -1.62975060886089 -0.73249286698670
 6  16.36592069796980  0.52098645864586  0.34954946214621
 6  17.74599918931893  0.63510490889089 -0.16561237583758
 6  18.71919228872887  1.33747196419642  0.81943237623762
 6  20.18091676087609  1.34727506100610  0.30184494769477
 6  20.39032038583859  2.11705000220022 -1.05907690039004
 6  21.10856178697870  1.99405234153415  1.36236159955996
 1 -4.14690617511751  3.50471599299930  1.59219380628063
 1 -10.15355574827483  3.94312514751475 -0.61139653115312
 1 -10.41934522392239 -2.37612695349535 -0.91205785798580
 1 -2.46323278017802 -1.20057837173717  1.82888357955796
 1 -2.16151975717572  1.79125270787079  1.05613626402640
 1 -1.84582904040404  0.91937239013901  3.39528324182418
 1 -2.71390645064506  2.52392645014501  3.36153831923192
 1 -3.47659110181018  0.70387507150715  3.62640505330533
 1 -2.20598308320832 -1.51094105450545 -0.37636154535454
 1 -2.01740341284128 -0.02052480208021 -0.70985102470247
 1  0.01476795939594  0.22182679657966  1.26154655375538
 1 -0.22245004700470 -1.47472198739874  1.35826978217822
 1 -5.73318209360936  6.85519416351635  0.42309801900190
 1 -5.46865385478548  6.11862522562256  2.12393869096910
 1 -4.54814877087709  5.56592775917592  0.81057423302330
 1 -9.28153020552055  5.92362851095110 -0.57442767096710
 1 -9.18706992289229  7.92483322222222  0.52907252905291
 1 -7.98213767956796  7.07660405990599  1.72093047854785
 1 -12.07628173327333  2.95356568256826 -2.24979798449845
 1 -13.25554522372237  1.77072096329633 -1.66368756025603
 1 -12.69486121722172  3.05204385908591 -0.63210445444544
 1 -12.29446422482248 -1.69020846594660 -1.04387934283428
 1 -13.39694841374137 -0.23899063586359 -1.49469499699970
 1 -13.13162951555156 -1.47408209440944 -3.45068495299530
 1 -12.26285985018502 -0.05889042664266 -3.94533802950295
 1 -11.53011929122912 -1.69235410251025 -3.47189580958096
 1 -8.87991759475948 -4.84169491239124 -1.88939220332033
 1 -8.17835720052005 -5.70876088028803 -0.46219583258326
 1 -9.56179606450645 -4.73540856215622 -0.25964778737874
 1 -3.30411110701070 -3.43246649734973 -0.31021629312931
 1 -1.38279644614461 -4.41007744744474  3.66241915721572
 1 -2.81710131873187 -5.51739335693569  3.63947678657866
 1 -1.19339745124512 -5.94314358755876  2.58509246214621
 1  2.72734203830383 -1.98124996089609 -1.38186215121512
 1  2.88830630823082 -0.10324604500450 -2.10188334053405
 1  4.27230813641364 -1.18200041524152  0.42340555655566
 1  4.01347031053105  1.07497620802080 -2.62581095079508
 1  4.89770518221822  2.27430768966897 -1.99479594779478
 1  5.64784209180918  0.89408051555156 -2.92067079807981
 1  6.60508257115712  1.34596859685969  0.06715935873587
 1  6.38133225262526 -0.25288332573257  0.77177689438944
 1  7.48480586528653 -1.11867110231023 -1.56090741434143
 1  7.79032146804680  0.45071827992799 -1.91752467606761
 1  8.96918897049705  0.73000088508851  0.28624625682568
 1  8.83767225592559 -0.76469197539754  0.69695755945595
 1  10.45012256365636  0.14011654935494 -1.71158604810481
 1  9.39311429692969 -2.36221419791979 -1.85588151295129
 1  10.97424998069807 -2.18899568346835 -2.13767801170117
 1  10.54185707170717 -2.75865780778078 -0.35183462316232
 1  11.30277795869587  0.63008523872387  0.28605009250925
 1  11.32970602400240 -0.88557451875187  0.85239586118612
 1  12.97363068196820 -1.56319448064806 -0.97216488408841
 1  12.83132688518852  0.09972066306631 -1.62274563586359
 1  13.91823326002600  1.11138369436944  0.38668601160116
 1  14.03532628572857 -0.37129673437344  1.26940345684568
 1  15.24424771327133  0.50135962096210 -1.57961231923192
 1  15.88063550645064 -2.04166445854585  0.37407595369537
 1  14.92336538723872 -2.16012838843884 -1.44814222932293
 1  16.74737436683668 -1.75361088598860 -1.28720018951895
 1  15.99163436413641  1.49326716041604  0.37858440274027
 1  16.31007545474547  0.17572839773977  1.48396115731573
 1  18.09408034673467 -0.37489403680368 -0.24972831323132
 1  17.84477154165417  1.19296661556156 -1.21089466526653
 1  18.45860665326533  2.32911706940694  1.08165617091709
 1  18.53135029532953  0.55120930193019  1.61513151345134
 1  20.50372528522852  0.24727087528753  0.22005906990699
 1  20.20278438503850  3.16643020492049 -0.86451004440444
 1  21.55983023512351  1.96231288408841 -1.21338270157016
 1  19.84879878427843  1.47596940774077 -1.72220918991899
 1  20.99893586878688  1.12481059015902  2.09318893609361
 1  22.27156886318632  2.11556278597860  1.15658062436244
 1  20.62550228012801  3.00222030533053  1.89161960246025
=======
12 -7.07968854185419  0.56969571767177  0.02635032243224
 6 -4.87053167116712 -2.00663184158416  0.40295682838284
 6 -4.77206713561356  2.80215866316632  1.05432179707971
 6 -9.36194092959296  3.12027752325233 -0.40960382008201
 6 -9.47409772347235 -1.78800431143114 -0.84929135823582
 7 -5.04542796739674  0.43536335443544  0.70136055435544
 6 -4.34319402550255 -0.73857367936794  0.89495751895190
 6 -2.89033803920392 -0.38631805750575  1.29928028222822
 6 -3.02130556895690  1.04377704600460  1.84509524022402
 6 -4.34096109100910  1.51911266006601  1.11680871077108
 6 -2.93433851595160  1.27477976607661  3.32408381728173
 6 -1.96333979497950 -0.61492675407541  0.10106406470647
 6 -0.45137255985599 -0.40199454665467  0.51190531983198
 6  0.57511864906491 -0.69783329622962 -0.56689206970697
 8  0.26124736483648 -1.15268067566757 -1.71708804050405
 8  1.75879769026903 -0.40637803420342 -0.24827161606161
 7 -7.10786123402340  2.65002059185919  0.29490818631863
 6 -6.07134641364136  3.37917889368937  0.77011054465447
 6 -6.33456070917092  4.82844713411341  0.69693038023802
 6 -7.64010671767177  4.90962159365937  0.36176456775678
 6 -8.07495176677668  3.54164335963596  0.04151669796980
 6 -5.41159911661166  5.91618408430843  1.14982974347435
 6 -8.51296909450945  6.01793282698270  0.17753473887389
 6 -8.49229312061206  7.28236435503550  0.85492174197420
 7 -9.11296356895690  0.72477533863386 -0.45674970867087
 6 -9.79374563426343  1.85906585968597 -0.70086641074107
 6 -11.14963406000600  1.49776811591159 -1.16104782428243
 6 -11.17290969486949  0.04233959805981 -1.32040075407541
 6 -9.86516219691969 -0.39140111441144 -0.90206522262226
 6 -12.21440026372637  2.39510008100810 -1.48872564736474
 6 -12.38569311561156 -0.72177958805881 -1.72202301080108
 6 -12.46778426682668 -1.04028643984398 -3.30455557415742
 7 -7.15398486678668 -1.43575318891889 -0.21381605860586
 6 -8.25837607740774 -2.26903207530753 -0.44776973217322
 6 -7.84378052365237 -3.63441170867087 -0.45555283258326
 6 -6.45811969606961 -3.60768510551055 -0.11218295019502
 6 -6.07240983738374 -2.15260354165417 -0.06296349214921
 6 -8.67800526792679 -4.83528637103710 -0.64442292069207
 6 -5.30835530583058 -4.42700658415842  0.19958283088309
 8 -5.21711054895490 -5.60256473987399  0.25689271997200
 6 -4.17339091849185 -3.31908769856986  0.60255012031203
 6 -3.54156478737874 -3.79248446974697  1.96677705060506
 8 -3.86442804340434 -3.23678041424142  2.95400808190819
 8 -2.68149934363436 -4.77231195359536  1.82960154105411
 6 -1.91452204010401 -5.21809603870387  3.02235717121712
 6  2.74554706640664 -0.77316511111111 -1.27379858025803
 6  4.12458454745475 -0.55545372167217 -0.69348949794980
 6  5.02160564496450  0.31589785518552 -0.98492826552655
 6  4.91534995799580  1.12334498379838 -2.25784995029503
 6  6.35730006280628  0.45888773897390 -0.23180966616662
 6  7.58061559945995 -0.15535588248825 -0.99331628212821
 6  8.86865873847385  0.05643051265127 -0.27232904570457
 6  10.13925454995499 -0.46553362506251 -1.01402237273727
 6  10.14165086528653 -1.94256519261926 -1.47202066706671
 6  11.33834671157116 -0.18544232503250 -0.15268439983998
 6  12.68313322102210 -0.39157320842084 -0.73405342824282
 6  13.82552202060206 -0.08219942274227  0.20236730423042
 6  15.31844796969697 -0.18737246634663 -0.41029926972697
 6  15.66512818171817 -1.61352898669867 -0.86655627332733
 6  16.39216332223222  0.37485184518452  0.57171167836784
 6  17.73784837423742  0.61131252965297 -0.11860767536754
 6  18.69898026752675  1.21553977097710  0.80843127612761
 6  20.25113378257826  1.36453678717872  0.25730049324932
 6  20.24040539433943  2.05239353655366 -1.03434442714271
 6  21.15035596639664  1.88905184148415  1.35196055945595
 1 -3.82072355685569  3.51898742014201  1.33371795869587
 1 -9.96986737943794  3.86866770177018 -0.45668105960596
 1 -10.21101439083908 -2.41584092489249 -1.16788344054405
 1 -2.80941739863986 -1.10097841174117  2.08251894309431
 1 -2.10790439563956  1.62335591819182  1.27286793719372
 1 -1.79298375587559  0.96391684458446  3.85907962146215
 1 -3.06386144614462  2.27847190469047  3.51971413681368
 1 -3.77373081578158  0.81706639063906  3.91603401620162
 1 -1.98524100900090 -1.68534849524952 -0.40315422462246
 1 -2.25972764526453  0.01740899129913 -0.73433347294729
 1 -0.16317983538354  0.75616022992299  0.90076047514751
 1 -0.40117791979198 -0.69078359355936  1.63278723392339
 1 -5.73697247264727  6.50572921702170  0.23778948814882
 1 -5.55557254665466  6.18730209330933  2.26709300640064
 1 -4.33562751875188  5.67233840024002  0.97936111171117
 1 -9.34482653515352  5.95497164526453 -0.64171439963996
 1 -9.05472668856886  8.18494923382338  0.53253287508751
 1 -7.54128359415942  7.40992739223922  1.49413779927993
 1 -11.72588669376938  3.17986831283128 -2.17200020472047
 1 -13.22111178037804  2.09089298049805 -1.74262545404540
 1 -12.47071880298030  3.19658831353135 -0.67853909790979
 1 -12.48939371777178 -1.59432887798780 -1.23921887678768
 1 -13.20814953385339 -0.07921465826583 -1.19858538603860
 1 -13.26659301190119 -1.63839852605261 -3.61383126762676
 1 -12.28197176137614 -0.02121665926593 -3.86136963266327
 1 -11.64070034933494 -1.49611447854785 -3.44535315531553
 1 -9.16303590659066 -4.93746448934894 -1.63895715981598
 1 -8.15544490929093 -5.70596060026003 -0.55290490349035
 1 -9.54774465936594 -4.96577159845985  0.06073425082508
 1 -3.35220591649165 -3.61911516221622 -0.29782505400540
 1 -1.36838500500050 -4.39737617731773  3.38794170947095
 1 -2.71049065766577 -5.63893551115112  3.68428126702670
 1 -1.37009512101210 -6.06997627082708  2.81646559945995
 1  2.66939624372437 -1.89997183308331 -1.42092605760576
 1  2.50171764936494 -0.12082780318032 -2.16448960116012
 1  4.28088899449945 -1.09478169336934  0.28715193119312
 1  3.92371133463346  1.15092380278028 -2.82930129982998
 1  4.92880829252925  2.25675593449345 -1.91385785398540
 1  5.85310261786179  0.98010911841184 -3.10388911991199
 1  6.46186824972497  1.42510651065107  0.02530517331733
 1  6.07414153355336 -0.20112815021502  0.65389510621062
 1  7.41021840654065 -1.18108734393439 -1.17208853245325
 1  7.72330476637664  0.36974018211821 -1.81868479207921
 1  9.04458651025102  1.15776366136614 -0.00465283308331
 1  8.93152164086409 -0.40427593379338  0.64589245294529
 1  10.07192474387439  0.10445298299830 -2.07351224072407
 1  9.24456944244425 -2.14346232273227 -1.89364528932893
 1  11.12166472217222 -2.27826461036104 -2.13669791369137
 1  10.15085797179718 -2.72899484148415 -0.76941638133813
 1  11.34651233213321  0.88499072927293  0.30900238773877
 1  11.22649570297030 -0.77052301360136  0.59760038163816
 1  12.85977929682968 -1.58587674887489 -0.89949761736174
 1  12.98188194069407  0.09039973097310 -1.72749611091109
 1  13.84420585728573  0.99341189718972  0.56036337933793
 1  13.87747050015002 -0.63626323102310  1.10181669816982
 1  15.38948223672367  0.55201468646865 -1.32758711671167
 1  15.95561300420042 -2.05536582868287 -0.03295474937494
 1  14.95116816751675 -1.97551992759276 -1.35639305440544
 1  16.51584121352135 -1.49611513641364 -1.58870033953395
 1  16.16548174887489  1.26509434313431  0.90590713501350
 1  16.37970241744174 -0.23792296739674  1.57727048824883
 1  18.21013195189519 -0.45471201860186 -0.41269460986099
 1  17.48410547504751  1.14471179007901 -1.07662123792379
 1  18.50282107470747  2.20325448314831  0.95188319361936
 1  18.93133029332934  0.62084626562656  1.65274527482748
 1  20.65751066376638  0.26368251645164 -0.01570450645065
 1  19.85266937353735  3.14003756565657 -0.77874146754675
 1  21.36081033313332  2.40426707950795 -1.25837720102010
 1  19.43221712611262  1.73239505030503 -1.63010997999800
 1  21.20971694689469  0.90356846594659  2.20784040124012
 1  22.20406211251125  1.94376560626063  1.06749171547155
 1  20.67874760466047  2.71806188948895  1.90505094559456
>>>>>>> 8e03b5b5abfc0030b3aa597dc0de36371bfbd096

