%nproc=4
%Mem=2GB
# td=(NStates=1) CAM-B3LYP/6-31G(d,p) 

TD

0 1
<<<<<<< HEAD
12 -7.11054162716272  0.62217096519652  0.25364305170517
 6 -4.86957157515752 -1.96657783618362  0.50273680638064
 6 -4.74181411031103  2.85309375667567  1.15623198809881
 6 -9.39969470497050  3.07265276077608 -0.38200105980598
 6 -9.48629894359436 -1.79387489848985 -0.92374880398040
 7 -5.05387881248125  0.37777759585959  0.78495891419142
 6 -4.33185289138914 -0.74610443244324  0.82712073527353
 6 -2.90397940334033 -0.38116754245425  1.30212056625663
 6 -3.00000343874387  1.12868553685369  1.64868559925993
 6 -4.31406840174017  1.50816156495650  1.08932596249625
 6 -2.97035211731173  1.24242653075308  3.13983539243924
 6 -1.91012447344734 -0.63852911431143  0.09818377667767
 6 -0.45156257885789 -0.39373372057206  0.50917504680468
 6  0.47717885508551 -0.70645415831583 -0.67169254975498
 8  0.18753999409941 -0.96960236783678 -1.81960829252925
 8  1.75980779127913 -0.47767516391639 -0.33634042294229
 7 -7.06533698159816  2.66178176797680  0.45142383788379
 6 -6.00492977197720  3.42393336913691  0.93613714731473
 6 -6.44364161726173  4.77163145254525  0.85824651185119
 6 -7.74499720672067  4.80730136163616  0.32148053935394
 6 -8.10520479207921  3.51406060136014  0.01915446174617
 6 -5.58359631633163  5.81615408130813  1.37795255575558
 6 -8.55241303890389  6.09459049274928  0.11166815221522
 6 -8.51297518881888  7.25140125872587  0.80433668346835
 7 -9.06499877247725  0.66666952805281 -0.76976100980098
 6 -9.88707496719672  1.84659461256126 -0.77932425652565
 6 -11.17808690529053  1.41444978407841 -1.27751947144715
 6 -11.18678108200820  0.04497986208621 -1.42211092509251
 6 -9.86604228492849 -0.37723969826983 -1.07052206830683
 6 -12.30229905360536  2.41302187318732 -1.52556933173317
 6 -12.30021456775678 -0.82305971607161 -1.89291009950995
 6 -12.24232172057206 -1.16783919511951 -3.30275539413941
 7 -7.17353682198220 -1.36147576117612 -0.07810248724872
 6 -8.26197643744374 -2.18765393749375 -0.52752770797080
 6 -7.85678182378238 -3.57588585608561 -0.40085736303630
 6 -6.55705959005901 -3.57945228222822  0.09094736283628
 6 -6.15555815221522 -2.23245152645265  0.30252305650565
 6 -8.69918738613861 -4.81168401080108 -0.77989646804680
 6 -5.39990446074607 -4.40058394189419  0.32627550015001
 8 -5.17620645854585 -5.64015849924992  0.39268629932993
 6 -4.20156373577358 -3.39350514031403  0.47646751205121
 6 -3.49608023892389 -3.69006422772277  1.83092346524652
 8 -3.79195079567957 -3.16187292349235  2.96379906100610
 8 -2.63267446114611 -4.75406012841284  1.71660024092409
 6 -2.02807339523952 -5.16733096219622  2.97788272377238
 6  2.85718823052305 -0.67270506510651 -1.30409160956096
 6  4.19056114511451 -0.48585676197620 -0.60450059905991
 6  5.10536402080208  0.40484675007501 -0.99987976067607
 6  4.95404382738274  1.27023967326733 -2.13399756505651
 6  6.41013534633463  0.52793464366437 -0.28677516271627
 6  7.60327786568657 -0.11607195409541 -0.92798974947495
 6  8.86183805640564  0.06049091869187 -0.09771158395840
 6  10.14287491199120 -0.45727279897990 -0.80525149564956
 6  10.05482218241824 -1.95373630973097 -1.20462392739274
 6  11.32870574747475 -0.11653543434343  0.04287515611561
 6  12.76387129482948 -0.47774182528253 -0.72039206210621
 6  13.95422489088909 -0.13631483428343  0.18195526302630
 6  15.30476660156016 -0.21603533263326 -0.52002024182418
 6  15.67744941384138 -1.73288092189219 -0.87013663136314
 6  16.42573667956796  0.38548290829083  0.43291779897990
 6  17.71829641904190  0.47827922632263 -0.13797961256126
 6  18.82203257275728  1.24349256625663  0.69139957295730
 6  20.24094276347635  1.29346968046805  0.24013877707771
 6  20.35569692349235  2.05220351755176 -1.12734372707271
 6  21.12526345714572  1.87210014631463  1.19844520792079
 1 -4.08219970447045  3.51509703110311  1.59405399229923
 1 -10.00763115581558  3.93674450945095 -0.66806219771977
 1 -10.29374266366637 -2.72065140594059 -1.24500115231523
 1 -2.63356981388139 -0.91557987188719  2.12552324352435
 1 -2.10663426862686  1.51527511011101  1.18973962436244
 1 -2.02961741924192  0.95741619451945  3.62559627312731
 1 -3.32037709770977  2.22915697319732  3.48454061946195
 1 -3.60050349304931  0.60413509750975  3.59911232403240
 1 -2.13497598249825 -1.65988594899490 -0.04066797599760
 1 -2.13996566906691  0.00053730413041 -0.81958199779978
 1 -0.54303782118212  0.66943155705570  0.73556395549555
 1 -0.17808561056106 -1.01349586478648  1.25937989318932
 1 -5.89560833623362  6.82933157725772  0.91361707090709
 1 -5.70304729412941  5.91557492059206  2.37610390749075
 1 -4.43745770177018  5.64095526192619  1.26074925052505
 1 -9.18586063856386  5.91947809590959 -0.78996922512251
 1 -9.16925814171417  7.96293703260326  0.66366598839884
 1 -7.90314978077808  7.54395079457946  1.49830821632163
 1 -12.42997710281028  3.08802912891289 -2.49054205890589
 1 -13.23396306550655  1.87898178937894 -1.62345353685369
 1 -12.50485221632163  3.02412106680668 -0.63099434343434
 1 -12.40116489488949 -1.75149459455946 -1.14300925582558
 1 -13.23685240414041 -0.51959869666967 -1.79503503100310
 1 -13.03290964356436 -1.84842952915292 -3.50356024052405
 1 -12.53392695689569 -0.17044158175818 -3.81832532823282
 1 -11.13837011631163 -1.30592545964596 -3.76563518351835
 1 -8.98372797579758 -4.39086982988299 -1.87563082718272
 1 -8.14452381718172 -5.69114911911191 -0.72601221422142
 1 -9.40315019991999 -4.83896891819182 -0.16046786938694
 1 -3.55793648954895 -3.35540879157916 -0.57151242274227
 1 -1.20424859135914 -4.51434787448745  3.05581849714972
 1 -2.73987359595960 -5.26907852545255  3.72316515541554
 1 -1.59486759825983 -6.45831510471047  2.92145609850985
 1  2.73486279037904 -1.82827466336634 -1.56323028802880
 1  2.84969244684468 -0.15872159255926 -2.22953610581058
 1  4.50633153875387 -0.97083929912991  0.31915513151315
 1  4.01406036953695  1.66050476087609 -2.65656402610261
 1  5.20457586928693  2.32901316021602 -1.87887435563556
 1  5.75487279487949  1.29507061456146 -2.94805353635364
 1  6.52728479137914  1.63373737373737 -0.16800415761576
 1  6.20878499789979  0.00859282188219  0.53393311001100
 1  7.44149153385339 -1.13334256945695 -1.34383570717072
 1  7.73255569146915  0.29822303040304 -1.89498242184218
 1  8.93649570117012  1.21958984398440  0.16777440964096
 1  8.93759224792479 -0.45251075727573  0.77669553325333
 1  10.36418396979698  0.13358589628963 -1.76017090659066
 1  9.21655664116412 -2.48949692619262 -1.72750867566757
 1  10.99493204890489 -2.12350913481348 -1.68030227412741
 1  9.95763864986499 -2.63061500350035 -0.28105754545455
 1  11.47281496239624  1.01186341654165  0.24743623112311
 1  11.24592764616462 -0.70911687298730  1.02379300090009
 1  12.84474779367937 -1.53322148334833 -1.01895956355636
 1  12.94125787828783  0.01419211021102 -1.63142650395039
 1  13.84583602030203  0.81848440444044  0.75926326932693
 1  13.89227198029803 -0.97461706640664  0.92624914141414
 1  15.15095838433843  0.27208669366937 -1.45716007400740
 1  15.51162860576058 -2.25273556565657  0.20013855995600
 1  14.87358040874087 -2.03836621222122 -1.47915533063306
 1  16.66092572197220 -2.08165369026903 -1.24580605010501
 1  16.07280248094809  1.41288912261226  0.87815435973597
 1  16.40344479167917 -0.36881605670567  1.42673543474347
 1  17.93576451515152 -0.70977752515252 -0.43050639103910
 1  17.73154021852185  0.67058437733773 -1.23370694649465
 1  18.54076486908691  2.30923508120812  0.76109411471147
 1  18.75299245954596  0.89707388838884  1.66822682298230
 1  20.49412432513251  0.15387153535354 -0.19793272927293
 1  19.99859396599660  3.11216477837784 -0.86208980238024
 1  21.50702495459546  2.11639829262926 -1.54799616291629
 1  19.82343624802481  1.72804461526153 -2.00665763476348
 1  21.25974194939494  0.97768587768777  2.08390800800080
 1  22.09930163646364  2.32534376407641  0.83426839313931
 1  20.52721245114511  2.72201228452845  1.75192563306331
=======
12 -7.18897947094709  0.61171992009201  0.02882056945695
 6 -4.92826744474447 -1.97100827922792  0.50754728742874
 6 -4.79267919681968  2.83727217451745  1.08855522042204
 6 -9.36304103960396  3.08642413791379 -0.39734259395940
 6 -9.63428374207421 -1.71511702270227 -0.81676810591059
 7 -5.12744616921692  0.44368418651865  0.81620203850385
 6 -4.37584729082908 -0.67697751975198  0.80595861906191
 6 -2.94251325672567 -0.34206363206321  1.21469182338234
 6 -2.95979941834183  1.16962963126313  1.68853958465847
 6 -4.38383537843784  1.50598134693469  1.12573960386039
 6 -2.92872795489549  1.31277356545655  3.27816922582258
 6 -1.82144560556056 -0.55850111151115  0.20740469876988
 6 -0.38297572017202 -0.35314966216622  0.60786491579158
 6  0.50461159835984 -0.75800931383138 -0.45749112961296
 8  0.26867810791079 -1.06331173877388 -1.63151948364836
 8  1.87170898139814 -0.64411180758076 -0.01712850175017
 7 -7.12260270817082  2.65594118391839  0.33464215971597
 6 -6.03999327832783  3.36992796859686  0.74570810441044
 6 -6.34215146824682  4.75346963636364  0.69934062126213
 6 -7.65119782678268  4.81933256475648  0.35249364066407
 6 -8.14002827442744  3.50359955525553  0.10485303160316
 6 -5.52392034873487  5.89847231313131  1.23547830833083
 6 -8.53222101970197  6.00349138283828  0.16064304970497
 6 -8.40024391569157  7.26941305990599  0.80098634843484
 7 -9.10599287188719  0.69953281438144 -0.64060809450945
 6 -9.83630989068907  1.84427438053805 -0.76771309540954
 6 -11.20797989458946  1.41304964406441 -1.14382610211021
 6 -11.37719012291229  0.16841220532053 -1.32091080508051
 6 -9.99082476317632 -0.37882985728573 -0.93589860596060
 6 -12.29449827352735  2.37113768476848 -1.47854462926293
 6 -12.45279982628263 -0.70362777287729 -1.79517032553255
 6 -12.35477296569657 -1.11271368256826 -3.27214233283328
 7 -7.27591706000600 -1.30440005360536 -0.08085276227623
 6 -8.31956219601960 -2.20081525362536 -0.45111006620662
 6 -7.88544469006901 -3.58238650615061 -0.47244452175218
 6 -6.53176706080608 -3.51439577657766 -0.02915464736474
 6 -6.29466206260626 -2.19255753705371  0.16419922412241
 6 -8.70692816021602 -4.79844268666867 -0.78469694809481
 6 -5.33348781908191 -4.38439232273227  0.16315918851885
 8 -5.22187102500250 -5.57941242464246 -0.08501147044704
 6 -4.18703228262826 -3.34737052685268  0.42524238953895
 6 -3.59049968086809 -3.73692891419142  1.83488386128613
 8 -3.83145474607461 -3.23770050625063  2.93148582968297
 8 -2.68679987368737 -4.76428115051505  1.69038761966197
 6 -2.17095768366837 -5.24514874397440  2.89825476097610
 6  2.85197770947095 -0.86269406400640 -0.99304050445045
 6  4.13506559555956 -0.57541571787179 -0.42349249824983
 6  5.09794327872787  0.23668993439344 -0.97367714041404
 6  5.13500192319232  0.85073772307231 -2.36168033333333
 6  6.41299563236324  0.45727757795780 -0.13759024422442
 6  7.68677621552155 -0.13807415431543 -0.96550350085008
 6  9.00567243984398 -0.07464259465947 -0.13317513031303
 6  10.26589721422142 -0.53842091379138 -0.96313728422842
 6  10.06437313751375 -1.99902083818382 -1.23831729672967
 6  11.41084396129613 -0.19298307910791 -0.04138326972697
 6  12.78218312601260 -0.42022607370737 -0.69308933183318
 6  13.98682815121512 -0.05969717251725  0.27349441694169
 6  15.37938406330633 -0.13644737383738 -0.43584182398240
 6  15.80087175607561 -1.56831446524652 -0.85211482918292
 6  16.43560766666667  0.54758911891189  0.33455796299630
 6  17.91089567896790  0.49089048744874 -0.21781759635964
 6  18.81642201170117  1.34893311031103  0.72271270427043
 6  20.23798246744675  1.42404273777378  0.29367413061306
 6  20.36249760356036  1.97308560576058 -1.24751574427443
 6  21.18657958875888  2.14721765806581  1.15720108350835
 1 -4.10899238373837  3.60135565696570  1.48995358225823
 1 -9.87383777647765  4.06838767376738 -0.61467685918592
 1 -10.18565185458546 -2.59717905870587 -1.25582223442344
 1 -2.32889934683468 -0.98157647154715  2.12874356555656
 1 -2.26269987518752  1.85648923152315  1.11907255765576
 1 -1.96018047554755  1.18053850675067  3.66836054955496
 1 -3.16188124812481  2.32334639213921  3.56264843024302
 1 -3.57473091579158  0.30962564656466  3.62234464726473
 1 -2.03688617351735 -1.72980294069407 -0.13427733693369
 1 -2.26038771127113  0.00348759915992 -0.72337237683768
 1 -0.12956647404741  0.64895950985099  0.69464986408641
 1 -0.11258906090609 -0.97473198839884  1.52021597679768
 1 -5.82311108650865  6.80522916701670  0.90006571577158
 1 -5.74830181958196  5.84613797689769  2.26972326942694
 1 -4.51403535953595  5.68109927632763  0.94924810041004
 1 -9.28886093859386  5.87237338543854 -0.60003023122312
 1 -9.00190140604060  8.10239097799780  0.63712333413341
 1 -7.64703416921692  7.52468886838684  1.47527591309131
 1 -12.05597970307031  3.14090441644164 -2.26104910961096
 1 -13.46453612281228  2.03210710191019 -1.83103429492949
 1 -12.47678941004101  3.13366202090209 -0.80397164116412
 1 -12.34508928732873 -1.56168561366137 -1.14935989088909
 1 -13.39660837973797 -0.09444618141814 -1.55476100360036
 1 -13.17226357895790 -1.78517320352035 -3.54731461596160
 1 -12.50064362856286 -0.24645918351835 -3.88398189388939
 1 -11.55288156745675 -1.60449531663166 -3.60024864486449
 1 -9.05679528252825 -4.84660540344034 -1.78728199229923
 1 -8.05525489028903 -5.75893589778978 -0.48407802080208
 1 -9.48770865576558 -4.84283930523052 -0.02636445904590
 1 -3.58495919181918 -3.30134338503850 -0.39246451795179
 1 -1.57644581108111 -4.59547598729873  3.33730664596460
 1 -3.02727233583358 -5.56621823942394  3.69240207910791
 1 -1.62262037353735 -6.14559383258326  2.69589354225423
 1  2.73127243134313 -1.97954979087909 -1.31669563456346
 1  2.66785426302630 -0.09968568896890 -1.82560571277128
 1  4.36422732833283 -0.98221043624362  0.66052926892689
 1  4.16421538503850  0.86583529392939 -2.65196356605661
 1  5.59284469616962  1.94462472137214 -2.35951241944195
 1  5.69895720332033  0.49412051955196 -3.19896862786279
 1  6.59663172607261  1.43469746974697  0.06867951075108
 1  6.47833195259526  0.05102706530653  0.86608632533253
 1  7.52448983368337 -1.29936917211721 -1.34586591019102
 1  7.89259169506951  0.48678188628863 -1.74697762136214
 1  9.36602865446545  0.97994587958796  0.19886751895190
 1  8.66561505020502 -0.65097060326033  0.92796065976598
 1  10.13514106550655 -0.03248071037104 -2.09747463696370
 1  9.17326231173117 -2.09131710821082 -2.05455137993799
 1  10.98238079377938 -2.40823760766077 -1.68619286318632
 1  9.97305019101910 -2.48317025902590 -0.10286972667267
 1  11.20206788768877  0.82608483868387  0.40223171067107
 1  11.37044009740974 -1.10512647394739  0.86295691729173
 1  12.87002032093209 -1.46041420262026 -1.06124379197920
 1  12.83369712221222  0.40991168216822 -1.57214057535754
 1  13.86525796249625  0.99668222422242  0.52682002500250
 1  13.78339109220922 -0.66164576927693  1.23599011551155
 1  15.17563085158516  0.29211869686969 -1.54472883088309
 1  16.03746118901890 -2.16887717981798 -0.14188564246425
 1  15.00881393209321 -1.91465384098410 -1.49446686178618
 1  16.73655328472847 -1.79873539843984 -1.41546301580158
 1  16.18559376007601  1.79562739643964  0.55293183748375
 1  16.49040348754875  0.04105493039304  1.31183394459446
 1  18.05357629632963 -0.66057260466047 -0.10177351775178
 1  17.91857892239224  1.04403172207221 -1.30190376617662
 1  18.49285007760776  2.23239739743974  0.72077008230823
 1  18.68147530783078  0.76913109410941  1.65733573387339
 1  20.58394330703070  0.45560170837084  0.34115117911791
 1  19.79928403500350  3.08338190009001 -1.14051764516452
 1  21.38904315641564  2.00463711651165 -1.34676603990399
 1  19.90684458885889  1.32321413221322 -1.88507547654765
 1  20.92315829102910  1.74896300540054  2.25398501570157
 1  22.22589429572957  2.05918714841484  0.84794976127613
 1  20.85158488838884  3.12634271757176  1.33177361786179
>>>>>>> 8e03b5b5abfc0030b3aa597dc0de36371bfbd096

