%nproc=4
%Mem=3GB
# td=(NStates=1) iop(3/107=0140000000,3/108=0140000000) CAM-B3LYP/6-31G(d,p) 

TD

0 1
12 -7.08916360806081  0.63579196269627  0.20973734373437
 6 -4.85975479197920 -2.00231746234623  0.53713911631163
 6 -4.73723975457546  2.71953067096710  1.30198030323032
 6 -9.24077084158416  3.14500205320532 -0.49121159645965
 6 -9.66576267426743 -1.74100586628663 -0.85379218411841
 7 -5.02329936113611  0.42229832043204  0.63060088408841
 6 -4.33572581988199 -0.77051819501950  0.86159405410541
 6 -2.96094231483148 -0.45976437443744  1.27748341744174
 6 -2.94898812571257  1.03612231383138  1.78579485878588
 6 -4.34228446314631  1.48376302740274  1.16295068896890
 6 -2.87687386818682  1.19790260956096  3.26745205980598
 6 -1.91387711741174 -0.72826881608161  0.20961477177718
 6 -0.44780048924892 -0.64492774077408  0.72397577987799
 6  0.47117904110411 -0.82796941884188 -0.42382217231723
 8  0.09107932473247 -1.06164994269427 -1.58261565466547
 8  1.74825342374237 -0.45234517291729 -0.02667805540554
 7 -7.01329897329733  2.63967717761776  0.34747567166717
 6 -5.94910505430543  3.36634040144014  0.84533040914091
 6 -6.21896680508051  4.68257512111211  0.80722898159816
 6 -7.56752153745375  4.91573337853785  0.36279240564056
 6 -8.02040156765677  3.56259319811981  0.09800779937994
 6 -5.33522555645565  5.86048552225223  1.06357651285128
 6 -8.35077508550855  6.05421569116912  0.09194980748075
 6 -8.39312772277228  7.31508065776578  0.66990104940494
 7 -9.04163320442044  0.75380237463746 -0.62472904680468
 6 -9.75327281358136  1.90666399069907 -0.76501931543154
 6 -11.09057301000100  1.54479392389239 -1.22876773647365
 6 -11.19530901810181  0.18787633343334 -1.27680770907091
 6 -9.97911551515151 -0.39007920132013 -0.90495269656966
 6 -12.18192913061306  2.45613085448545 -1.55559501220122
 6 -12.29763355625563 -0.64426054985499 -1.88558788938894
 6 -12.13145505440544 -0.99274946724672 -3.33888453965397
 7 -7.25659862226223 -1.39031386708671 -0.14414708980898
 6 -8.27133145944595 -2.23169171467147 -0.51415299519952
 6 -7.87715975577558 -3.59401995339534 -0.43090339013901
 6 -6.50358814931493 -3.51355433753375 -0.18456053775378
 6 -6.14692842454245 -2.14796275207521  0.11930376577658
 6 -8.70456279577958 -4.78738483688369 -0.82925630873087
 6 -5.35561102400240 -4.36135969936994  0.16855182928293
 8 -5.34483547584759 -5.54500135713571  0.21394734333433
 6 -4.18768327092709 -3.39480692809281  0.58210653225323
 6 -3.57095127192719 -3.66459440214021  1.87990395889589
 8 -3.84681746514651 -3.19837719561956  3.00310366856686
 8 -2.68932428522852 -4.84966358485849  1.70319935743574
 6 -2.22624158115812 -5.42325753165317  3.00247764816482
 6  2.68987530793079 -0.66540482938294 -1.12067558475848
 6  4.02167305250525 -0.48955422332233 -0.53771633443344
 6  5.07466295759576  0.26967349534953 -0.84726760376038
 6  5.02176590219022  1.03419109440944 -2.20983511851185
 6  6.40387666636664  0.30712132813281 -0.13902442684268
 6  7.51095254785479 -0.02786133413341 -1.10538086678668
 6  8.84846255785579  0.02816100000000 -0.29202530493049
 6  10.15593105370537 -0.50466212941294 -1.02019773977398
 6  10.07019029562956 -1.86928480838084 -1.57679464546455
 6  11.37460212401240 -0.20480537163716 -0.07516547904790
 6  12.79464720022002 -0.46726676017602 -0.71729923502350
 6  13.89810108190819  0.01667595329533  0.11887829942994
 6  15.25025101610161 -0.27465654925493 -0.58764441694169
 6  15.60988725972597 -1.72969135743574 -0.82267409370937
 6  16.35069206190619  0.45991250855086  0.32749748444844
 6  17.65030261796180  0.64407813741374 -0.26633316031603
 6  18.68301872047205  1.34186226472647  0.62129538623862
 6  20.21705450985099  1.31459089158916  0.26054276027603
 6  20.48673151895190  2.16145345044504 -0.94889958585859
 6  21.02131719871987  2.03090479037904  1.42057599759976
 1 -4.09238960246025  3.41459471087109  1.83947004280428
 1 -9.93092521582158  4.09833210771077 -0.70156468266827
 1 -10.42202662676268 -2.47784331943194 -1.03365118451845
 1 -2.73629091629163 -1.22990319301930  2.03160965166517
 1 -2.12048551485148  1.62732479357936  1.29887353635364
 1 -1.95359844624462  0.69019812621262  3.70656099349935
 1 -3.03581069016902  2.14347357015702  3.70920894309431
 1 -3.69419221972197  0.73048820312031  3.72023370857086
 1 -2.15535065406541 -1.71602227302730 -0.23657166426643
 1 -1.94881125012501 -0.06285866606661 -0.70546728132813
 1 -0.32287771647165  0.30459004630463  1.15437930093009
 1 -0.30049847014701 -1.54819558615862  1.45029848814881
 1 -5.51245542324232  6.78422593459346  0.50669050035003
 1 -5.42561403270327  5.98778165956596  2.14695670817082
 1 -4.32948779337934  5.33886815481548  0.86841757435744
 1 -9.21971223102310  5.57491087308731 -0.70619197189719
 1 -8.97078614231423  8.19116883788379  0.37150692639264
 1 -7.74572250435043  7.61713855025503  1.50563952425243
 1 -11.81548202120212  3.05343449054906 -2.36864269576958
 1 -13.23623092079208  1.71536027842784 -1.71510723892389
 1 -12.21182221492149  3.20235756985699 -0.87996843634363
 1 -12.41026299119912 -1.54400532333233 -1.28593209410941
 1 -13.09664196329633 -0.24734744524452 -1.72851860626063
 1 -12.82742794199420 -1.61147480958096 -3.70408136623662
 1 -12.14870527622762  0.00997252595260 -3.94721369976998
 1 -11.10565540494049 -1.42308333553355 -3.38131640984098
 1 -8.91823644224422 -4.66887338813881 -1.96077214021402
 1 -8.20416480168017 -5.76990294359436 -0.67280723582358
 1 -9.65590976997700 -4.73367181558156 -0.30656292499250
 1 -3.46822434093409 -3.41882848844884 -0.34498223632363
 1 -1.54072746034603 -4.65968818221822  3.43334505210521
 1 -3.01089752705271 -5.67928745364537  3.62606364406441
 1 -1.66319684018402 -6.20649143394339  2.61632499359936
 1  2.51943999879988 -1.65302192499250 -1.61560300900090
 1  2.52318876017602  0.12827091189119 -1.86504756225623
 1  3.97290777747775 -0.96493490729073  0.45012641284128
 1  4.14618993049305  1.32172771547155 -2.70330081578158
 1  5.56077300950095  1.94497492139214 -1.96527396579658
 1  5.74966453495350  0.54553574447445 -3.03196945384538
 1  6.57735591949195  1.21753173377338  0.46021563546355
 1  6.16252412451245 -0.52954029072907  0.60695689118912
 1  7.29044116691669 -1.16957763076308 -1.43820857805781
 1  7.41551410991099  0.64798390139014 -1.93518434133413
 1  8.98631467576758  0.93443294079408  0.22110453855386
 1  8.66316943774378 -0.74125247794780  0.65448157155716
 1  10.01923655545555  0.14539068686869 -2.02911806980698
 1  9.28047765686569 -1.88895717921792 -2.24079246114611
 1  10.87939708030803 -2.19485288458846 -2.13158851695170
 1  9.87496969406941 -2.73744785948595 -0.76559395309531
 1  11.40373201480148  0.89164559795980  0.25546331713171
 1  11.29837743324332 -0.80878217581758  0.89520584068407
 1  12.82245019751975 -1.59066648594859 -0.79653192469247
 1  12.83231906180618 -0.04797986198620 -1.92794712841284
 1  13.65545696599660  1.09179454275428  0.19148397709771
 1  14.03765207580758 -0.43070944984498  1.12023439743974
 1  15.13201360276028  0.47052044904490 -1.43960522932293
 1  15.22694649144915 -2.13559290049005  0.09755161966197
 1  14.87797944234423 -1.99248376837684 -1.68429980348035
 1  16.70051833143314 -1.94309520652065 -0.90326683998400
 1  16.01993526702670  1.32052038573857  0.66061197749775
 1  16.35323940174018 -0.00983726852685  1.26867536223622
 1  18.24078081578158 -0.41300781478148 -0.59649984558456
 1  17.40085739533954  1.28329722382238 -1.10386613021302
 1  18.60684974187419  2.49548081608161  0.77571951875188
 1  18.41599756225623  0.93578841834183  1.53987723322332
 1  20.63163299559956  0.33715471307131  0.18133402560256
 1  20.11429824832483  3.05756653315332 -0.83092527722772
 1  21.36580038083808  2.25254639673967 -1.21960994219422
 1  19.98313671127113  1.66362665286529 -1.86758514291429
 1  20.71406526002600  1.36432207310731  2.49355302410241
 1  22.15119301210121  1.91644211491149  1.31698835243524
 1  20.54242432093209  2.95727184438444  1.54577171387139

