%nproc=4
%Mem=2GB
# td=(NStates=1) CAM-B3LYP/6-31G(d,p) 

TD

0 1
12 -7.16136670967097  0.62938168626863 -0.05422773537354
 6 -4.89393401140114 -1.92874405280528  0.63415994869487
 6 -4.79487941684168  2.82110055735574  1.25215158005801
 6 -9.39386412191219  3.10653614911491 -0.52452531223122
 6 -9.47473778747875 -1.72953846484648 -0.92633906300630
 7 -5.07738116271627  0.45405522362236  0.76400681898190
 6 -4.33454316041604 -0.66332615461546  0.76396441964196
 6 -2.94379338473847 -0.40172959865987  1.27696805100510
 6 -3.06702014041404  1.06562923122312  1.76024675537554
 6 -4.41460845574557  1.50816156495650  1.22417944784478
 6 -3.13638872097210  1.16667895599560  3.30960236913691
 6 -1.94948840984098 -0.53524878627863  0.14800875917592
 6 -0.50469789238924 -0.32321666886689  0.55345947524752
 6  0.43646478367837 -0.60374388728873 -0.51777715821582
 8  0.17167840794079 -1.18957436503650 -1.57399373107311
 8  1.75723753425343 -0.25249264566457 -0.16642343124312
 7 -6.97963841174117  2.62405799559956  0.28254695019502
 6 -6.00760003900390  3.43532450825083  0.79813334693469
 6 -6.40524777787779  4.81634592399240  0.85088577577758
 6 -7.62472517951795  4.81213184468447  0.32622101340134
 6 -8.11348562016202  3.53047224252425 -0.03335078877888
 6 -5.54131208790879  5.96318878477848  1.34276903740374
 6 -8.57544534213421  6.01042207590759  0.20700768616862
 6 -8.59008289958996  7.13688980758076  0.92582883268327
 7 -9.05481775437544  0.64235709680968 -0.63692772647265
 6 -9.73879013871387  1.76277623072307 -0.78539486358636
 6 -11.14967406400640  1.47504584368437 -1.24348606810681
 6 -11.23018542244224  0.07249261336134 -1.41141985598560
 6 -9.82999868056806 -0.45881785608561 -1.04143916001600
 6 -12.24823364706471  2.45174574557456 -1.45098187298730
 6 -12.33562810911091 -0.73945135523552 -1.89136994549455
 6 -12.21006849524952 -1.12629504070407 -3.36455157375738
 7 -7.23142261056106 -1.44823443704370 -0.21708638563856
 6 -8.17713795359536 -2.28433360546055 -0.54134909010901
 6 -7.81476762236224 -3.63184145164516 -0.50417769506951
 6 -6.49035291939194 -3.59948428542854 -0.01414314621462
 6 -6.23423602000200 -2.25354363566357  0.18032083628363
 6 -8.49991745914591 -4.87114995739574 -0.90019849824982
 6 -5.29955442574257 -4.40564444794479  0.22511538413841
 8 -5.02799163706371 -5.61047553095309  0.27754478517852
 6 -4.10100367976798 -3.30423621342134  0.55167503280328
 6 -3.46272690359036 -3.53943916521652  1.91207158005801
 8 -3.71830343094309 -3.13424016021602  2.98878155925593
 8 -2.76869806350635 -4.71496621902190  1.87192577347735
 6 -2.14691527942794 -5.15083931303130  3.01295623112311
 6  2.71898441014101 -0.72221001560156 -1.03669486988699
 6  4.16949903890389 -0.42234041034103 -0.51175132413241
 6  5.11110459485949  0.37481374677468 -0.89712948564856
 6  4.96150457345735  1.17435008430843 -2.09969413471347
 6  6.44593892669267  0.35967781798180 -0.18214469966997
 6  7.54849238713871 -0.17643799069907 -0.95450240074007
 6  8.92817469006901 -0.06063119351935 -0.12369418221822
 6  10.13984460896090 -0.56557362906291 -0.89098006850685
 6  10.15824252445244 -2.01172210831083 -1.28339180418042
 6  11.46329920682068 -0.19716349714971 -0.10713984538454
 6  12.74548945664566 -0.37626167726773 -0.88598862176218
 6  13.95835530393039  0.03800259745975 -0.01105403790379
 6  15.38214433933393 -0.28181191029103 -0.67016525632563
 6  15.63047471637164 -1.75676331013101 -0.82139175687569
 6  16.38954306020602  0.39756411641164  0.32910741794179
 6  17.75790037943794  0.41365276367637 -0.23429924452445
 6  18.71301167066707  1.24151236823682  0.69677011001100
 6  20.07971664086408  1.37149748324832  0.22201696489649
 6  20.40033138693870  2.12100039723972 -1.07527852055206
 6  21.05531646244625  1.81279421572157  1.33619898329833
 1 -4.05762724722472  3.49667518891889  1.66021060796080
 1 -10.00920131283128  3.96770760576058 -0.54731012251225
 1 -10.24968825822582 -2.40633997479748 -1.31354800700070
 1 -2.79081553845385 -1.15163347724772  2.11388207940794
 1 -2.17392099729973  1.61198478107811  1.40239088948895
 1 -2.04761921942194  0.96803725662566  3.69255296879688
 1 -3.57533259325933  2.08370242774277  3.94686685208521
 1 -3.68207164986499  0.51923660766077  3.98040045284529
 1 -2.05995848074807 -1.60221018141814 -0.20127403660366
 1 -2.18214988748875 -0.00403315291529 -0.83534357395740
 1 -0.26653017041704  0.67042165606561  0.94464486358636
 1 -0.26445424742474 -0.80157467266727  1.52079603480348
 1 -5.78378715411541  6.78746739083908  0.62101781098110
 1 -5.49198618801880  6.33913727682768  2.41294759185919
 1 -4.49227318331833  5.47731889828983  1.14491766736674
 1 -9.12654470697070  5.96984313241324 -0.70814104230423
 1 -9.26327754365436  7.85756649554955  0.80031965376538
 1 -7.75701516731673  7.10745714521452  1.61904028952895
 1 -11.95446955205521  2.83613393939394 -2.37364036873687
 1 -13.11444111331133  1.89714360556056 -1.59766095759576
 1 -12.22266399749975  3.38327698239824 -0.58437968196820
 1 -12.23497827622762 -1.79010845594559 -1.36938189308931
 1 -13.23006172507251 -0.23377011381138 -1.49786531403140
 1 -13.11699805240524 -1.69226391259126 -3.73088297279728
 1 -12.15929949414942 -0.14729926752675 -4.07240073577358
 1 -11.29888616791679 -1.71219608670867 -3.44850347034704
 1 -8.41692129512951 -4.97364810771077 -2.01357462156216
 1 -8.16043540834083 -5.67136714091409 -0.17113672667267
 1 -9.57904778967897 -4.77851287258726 -0.49261108370837
 1 -3.46411710761076 -3.50494374507451 -0.22775804730473
 1 -1.60521868836884 -4.32988942864286  3.61334424972497
 1 -2.88839844844484 -5.50165178277828  3.83856669556956
 1 -1.64724283578358 -6.21343061626163  2.75935988888889
 1  2.55586489058906 -1.73872570847085 -1.37379134413441
 1  2.66428390599060 -0.13239896029603 -2.06292944514451
 1  4.16899780538054 -0.97316953215322  0.50556377237724
 1  4.00033899739974  0.92084079447945 -2.88075644534453
 1  4.83824923662366  2.34408466736674 -1.86564303250325
 1  5.72139944754475  1.04459556705670 -2.99422815381538
 1  6.70033209610961  1.50661466146615  0.15079772257226
 1  6.35995011441144 -0.23091112851285  0.80620033673367
 1  7.41784916961696 -1.11637087228723 -1.45964728832883
 1  7.74710714661466  0.60974418251825 -1.63051597519752
 1  9.20783283488349  0.94353223822382  0.03992162436244
 1  8.78262675137514 -0.58355386158616  0.81655951965197
 1  10.34396194759476 -0.06001346364636 -1.67849273877388
 1  9.10294528002800 -2.40457843434343 -1.78870479527953
 1  11.00565312101210 -2.27723450735073 -1.80563480738074
 1  10.05771865786579 -2.83028497049705 -0.40144958465847
 1  11.43586126702670  0.72311454165417  0.26240772827283
 1  11.46625967936794 -0.67684364566457  0.91902252385239
 1  13.00170348924892 -1.24714287548755 -1.45186285388539
 1  12.95804955745574  0.22187287828783 -1.80850421172117
 1  13.88596003270327  1.21877443344334  0.09554689768977
 1  13.87310006310631 -0.40102970767077  0.85127164366437
 1  15.42310559905991  0.28708819381938 -1.50618497649765
 1  15.28790623352335 -2.50455074717472  0.12189073517352
 1  14.77401045174518 -2.25076745234524 -1.43822123722372
 1  16.71529115851585 -2.11621714661466 -1.39787125662566
 1  16.05113031373137  1.32006984068407  0.51199774407441
 1  16.33105755295529  0.04435526042604  1.40244300550055
 1  18.26819775847585 -0.53636018341834 -0.66013935433543
 1  17.50975804030403  0.96976429532953 -1.25508908470847
 1  18.44086487908791  2.35125928362836  0.77764576987699
 1  18.85378253855386  0.88255243624362  1.67018701900190
 1  20.35563047574757  0.45868201640164 -0.04588752475248
 1  19.96534064066406  3.00811437333733 -1.19753334673467
 1  21.42374662676268  2.23438009080908 -1.33286464976498
 1  19.85458936333634  1.41042285308531 -1.77458442744274
 1  21.04738071327133  1.47916602570257  2.34531414861486
 1  22.07116882318232  1.62817404710471  0.93111807810781
 1  20.88945867576758  3.01975205850585  1.59356979747975

