%nproc=4
%Mem=2GB
# td=(NStates=1) CAM-B3LYP/6-31G(d,p) 

TD

0 1
<<<<<<< HEAD
12 -7.17964853785378  0.60988973707371  0.06661434883488
 6 -4.88944356235624 -1.92950412881288  0.51958849154915
 6 -4.82641257015702  2.84315276257626  1.15582194709471
 6 -9.39802453795379  3.07772326782678 -0.40622348204820
 6 -9.59488980268027 -1.78362387338734 -0.77934436353635
 7 -5.18846227082708  0.45896571467147  0.71831224952495
 6 -4.35518522462246 -0.69359918191819  0.84690271347135
 6 -2.87374638003800 -0.31587101280128  1.24044439863986
 6 -3.05664910331033  1.16917958625863  1.64739547024703
 6 -4.45554254915491  1.52370311911191  1.07533456335634
 6 -2.85655073717372  1.27545983408341  3.15643705260526
 6 -1.92993645464546 -0.61015627702770  0.00936489478948
 6 -0.54958238083808 -0.36682102930293  0.51360548984899
 6  0.51213235043504 -0.64649816271627 -0.56442182268227
 8  0.15836707680768 -1.14445985358536 -1.67407373907391
 8  1.80442225272527 -0.50214761116112 -0.19904669356936
 7 -7.02742319021902  2.56001159095910  0.31782047754775
 6 -5.99281856085609  3.40827180298030  0.73483701730173
 6 -6.36077333043304  4.79361365076508  0.67372806000600
 6 -7.71452415941594  4.82439307080708  0.30718911021102
 6 -8.13857812941294  3.46272546784678  0.09224177047705
 6 -5.43433138983898  5.81400386628663  1.13706846734673
 6 -8.47882568016801  6.03042407610761  0.32732971837184
 6 -8.31179507080708  7.13146926552655  0.98581483128313
 7 -9.21121339393939  0.71217407850785 -0.51282531623162
 6 -9.97370363006300  1.78469842294229 -0.68062438653865
 6 -11.26460555715571  1.44037237633763 -1.18302002150215
 6 -11.24883728762876  0.06552191629163 -1.22087080108011
 6 -9.90205588628863 -0.46427840214021 -0.89819483558356
 6 -12.31183000670067  2.49450002100210 -1.52683945874587
 6 -12.26354090039004 -0.83620103020302 -1.72823363186319
 6 -12.01629911831183 -1.12557496869687 -3.28472359095910
 7 -7.24850431873187 -1.44785439903990 -0.16723140014001
 6 -8.37355759555956 -2.22379755185519 -0.53051800700070
 6 -7.97398354395440 -3.65448371587159 -0.39606688398840
 6 -6.53392727682768 -3.58652298929893 -0.08401013291329
 6 -6.26284888128813 -2.21497977927793  0.11796460066007
 6 -8.73136060346035 -4.87923076547655 -0.70332881128113
 6 -5.41330580088009 -4.42627651115111  0.11933480608061
 8 -5.22445128302830 -5.58203268666867  0.24712174287429
 6 -4.25154873427343 -3.33927971777178  0.62954281958196
 6 -3.52328295919592 -3.68081330263026  1.95929630253025
 8 -3.72099369997000 -3.08892562876288  3.00601328242824
 8 -2.77007820152015 -4.75385010741074  1.73486206710671
 6 -2.21237182508251 -5.09155338443844  2.96768170367037
 6  2.78729124082408 -0.54148194279428 -1.24658585898590
 6  4.14803689268927 -0.37957613391339 -0.52727287628763
 6  5.14087757215722  0.39296556195620 -1.03611338403840
 6  5.13019144214421  1.20196284558456 -2.29998416371637
 6  6.41755608840884  0.42888473867387 -0.30252673787379
 6  7.69624716261626 -0.11406175307531 -1.11585853635364
 6  8.90395226782678 -0.10265539593959 -0.26772858565857
 6  10.17057768226823 -0.49277634933493 -0.97983895439544
 6  10.18166486668667 -1.87836877297730 -1.41543500850085
 6  11.36770964786479 -0.24242802360236 -0.03946307770777
 6  12.89562447014701 -0.49526357745775 -0.59258928182818
 6  14.02717218561856 -0.14026522932293  0.27073414091409
 6  15.28616474137414 -0.13639736883688 -0.44706294609461
 6  15.74894656355636 -1.58089572337234 -0.77385700340034
 6  16.44227833373337  0.40980534053405  0.56122062926293
 6  17.84795938533853  0.40829222762276 -0.08964477907791
 6  18.76350672017202  1.30641885888589  0.75701613461346
 6  20.27694636383638  1.35775610911091  0.19714447764776
 6  20.39200055385539  2.06755505270527 -1.08343933663366
 6  21.21626255705571  1.93777671397140  1.30315567896790
 1 -4.20180166466647  3.54693021442144  1.41585617251725
 1 -10.05667606030603  3.84739557455746 -0.61632702420242
 1 -10.27460074947495 -2.43946328712871 -0.97353400560056
 1 -2.53330978787879 -0.94869318321832  2.10643133433343
 1 -2.26426003120312  1.99178276087609  1.27318796919692
 1 -2.00035449294930  0.54013446634663  3.50313402690269
 1 -2.88607366736674  2.22639669716972  3.64848701410141
 1 -3.59722316501650  0.77520220422042  3.52515492829283
 1 -2.01423390829083 -1.54883484388439 -0.35843975317532
 1 -2.13436510901090  0.12227947834783 -0.84353439303930
 1 -0.44429794719472  0.62945755965597  0.74271467056706
 1 -0.26244404640464 -1.08810332553255  1.34219817501750
 1 -5.78232700810081  6.75239388348835  0.55652136133613
 1 -5.47719470887089  6.12457582068207  2.23981027812781
 1 -4.46462041804180  5.64690585698570  0.65736891249125
 1 -9.52743479597960  6.17901404950495 -0.29250947914791
 1 -8.78770998689869  8.18102884178418  0.88368799059906
 1 -7.31060052585259  7.06071247074707  1.72637102260226
 1 -11.91366547164717  3.16305663166317 -2.26488949364937
 1 -13.45809547874787  2.07298118931893 -1.88980017151715
 1 -12.69718144924492  3.06509516421642 -0.71584282828283
 1 -12.61557633603361 -1.63383282838284 -1.13285824072407
 1 -13.25531425032503 -0.35779251605161 -1.65839136663666
 1 -12.87597394999500 -1.66888157435744 -3.87046693119312
 1 -11.82847641184118 -0.35315985358536 -3.84166766246625
 1 -11.27101338063807 -2.13284815191519 -3.38913753375337
 1 -9.36360596359636 -4.73546428932893 -1.72387565166517
 1 -8.06908627342734 -5.68066807100710 -0.73731334433443
 1 -9.38282816771677 -4.99239426072607  0.08006618401840
 1 -3.57274797069707 -3.57947119781978 -0.25286055755576
 1 -1.32245041154115 -4.49747618731873  3.47970088538854
 1 -2.84567417601760 -5.44668628622862  3.78485132403240
 1 -1.74138224972497 -6.05984525772577  2.45560951385138
 1  2.71982128622862 -1.53405524142414 -1.66988095309531
 1  2.53362083968397  0.04944922452245 -2.08303145534553
 1  4.47131803740374 -0.76219843504350  0.26821003700370
 1  4.30224918841884  1.12449115951595 -2.90927929762976
 1  5.41281669336934  2.23971423032303 -2.33425989418942
 1  5.97199450705071  0.86608771627163 -3.10872960396040
 1  6.80584264716472  1.38109210921092  0.02542518531853
 1  6.37964208360836 -0.04189222662266  0.69712942964296
 1  7.38060544524452 -1.08325756095610 -1.47964928852885
 1  7.76752918881888  0.50923413151315 -1.91863478707871
 1  8.85914796639664  0.67022490749075  0.30144777697770
 1  8.79663815251525 -0.99379488568857  0.51103896759676
 1  10.40549810121012  0.20691322902290 -1.96491138063806
 1  9.11635662116212 -2.27245522202220 -1.92249817461746
 1  11.06338889458946 -2.10545732963296 -2.43970821472147
 1  10.36713959996000 -2.63153509550955 -0.65977541724172
 1  11.44004168506851  0.69949217941794  0.28992047954795
 1  11.39299235263526 -0.75734169546955  0.96184680628063
 1  12.98400171907191 -1.64664282548255 -0.80634830243024
 1  12.90510426292629  0.30204089508951 -1.45942930423042
 1  13.90813224992499  0.94201675767577  0.38593593659366
 1  14.06490924402440 -0.77200680538054  1.08729524602460
 1  15.23606689518952  0.63214269926993 -1.25272963096310
 1  15.72683012591259 -2.11284157625763  0.08710725682568
 1  14.96879993069307 -2.12635501110111 -1.38824623972397
 1  16.74297392679268 -1.84725024992499 -1.21364283378338
 1  15.96746194689469  1.31306914061406  0.99284582888289
 1  16.32799724692469 -0.28954812991299  1.40009277047705
 1  18.14962590129013 -0.56278282568257 -0.29840318071807
 1  17.73822088658866  0.95950326922692 -1.12026560236024
 1  18.36169696229623  2.19028318601860  0.85987399269927
 1  18.82159932023202  1.01514569556956  1.84189418971897
 1  20.31528644134413  0.19825597379738  0.10071713571357
 1  20.03525763236324  3.19273283518352 -0.82672626602660
 1  21.46644089618962  1.99162581538154 -1.68508987228723
 1  19.47720162456246  1.60935274607461 -1.76869383838384
 1  21.37563353855386  1.23462157125713  2.11062067926793
 1  22.23347505380538  1.92621385108511  0.83365833213321
 1  20.83738346824683  3.01757184048405  1.47647808830883
=======
12 -7.15038561156116  0.62351109920992  0.16054374177418
 6 -4.87942256025603 -1.96414759315932  0.62664919761976
 6 -4.83510343924392  2.82400084738474  1.14071043594359
 6 -9.31029576507651  3.09999549504950 -0.51644450415041
 6 -9.50462077577758 -1.67631314231423 -0.87715414451445
 7 -5.08367179177918  0.45341515961596  0.68957937623762
 6 -4.27444715081508 -0.73021284328433  0.83761178437844
 6 -2.93037204260426 -0.41490091579158  1.22201255545555
 6 -3.00963440184018  1.15521819011901  1.74274500520052
 6 -4.36997399229923  1.50844159295930  1.15198222812281
 6 -2.95285036713671  1.36003829192919  3.19448085698570
 6 -1.87470093109311 -0.58698395979598  0.06679063736374
 6 -0.41472889548955 -0.41520586778678  0.50744487378738
 6  0.55030616781678 -0.71115462836284 -0.60178555905591
 8  0.23422466256626 -1.14393980158016 -1.72195852755276
 8  1.82532434293429 -0.44414181058106 -0.24316110501050
 7 -7.14954540244024  2.68603419321932  0.45250394589459
 6 -6.06483576257626  3.43045402120212  0.81163469706971
 6 -6.36498375147515  4.76027031643164  0.74430511771177
 6 -7.66720942794279  4.88656928842884  0.20984937623762
 6 -8.13548782038204  3.52707190249025  0.15241778807881
 6 -5.53151110781078  5.86525899179918  1.17991275177518
 6 -8.46458425602560  6.04045507920792 -0.01103411801180
 6 -8.43770766206621  7.23324944354435  0.59271552135214
 7 -9.08701097369737  0.65080794189419 -0.56850088378838
 6 -9.84875113481348  1.77957791089109 -0.62926925102510
 6 -11.14483357995799  1.44379271837184 -1.06242796229623
 6 -11.20822322622262  0.11515687978798 -1.30705941994199
 6 -9.86058173887389 -0.33103507780778 -0.87964298039804
 6 -12.29005782948295  2.42042261326133 -1.32720949574958
 6 -12.25313986028603 -0.77941535163516 -1.67231804030403
 6 -12.31914940334033 -1.24410682188219 -3.09309442804280
 7 -7.29766923522352 -1.34296390999100  0.02782810581058
 6 -8.32315255505551 -2.14681985408541 -0.47163211841184
 6 -7.86261240684068 -3.61744001150115 -0.51831910921092
 6 -6.56734061816182 -3.65283962096210 -0.01590332223222
 6 -6.23453605000500 -2.21857013831383  0.20199300350035
 6 -8.67392485988599 -4.83118596099610 -0.94160263866387
 6 -5.32605707600760 -4.39578346184618  0.15040791339134
 8 -5.21361019891989 -5.54527901130113  0.11038806950695
 6 -4.17924150355035 -3.27765355515552  0.45868573387339
 6 -3.49242987388739 -3.70697591889189  1.77720809370937
 8 -3.74186578717872 -3.18744548074807  2.81951463256326
 8 -2.71136232993299 -4.70370509290929  1.44858343924392
 6 -2.04817540544054 -5.12130635973597  2.70264520002000
 6  2.84489700140014 -0.92586038063806 -1.05115631603160
 6  4.17642973197320 -0.53494167046705 -0.47680782978298
 6  5.17701118551855  0.27376364176418 -0.83910368306831
 6  5.01789021202120  1.17161981128113 -2.10841500680068
 6  6.35937026982698  0.47579943014301 -0.17854433963396
 6  7.66404394229423 -0.04929527642764 -0.91380833133313
 6  8.91903377597760 -0.16630176057606  0.01414960216022
 6  10.14021464596460 -0.58039511121112 -0.79302027252725
 6  10.02855955615562 -2.03632456855686 -1.11967543254325
 6  11.47536041294129 -0.29661344214421  0.15645651425143
 6  12.73233814151415 -0.59274332543254 -0.64628465136514
 6  13.91186065446545 -0.01336253905391  0.14520158765877
 6  15.22125825072507 -0.20494422352235 -0.48723696349635
 6  15.69450111901190 -1.69469710351035 -0.84691430913091
 6  16.33044715061506  0.33438779877988  0.36676118331833
 6  17.82127671707170  0.59391078947895 -0.20779659425943
 6  18.79740010951095  1.17829604660466  0.77562799579958
 6  20.23629229842984  1.46762709620962  0.15114987818782
 6  20.16399775357536  2.27159545674567 -1.20424141684168
 6  21.12418334913491  2.04777771407141  1.13931929532953
 1 -4.12513399789979  3.55645116651665  1.71387597449745
 1 -9.92755314801480  4.09105994099410 -0.99409480098010
 1 -10.23665695509551 -2.53770311111111 -1.03470012221222
 1 -2.42521897879788 -0.83959227312731  2.01707239843984
 1 -2.26856046124612  1.70205378797880  1.42247289768977
 1 -1.91742620012001  1.09166961986199  3.47479119261926
 1 -2.91622668266827  2.46809086658666  3.37222938833883
 1 -3.78270171287129  0.60930561456146  3.76605901870187
 1 -1.92221470637064 -1.68610857125713 -0.28871278047805
 1 -2.31848352085209 -0.00219296889689 -0.72480251985199
 1 -0.14084760216022  0.51615622952295  0.80775117421742
 1 -0.24358216021602 -1.02842735793579  1.26267022222222
 1 -5.81057983338334  6.72728137223722  0.60148585778578
 1 -5.52143913331333  6.22939630273027  2.30580687778778
 1 -4.44969892589259  5.52968413481348  0.92517569316932
 1 -9.28655070757076  5.99567571567157 -0.79976020422042
 1 -8.97658887478748  8.20657139603960  0.29455907770777
 1 -7.65928539433943  7.41760816031603  1.47539592509251
 1 -11.83538764386439  3.33042336833683 -1.99796280098010
 1 -13.20660032923292  2.01372526372637 -2.00948213971397
 1 -12.63482521362136  2.62204085878588 -0.20859210321032
 1 -12.31831661006101 -1.56989643474347 -0.98867382228223
 1 -13.39807852675268 -0.47473421022102 -1.59914544204420
 1 -13.09836618921892 -1.91420610681068 -3.30401028552855
 1 -12.68011157535754 -0.38335287288729 -3.73813730943094
 1 -11.56067234653466 -1.69522438953895 -3.57400602060206
 1 -8.99610921392139 -4.76957770067007 -1.88279154325433
 1 -8.03850321512151 -5.68258826302630 -1.18579819281928
 1 -9.47553743864386 -5.19298431973197 -0.27244906750675
 1 -3.20284097999800 -3.22253550425042 -0.19670494199420
 1 -1.48720688718872 -4.21584802450245  3.05515843114311
 1 -2.76794640324032 -5.38221983958396  3.36951979087909
 1 -1.48278639013901 -5.78828810201020  2.43825777867787
 1  2.84897420152015 -1.87273910981098 -1.21580554555456
 1  2.66826430403040 -0.23394911531153 -1.99489264146415
 1  4.17092799839984 -0.94505672087209  0.58654187018702
 1  4.08910787428743  1.04074278467847 -2.79773814351435
 1  5.10029544124412  2.21097135603560 -1.97686415461546
 1  5.86557386498650  0.80471157865787 -2.94128285928593
 1  6.56398846174617  1.61508550855085  0.05426806960696
 1  6.29922404180418  0.05542750535053  0.76102581928193
 1  7.37695508020802 -1.10612984818482 -1.21456277987799
 1  7.99519195509551  0.57977118521852 -1.88537146074607
 1  8.84171622322232  0.97065495049505  0.31417905010501
 1  8.79057754645465 -0.80942644884488  0.98311617531753
 1  10.32225977737774  0.18572110981098 -1.51809669916992
 1  9.16815180068007 -2.36691466796680 -1.72126805160516
 1  11.04431698739874 -2.39558634253425 -1.65510975487549
 1  9.92397528352836 -2.66074801680168 -0.30199963966397
 1  11.16476415731573  0.72805503570357  0.42802428992899
 1  11.29172222562256 -1.02597855915592  1.04880550215021
 1  12.85841916081608 -1.80249841104110 -0.56052371997200
 1  12.89681343384338 -0.30274958395840 -1.68601196249625
 1  13.77610904760476  0.96441899789979  0.23909125212521
 1  13.76854960806081 -0.23736334103410  1.19169568606861
 1  15.38426171467147  0.39395888088809 -1.41591594959496
 1  15.85285272817282 -2.47043733583358 -0.07942939683968
 1  15.01329438013801 -2.17382975857586 -1.38787620272027
 1  16.62364199359936 -1.71735726062606 -1.32052352185219
 1  15.88920412111211  1.28269610331033  0.97796434073407
 1  16.31958640584058 -0.20682985808581  1.24771753295330
 1  18.04928586728673 -0.47858440584058 -0.46851019141914
 1  17.75959302380238  1.07921524042404 -1.06449002480248
 1  18.39477026962696  2.10035419311931  1.21387939323932
 1  18.92054921522152  0.47502168316832  1.57563756405641
 1  20.56705161786179  0.37105325352535 -0.06895983198320
 1  19.76757086368637  3.29501306320632 -0.97703129652965
 1  21.15588984108411  2.46012266506651 -1.56816818011801
 1  19.63928783318332  1.80355216601660 -1.79400636963696
 1  20.90551652685269  1.56608471757176  1.99054867206721
 1  22.21795350165016  1.94657588728873  0.89677464376438
 1  20.85988571847185  3.02162224552455  1.00917135763576
>>>>>>> 8e03b5b5abfc0030b3aa597dc0de36371bfbd096

