%nproc=4
%Mem=2GB
# td=(NStates=1) CAM-B3LYP/6-31G(d,p) 

TD

0 1
<<<<<<< HEAD
12 -7.10227080008001  0.63487223532353  0.14333202060206
 6 -4.85795041304130 -1.86124730313031  0.50850738343834
 6 -4.85905583448345  2.77302574987499  1.27105347024702
 6 -9.44015875137514  3.11013650915091 -0.43942680238024
 6 -9.51519183288329 -1.79423493449345 -0.82171860096010
 7 -5.22925635023502  0.41122094019402  0.80588100640064
 6 -4.46367607370737 -0.64563438543854  0.87005502870287
 6 -2.90571957735774 -0.47079650535054  1.14775512971297
 6 -2.95406884528453  1.02568523682368  1.78456918761876
 6 -4.44791178607861  1.49364011281128  1.19732676257626
 6 -2.98306338843884  1.19224151225123  3.32009341824182
 6 -1.94603806480648 -0.56640190159016 -0.00147618931893
 6 -0.52785020762076 -0.50065441264126  0.50397452675268
 6  0.52666380358036 -0.64802831573157 -0.64069945044504
 8  0.25316655675568 -1.09880528812881 -1.75608193989399
 8  1.72881469196920 -0.25156255265527 -0.27424421332133
 7 -7.11399184708471  2.62446803660366  0.32058075357536
 6 -6.03872315131513  3.32905388118812  0.68964249784978
 6 -6.44539179227923  4.74291858125813  0.77838852605261
 6 -7.70020272727273  4.83603423492349  0.29406779807981
 6 -8.17285155675568  3.42965216051605  0.04299684598460
 6 -5.56615457215722  5.85025749164916  1.27549230973097
 6 -8.50207800540054  5.98693972767277  0.13518050345035
 6 -8.46360025132513  7.17945406400640  0.72839908970897
 7 -9.07564983758376  0.67142000310031 -0.61692572627263
 6 -9.90475673537354  1.74707466056606 -0.72093841794179
 6 -11.24539363596360  1.47242558165817 -1.19200091959196
 6 -11.15045744964496  0.09363472757276 -1.30946966096610
 6 -9.92320800150015 -0.38437041134113 -0.97319233533353
 6 -12.40390921462146  2.48785935693569 -1.54988176297630
 6 -12.39384393069307 -0.85002241234123 -1.62022283078308
 6 -12.27508499689969 -1.40544295549555 -3.15637075567557
 7 -7.25006447474748 -1.40697031063106 -0.18394307130713
 6 -8.23143338313831 -2.24877004910491 -0.43786874207421
 6 -7.83473961956196 -3.68455672317232 -0.39882716001600
 6 -6.50146403050305 -3.55179951695170 -0.04467619951995
 6 -6.20579317571757 -2.15523380468047  0.11814461866187
 6 -8.70326779417942 -4.78134097649765 -0.80082856125613
 6 -5.41889635993599 -4.34568845234523  0.28716158875888
 8 -5.18461729962996 -5.51430591399140  0.20577760846085
 6 -4.10562414181418 -3.17421321112111  0.60198006330633
 6 -3.50655128602860 -3.66413163446345  1.90705107800780
 8 -3.64092569316932 -3.12831956815682  2.92859554065407
 8 -2.58587978167817 -4.60443516591659  1.61902048294829
 6 -2.00679126702670 -5.16360058915892  2.81350628612861
 6  2.86992950465046 -0.41010880548055 -1.21359255965597
 6  4.09637172617262 -0.28162633893389 -0.47221737073707
 6  5.14493797819782  0.41353761916192 -0.95427520022002
 6  5.12735115811581  1.14096674597460 -2.34142830813081
 6  6.41607594039404  0.56249810001000 -0.24134061926193
 6  7.68731626952695 -0.03382372927293 -0.93883083358336
 6  8.84282615521552  0.04928979857986 -0.14216602940294
 6  10.17361798629863 -0.55174224592459 -0.79599056955696
 6  9.95902260246025 -1.94502543864386 -1.18248171317132
 6  11.42738561546155 -0.31672545334533  0.07880874947495
 6  12.77550245794579 -0.59133318441844 -0.63298332123212
 6  13.95856532493249 -0.16995819861986  0.21626869436944
 6  15.39511563646365 -0.27285101420142 -0.55198343814381
 6  15.70432210111011 -1.67772540634063 -0.96628624632463
 6  16.47204131003100  0.40809516951695  0.39904441164116
 6  17.80575516491649  0.55066646504650 -0.25510132473247
 6  18.85826619611961  1.18373659065907  0.73734416741674
 6  20.24758342754275  1.23978431193119  0.25806056925693
 6  20.35901725552555  2.10656895409541 -1.07482847554755
 6  21.15386631743175  1.78226116241624  1.34275963936394
 1 -4.14223570807081  3.41945746714672  1.58522310921092
 1 -10.14367476017602  3.90163099809981 -0.47576296779678
 1 -10.35529881928193 -2.54396373717372 -0.85924257645765
 1 -2.98922537943794 -1.12381069496950  2.07651834303430
 1 -2.16796040124012  1.69100268286829  1.41924257465747
 1 -1.84147860536054  1.17763821672167  3.46657037053705
 1 -3.12647770777078  2.39069312681268  3.21310347574757
 1 -3.51403484618462  0.44797948194819  3.81399381218122
 1 -2.07910039493949 -1.54217417781778 -0.35124903410341
 1 -2.12344401690169  0.09914716511651 -0.73290332993299
 1 -0.14391790919092  0.53383799769977  0.82088248734873
 1 -0.13055085708571 -1.31896641184118  1.17697165236524
 1 -5.57152592799280  6.75150379447945  0.61391710091009
 1 -5.64021101050105  6.25440880398040  2.36218251535154
 1 -4.50652460846085  5.63439460586059  1.40006318191819
 1 -9.33297535003500  5.72315846394639 -0.74515474367437
 1 -9.28319953585359  7.85476621552155  0.49921954375438
 1 -7.80760022582258  7.57822422192219  1.37939632513251
 1 -11.76832093719372  3.09959028502850 -2.24375738043804
 1 -13.36398606780678  2.01764565576558 -2.06195738723872
 1 -12.81104283538354  3.32730138483848 -0.78959020302030
 1 -12.39171394979498 -1.60275972107211 -0.86609156405641
 1 -13.22137085598560 -0.21712844964496 -1.69857538503850
 1 -13.06253260586059 -2.19257394359436 -3.37522740724072
 1 -12.50685424962496 -0.56426096369637 -3.84084758045805
 1 -11.27648392769277 -1.93059792689269 -3.52368098809881
 1 -8.94521412441244 -4.71285202810281 -1.95826909100910
 1 -8.10717008180818 -5.78945895009501 -0.63840345334533
 1 -9.86112599749975 -5.01342636393639 -0.32768459105911
 1 -3.28177887378738 -3.63237648834883 -0.21692696419642
 1 -1.54763292979298 -4.44766120582058  3.33084599989999
 1 -2.78297790639064 -5.49776139373937  3.54375721462146
 1 -1.28985709720972 -6.02470174337434  2.58853280618062
 1  2.56630593469347 -1.41621345724572 -1.90154411941194
 1  2.60195767336734  0.19779405900590 -2.08804195639564
 1  4.36231713731373 -0.68116033123312  0.43130634663466
 1  4.13978294179418  1.26469517991799 -2.76858522822282
 1  5.67308271997200  2.03700395929593 -2.36409287748775
 1  5.77698500610061  0.54489559705971 -3.01899063006301
 1  6.59630169306931  1.70460446044604 -0.09082643984398
 1  6.35684980438044  0.25115707830783  0.76264598129813
 1  7.38674605930593 -1.06130536573657 -1.22592391599160
 1  7.83250568646865  0.60826403450345 -1.83179610321032
 1  9.18649070067007  0.93382126712671  0.45509314151415
 1  8.90444893359336 -0.58948445464546  0.68276614031403
 1  10.39187673907391  0.08060059775978 -1.72552744224422
 1  9.03566855235523 -1.97404538103810 -1.70502642744274
 1  10.68543109880988 -2.38967575147515 -1.74657890179018
 1  9.66093897989799 -2.61937387938794 -0.21944138383838
 1  11.41917959885989  0.63407563776378  0.26527801530153
 1  11.23316637003700 -0.93249921122112  1.06448707030703
 1  12.92367568646865 -1.74715287648765 -0.93107077467747
 1  12.76384013651365 -0.02784209320932 -1.50054341564156
 1  13.55350678737874  0.73378593459346  0.79988733173317
 1  14.34564731783178 -1.02268187288729  1.13370988748875
 1  15.33210649914991  0.49190867586759 -1.43015737373737
 1  15.90217766066607 -2.36096638873887 -0.17545899979998
 1  14.93977702840284 -2.07128950455046 -1.48963637873787
 1  16.73356298569857 -1.62977850275027 -1.52319378887889
 1  16.09741494219422  1.40482831653165  0.74184072837284
 1  16.40085453265326 -0.31444061916192  1.27608036923692
 1  18.14387532623262 -0.34051059845985 -0.70834417481748
 1  17.78790585508551  1.12084940384038 -1.14148772457246
 1  18.52407319991999  2.33363752145214  0.70172817811781
 1  18.84053121342134  0.77003118411841  1.66623662396240
 1  20.46574148684869  0.16400254845485 -0.02881581758176
 1  20.06888099469947  3.14080764266427 -0.90449404280428
 1  21.38339259135914  2.03336998979898 -1.60049141244124
 1  19.65216912131213  1.53061487228723 -1.85250221922192
 1  21.03713968916892  1.31980008910891  2.35084470167017
 1  22.10938264456446  1.76556778647865  1.01945691199120
 1  21.03823355325533  2.95041512481248  1.60140058055806
=======
12 -7.16000657365737  0.60533928202820  0.06371405880588
 6 -4.84080869886989 -1.89971114951495  0.53061959465947
 6 -4.81683161206121  2.86235468276828  1.19964632953295
 6 -9.34736947244724  3.00717621312131 -0.41404426412641
 6 -9.48937925162516 -1.75999151015102 -0.76976340544054
 7 -5.06906033063306  0.44869468756876  0.69685010331033
 6 -4.37253695979598 -0.69610943294329  0.91264928812881
 6 -2.89677868326833 -0.38753817951795  1.22802315651565
 6 -2.99828326672667  1.02081474977498  1.66107683838384
 6 -4.39467646254625  1.55105585438544  1.07619464936494
 6 -2.86393147524752  1.29029131723172  3.18209961886189
 6 -1.90532399339934 -0.58976423782378  0.07067102540254
 6 -0.54335175777578 -0.41536588378838  0.54273840314031
 6  0.50652178937894 -0.59866337923792 -0.59342472297230
 8  0.21369260936094 -1.11190659825983 -1.69648598029803
 8  1.79994180468047 -0.39898729512951 -0.21752854175418
 7 -7.05173562146215  2.58174376417642  0.30496919241924
 6 -6.07968724772477  3.39462043784378  0.79006253985399
 6 -6.52245949904990  4.78510279967997  0.77299798699870
 6 -7.73690639763976  4.82928355985599  0.25363375467547
 6 -8.11957622922292  3.50873006830683  0.06541908820882
 6 -5.55696365306531  5.91482394829483  1.04658941944194
 6 -8.52849064666467  5.95249628332833 -0.05127814241424
 6 -8.56853074437444  7.08803492209221  0.70940719051905
 7 -9.11785405800580  0.68615147624762 -0.58503253695370
 6 -9.80690695039504  1.76371632473247 -0.72835916001600
 6 -11.16885598219822  1.39872821192119 -1.20039175867587
 6 -11.21380378427843  0.01856722082208 -1.19874858885889
 6 -9.91826750745074 -0.43431540584058 -0.86761177727773
 6 -12.39184800850085  2.33308387938794 -1.32058883368337
 6 -12.39163370967097 -0.79354676477648 -1.65976678517852
 6 -12.47764525292529 -1.15557796899690 -3.24453957255726
 7 -7.22275174347435 -1.33678329192919 -0.06424110111011
 6 -8.27123736353635 -2.24134930703070 -0.42729768496850
 6 -7.74196034163416 -3.54712297979798 -0.58726600390039
 6 -6.46931081518152 -3.54460879787979 -0.05089682158216
 6 -6.21427402380238 -2.18838712001200  0.10100290449045
 6 -8.58992646004600 -4.75905874827483 -0.85125360376038
 6 -5.28647311761176 -4.38679256275628  0.21913478607861
 8 -5.10852969086909 -5.54403888728873  0.35618264896490
 6 -4.05741932133213 -3.32271806160616  0.50612047734774
 6 -3.43792442334233 -3.72783800510051  1.90996136903690
 8 -3.57513911451145 -3.07988472467247  2.98124080518052
 8 -2.79163035673567 -4.90485520792079  1.71733031393139
 6 -2.18559914781478 -5.35335956505651  2.85878081358136
 6  2.87246975867587 -0.57862565716572 -1.13573477387739
 6  4.10365245424542 -0.32144032033203 -0.51413156215622
 6  5.10598408280828  0.51466773217322 -0.93784355705571
 6  5.01071949494949  1.39197184648465 -2.16501066636664
 6  6.39661399419942  0.58810066026603 -0.18793527872787
 6  7.51542908080808  0.12301195429543 -1.04262121262126
 6  8.78667053965397  0.02184705430543 -0.09548136093609
 6  10.08458908340834 -0.58722579427943 -0.85478644914491
 6  9.96330303050305 -1.94414535063506 -1.35551901690169
 6  11.43433631053105 -0.27891167196720 -0.01395052645265
 6  12.75485039273927 -0.55009906100610 -0.72122214511451
 6  14.00494996339634 -0.03376457925793  0.09759682718272
 6  15.26167229212921 -0.11510523962396 -0.60335857565757
 6  15.59300096899690 -1.50583821762176 -1.07184680238024
 6  16.39492359825983  0.45855021502150  0.47621212841284
 6  17.75328991839184  0.47560895929593 -0.16302211681168
 6  18.86579694919492  1.12167038403840  0.78109854285429
 6  20.33828249744974  1.06743707720772  0.31151591479148
 6  20.57254860866087  1.97335563276328 -0.99025001770177
 6  21.19598052885289  1.68863179947995  1.38431379477948
 1 -4.04212569706971  3.63569909130913  1.78308289518952
 1 -10.12829322202220  3.96261709670967 -0.70004539603960
 1 -10.34910820022002 -2.24334367516752 -0.99598625082508
 1 -2.61316777367737 -1.09254756865687  2.01349204040404
 1 -2.03424702990299  1.62472605520552  1.20693134353435
 1 -1.84689914741474  0.67814826772677  3.74896861036104
 1 -2.81615667566757  2.24603866136614  3.59693185858586
 1 -3.74709815251525  0.90065474947495  3.78038045084508
 1 -1.97803028792879 -1.53775373577358 -0.48544245344534
 1 -2.13539521202120  0.25772302270227 -0.78311835143514
 1 -0.14436795419542  0.59098371227123  1.01350174927493
 1 -0.38936673867387 -1.26962147734774  1.25223917911791
 1 -6.06017479287929  6.82086073017302  0.47897360656066
 1 -5.54388137753775  6.23195655875588  2.00306660376038
 1 -4.48255221122112  5.71956312271227  0.92767594319432
 1 -9.29099115161516  5.87615376347635 -0.92673290149015
 1 -9.39721093699370  7.93473421232123  0.36239586138614
 1 -8.01576104190419  7.07824422392239  1.66927531303130
 1 -12.03264736983698  3.36321664766477 -2.18315131983198
 1 -13.40712038123812  1.89923381458146 -1.76772796429643
 1 -12.51275300640064  2.77786644134413 -0.41659290329033
 1 -12.23980875927593 -1.88381782688269 -1.08071302620262
 1 -13.31341005990599 -0.33923065986599 -1.27281280878088
 1 -13.48123447604761 -1.64872955915591 -3.59660954545455
 1 -12.46576014021402 -0.16786132373237 -3.77650114581458
 1 -11.70372665196520 -1.72312717981798 -3.49302792279228
 1 -9.05829543254326 -5.07817856075608 -1.68335159925993
 1 -8.11251061586159 -5.74367437163716 -0.47240685368537
 1 -9.44345423032303 -4.75726074737474 -0.30535235783578
 1 -3.28584928082808 -3.36734998569857 -0.30988626012601
 1 -1.47124529102910 -4.47619405910591  3.42520543584358
 1 -2.86599620822082 -5.81545316291629  3.54045688458846
 1 -1.37182529402940 -6.04202347554755  2.56249020192019
 1  2.96220552465247 -1.68254008990899 -1.23593755875588
 1  2.59538701630163 -0.09574529492949 -2.04302745494549
 1  4.34207511311131 -0.71215343054305  0.41491470747075
 1  3.96565552905291  1.45390410081008 -2.48130650035004
 1  5.44027943964396  2.43008326722672 -1.72925939413941
 1  5.61656896449645  1.07533864136414 -2.92302103310331
 1  6.47201926482648  1.60208420842084  0.13830647344734
 1  6.24985910531053 -0.05233327072707  0.66880659735974
 1  7.38951633633363 -0.89756899209921 -1.64374569816982
 1  7.76949938583858  0.91307451555155 -1.66316924052405
 1  9.14846689828983  0.89933781878188  0.45997362956296
 1  8.56827531623162 -0.85361086728673  0.52212007570757
 1  10.35716326772677 -0.09035649794980 -1.90565545504550
 1  9.05649063456346 -2.18624660116012 -1.98926485128513
 1  10.78114066976698 -2.07036382028203 -2.05864010791079
 1  9.89653253925393 -2.62176411841184 -0.40358979867987
 1  11.49346702760276  0.84826705690569  0.33608509600960
 1  11.41636468986899 -0.76825278657866  1.12901352295230
 1  12.97887120602060 -1.67266542774277 -0.69676734433443
 1  12.67148090059006 -0.18526783578358 -1.79308266956696
 1  13.74229566626663  0.87360991699170  0.63011035403540
 1  14.09825257835783 -0.64856446114611  1.08730524702470
 1  15.14417770627063  0.58895838083808 -1.44387874587459
 1  15.59426686958696 -2.27043733583358 -0.25588704260426
 1  14.82980603130313 -2.21650402600260 -1.70677809290929
 1  16.65477510691069 -1.56544206910691 -1.52815428492849
 1  16.06143134383438  1.44872270597060  0.84115065936594
 1  16.36134058125812 -0.19474864996500  1.25199796099610
 1  18.21425236393639 -0.35895244264426 -0.55670901130113
 1  17.63889095359536  1.27037435633563 -1.15521909770977
 1  18.57239803240324  2.18943310101010  0.77861586688669
 1  18.72057921822182  0.56360054105411  1.79701970227023
 1  20.98839375207521  0.03538968716872  0.14930199419942
 1  20.31186529312931  2.90795435733573 -0.74768836223622
 1  21.62948720082008  1.90601725452545 -1.19359072237224
 1  20.10060396479648  1.62202401320132 -1.79307627662766
 1  20.75265124032403  1.51958006710671  2.59710932813281
 1  22.43286499279928  1.13721495119512  1.23230819711971
 1  21.27317704760476  2.90962104540454  1.15713615411541
>>>>>>> 8e03b5b5abfc0030b3aa597dc0de36371bfbd096

