%nproc=4
%Mem=2GB
# td=(NStates=1) CAM-B3LYP/6-31G(d,p) 

TD

0 1
12 -7.08311888488849  0.60688943704370  0.07220490789079
 6 -4.85574019201920 -1.91876305470547  0.49040557325733
 6 -4.71020094899490  2.90021846914691  1.04510087498750
 6 -9.30863559905991  3.11003649914991 -0.43419627932793
 6 -9.50123043674368 -1.80853636463646 -0.94884131323132
 7 -5.18224164876488  0.40628044614461  0.78686910521052
 6 -4.40859056515652 -0.68957877987799  0.84503252645265
 6 -2.93487249264926 -0.36139556525653  1.35228558275828
 6 -3.09694313271327  1.13122579087909  1.73535426612661
 6 -4.39405640054005  1.46637738653865  1.24813184308431
 6 -2.88171325342534  1.29251153925393  3.26947835673567
 6 -1.90305376637664 -0.67751301270127  0.19860381868187
 6 -0.50760818341834 -0.32773712091209  0.63823795309531
 6  0.54184532173217 -0.60813432633263 -0.48745412591259
 8  0.20680192029203 -1.03340874847485 -1.59999633133313
 8  1.67452926342634 -0.42807020342034 -0.07991478037804
 7 -7.01774222212221  2.58162375217522  0.29190788628863
 6 -5.97406668566857  3.36845782158216  0.72167570117012
 6 -6.40405765886589  4.82631692109211  0.64044473167317
 6 -7.66779948694869  4.82914354585458  0.29872826412641
 6 -8.18294256585659  3.47290648594859 -0.04153160686069
 6 -5.51149910661066  5.88315078097810  1.08021278177818
 6 -8.59940773837384  5.99527056075608  0.04330131553155
 6 -8.56000989228923  7.12926904550455  0.79400565036504
 7 -9.00757302990299  0.64615747684768 -0.55409944364436
 6 -9.79865612531253  1.81458141124112 -0.62880920502050
 6 -11.10566966356636  1.47790612971297 -1.06573829332933
 6 -11.13481588548855  0.03482884698470 -1.25129384338434
 6 -9.81196687738774 -0.38129010331033 -0.98767378347835
 6 -12.23815263896390  2.51191176217622 -1.45849262406241
 6 -12.34306885318532 -0.81388879897990 -1.76907771627163
 6 -12.13812130053005 -1.18947135833583 -3.31987710631063
 7 -7.25481494979498 -1.39809942354235 -0.09988466546655
 6 -8.21330156995699 -2.26088126022602 -0.50440539573957
 6 -7.89056520212021 -3.63831209870987 -0.44788206550655
 6 -6.56071995609561 -3.49438377537754 -0.16984871677168
 6 -6.16853945034504 -2.18488676997700  0.08122092629263
 6 -8.68984645204520 -4.81505434783478 -0.87405588398840
 6 -5.33341781208121 -4.36931081458146  0.18357122972297
 8 -5.25388422632263 -5.56456093949395  0.21002803350335
 6 -4.24024760416042 -3.24702049184918  0.59214908020802
 6 -3.55474610551055 -3.69155437673767  1.78270864376438
 8 -3.80065166576658 -3.26334307050705  2.93245592669267
 8 -2.65655684938494 -4.71734645704570  1.56753533443344
 6 -2.09009959785979 -5.24919914901490  2.87843277877788
 6  2.70205271697170 -0.53543133773377 -1.11439263966397
 6  4.11748383738374 -0.37007518381838 -0.42169231823182
 6  5.09612309670967  0.38662492789279 -0.87996776947695
 6  5.03808223122312  1.27355000430043 -2.12987715301530
 6  6.31110544334433  0.36853870407041 -0.02779926512651
 6  7.59123666156616 -0.28539888678868 -0.80657760826083
 6  8.86117799039904 -0.17747287768777  0.01845003220322
 6  10.14327495199520 -0.57675474717472 -0.79584055455546
 6  10.03410011021102 -2.10225116121612 -1.20711417641764
 6  11.35062793969397 -0.37082086288629  0.08929979857986
 6  12.68916382408241 -0.47288133923392 -0.71825184808481
 6  13.91214068246825 -0.06225742854285  0.11957902540254
 6  15.28269439433943 -0.20075380448045 -0.63975221502150
 6  15.50850251915191 -1.65354298809881 -1.01183080078008
 6  16.40678478437844  0.39908426842684  0.34653916111611
 6  17.88199278867887  0.50525192359236 -0.22106792139214
 6  18.79991036053605  1.28654687168717  0.59492992599260
 6  20.34541321052105  1.34599493299330  0.05196996019602
 6  20.45143649744974  2.17054535173517 -1.09305029772977
 6  21.25956688748875  2.02518545484548  1.20780614401440
 1 -3.98257974247425  3.61505702710271  1.30236482338234
 1 -9.93775416811681  4.06927776277628 -0.50153554505451
 1 -9.99644293369337 -2.63741308210821 -1.30406705890589
 1 -2.72709916681668 -0.94094240814081  2.16019671087109
 1 -2.34676828202820  1.90251383398340  1.31711236163616
 1 -1.83212767026703  0.99270972387239  3.33290700420042
 1 -2.90913597359736  2.30868492599260  3.63554571997200
 1 -3.53383682638264  0.66107079107911  3.93647606040604
 1 -2.10937342224222 -1.75224518491849 -0.19583349254926
 1 -2.18919059155916 -0.31550430003000 -0.80576061566157
 1 -0.30209372677268  0.79192380628063  0.88234863396340
 1 -0.03636143814381 -0.95623013821382  1.50068402360236
 1 -5.85650442584258  6.83809245334534  0.83418912811281
 1 -5.42403939333933  5.78233159625963  2.25737203430343
 1 -4.29466342234223  5.79959112551255  0.75176835243524
 1 -9.32008406090609  5.93304945304530 -0.83535376357636
 1 -9.13900511641164  8.04205494439444  0.56648627042704
 1 -8.04245371117112  7.18022442194219  1.63052143764376
 1 -12.19387349244925  3.12254258025803 -2.44108711341134
 1 -13.27455712491249  2.01202509370937 -1.22545373687369
 1 -12.33018474957496  3.51673032773277 -0.92983422742274
 1 -12.35990076847685 -1.56432587768777 -1.07926288118812
 1 -13.37217593649365 -0.19732646944694 -1.59644517201720
 1 -12.95727207980798 -1.78606329252925 -3.75921580608061
 1 -12.06369993419342 -0.40196473407341 -4.02344584028403
 1 -11.09129540884088 -1.73751861896190 -3.44774339433943
 1 -9.23097270027003 -4.68760950385039 -1.77197046114611
 1 -8.05296466126613 -5.53287329152915 -0.91903151615161
 1 -9.20678056295630 -5.07115213651365  0.05183336073607
 1 -3.51127182308231 -3.26625987668767 -0.20172544404440
 1 -1.75499366586659 -4.38699513921392  3.60508342364236
 1 -2.99231884048405 -5.86002762036204  3.30824366326633
 1 -1.36622473397340 -5.93016228942894  2.53937789068907
 1  2.46727603170317 -1.44936677257726 -1.50712467746775
 1  2.76870434803480  0.18926320592059 -2.04213736593659
 1  4.35124603020302 -0.92347456265627  0.30638385438544
 1  4.14412337583758  1.76048475887589 -2.35353372307231
 1  5.52192760446045  2.16330658955896 -1.79395586378638
 1  5.62166947454745  0.64450555805581 -2.73410214121412
 1  6.48120018291829  1.36094009400940  0.16337898069807
 1  6.18478259765977 -0.09971800920092  0.93013272997300
 1  7.27198458315832 -1.41701093629363 -1.00199152275228
 1  7.68519095499550  0.26651986008601 -1.71541446504650
 1  9.12579463106310  0.72874075907591  0.48653628582858
 1  8.86927541624163 -0.84518002420242  0.88926679037904
 1  10.40671822322232 -0.06072353465346 -1.79808469796980
 1  9.18762374787479 -2.29300727722772 -1.81906783158316
 1  10.92202475817582 -2.35554233813381 -1.91366561046105
 1  10.01221410741074 -2.57634957695770 -0.22442188188819
 1  11.32923060396040  0.81715394559456  0.58795028252825
 1  11.43006606000600 -0.78789475077508  0.90704132573257
 1  12.75320863976398 -1.47903606480648 -1.07966563416342
 1  12.81142489498950  0.23020371137114 -1.55982934423442
 1  13.60517195389539  0.85847840384038  0.45951329432943
 1  14.07115986908691 -0.85459506420642  0.92886940344034
 1  15.27808109660966  0.46476596159616 -1.51849620762076
 1  15.47250469336934 -2.28471876397640 -0.12568402230223
 1  14.63821687238724 -2.13698607420742 -1.33567098219822
 1  16.36099572897290 -1.70176570147015 -1.58879034853485
 1  16.04847004770477  1.46489432313231  0.67880442474247
 1  16.33028747594759 -0.15803497859786  1.26508927012701
 1  18.20858179687969 -0.58365491289129 -0.32587592799280
 1  17.79326639113912  0.85333265216522 -1.21672524832483
 1  18.44839563216322  2.24585874357436  0.77499550485049
 1  18.71175833613362  0.76716089708971  1.60053005330533
 1  20.74404931763176  0.23024917311731 -0.02306524252425
 1  19.84613872047204  3.30819438133813 -0.64770836423642
 1  21.38033228532853  2.63970062286229 -1.34499586288629
 1  20.04243814821482  1.87366917771777 -1.95345231423142
 1  21.22214819001900  1.35965407450745  2.17003662086209
 1  22.08813051935194  2.19155038473847  0.73477844414441
 1  20.86331606150615  3.12744282758276  1.21549198969897

