%nproc=4
%Mem=3GB
# td=(NStates=1) iop(3/107=0140000000,3/108=0140000000) CAM-B3LYP/6-31G(d,p) 

TD

0 1
12 -7.18323301500150  0.59931831533153  0.07739410941094
 6 -4.91338015451545 -1.89693692429243  0.55151055345535
 6 -4.81869790039004  2.78763748164816  1.39509961516152
 6 -9.39548631313131  3.12835038803880 -0.38170064536454
 6 -9.50459655765577 -1.66438820452045 -0.99257606250625
 7 -5.17948497969797  0.45169125972597  0.89914773877388
 6 -4.34556680398040 -0.66657780098010  0.79885778047805
 6 -2.95717193779378 -0.38615701370137  1.24991066016602
 6 -3.03358658555856  1.03532223382338  1.76094237353735
 6 -4.38910914561456  1.50502515361536  1.29365375927593
 6 -2.91394757555756  1.30590340964096  3.29785510011001
 6 -1.82565829552955 -0.69338532773277  0.13807761806181
 6 -0.48943465266527 -0.65348859685969  0.56827020932093
 6  0.46650857405741 -0.78177479937994 -0.52504229432943
 8  0.26167638443844 -1.11854563226323 -1.60429782288229
 8  1.75427402580258 -0.56798673707371 -0.04023941154115
 7 -7.18280592399240  2.61039424932493  0.49136006010601
 6 -6.12116226002600  3.36787055445545  0.85056093219322
 6 -6.28526343474347  4.64638150175017  0.81131939063906
 6 -7.61521630693069  4.86602840804080  0.40904703110311
 6 -8.10883041054105  3.51535847464746  0.04919291789179
 6 -5.42133416731673  5.89260873457346  1.26253640884088
 6 -8.50145015301530  6.03046331593159  0.16552716521652
 6 -8.29156756675668  7.28301745144514  0.64796885618562
 7 -9.04135317641764  0.63424041844184 -0.62272884678468
 6 -9.83571105740574  1.83515683998400 -0.79213202670267
 6 -11.14761871457146  1.56429587408741 -1.34253911361136
 6 -11.13995348254825  0.17993553935394 -1.49903993229323
 6 -9.90795839943994 -0.28986918031803 -0.99927212851285
 6 -12.18880981868187  2.44680992239224 -1.63881333403340
 6 -12.33975776867687 -0.59891601540154 -1.96828615921592
 6 -12.01698360726073 -1.10830102240224 -3.37461811301130
 7 -7.19388235063506 -1.40157499319932 -0.28331100620062
 6 -8.20575490179018 -2.19651819731973 -0.63484506440644
 6 -7.88923096289629 -3.56048660006001 -0.51290158995900
 6 -6.45958374887489 -3.49217219931993 -0.19166124782478
 6 -6.18206193789379 -2.18604656045605  0.01360319571957
 6 -8.72432477197720 -4.69804590299030 -0.86278966206621
 6 -5.34445990889089 -4.35531909530953  0.17946292039204
 8 -5.13500449274927 -5.58912576957696  0.16848279687969
 6 -4.20430493309331 -3.28889633703370  0.59004732633263
 6 -3.61347552435244 -3.71757970067007  1.90811678017802
 8 -3.99872265566557 -3.20512787068707  2.94257761596160
 8 -2.81690704350435 -4.74274289278928  1.79089812731273
 6 -2.33149210621062 -5.34365957185719  3.04967236763676
 6  2.72696901730173 -0.73628191709171 -1.03045656285629
 6  4.11400228542854 -0.58866413431343 -0.28991155395540
 6  5.13256874817482  0.25723225122512 -0.68240111711171
 6  4.90462418801880  1.23129080438044 -1.94495863086309
 6  6.42622890159016  0.32053266926693  0.01313078867887
 6  7.64656610921092 -0.07044559255926 -0.83838416711671
 6  8.95103281488149 -0.02740455655566 -0.10743684608461
 6  10.21897735833583 -0.54623628682868 -0.78989470947095
 6  10.02184546114611 -2.07690557045705 -1.29720668666867
 6  11.41800646444644 -0.42275716681668  0.13805584308431
 6  12.69713744924493 -0.43159319281928 -0.70909841494149
 6  13.96558783058306 -0.05812152645265  0.05586199779978
 6  15.32193818481848 -0.23889297289729 -0.60051570407041
 6  15.69638590959096 -1.78042643094309 -0.80657248354835
 6  16.42736972967297  0.40060657795780  0.26316105080508
 6  17.81774936263626  0.60393412301230 -0.42008853585359
 6  18.88327874647464  1.37509558805881  0.43049630633063
 6  20.29806261066107  1.46380581308131  0.04116082208221
 6  20.44793763956396  2.26503380848085 -1.18098279417942
 6  21.07412247924792  2.03641534143414  1.10985492549255
 1 -3.95880624412441  3.50466371777178  1.75565166096610
 1 -9.98852097539754  4.13112538703870 -0.59720424662466
 1 -10.31990641474147 -2.31583711881188 -1.29605742514251
 1 -2.74230151735174 -1.01559176187619  2.20827731843184
 1 -2.29745321162116  1.68011007210721  1.16092974197420
 1 -2.06467955435544  1.00407951435143  3.57594793219322
 1 -3.19118622772277  2.31281050385039  3.38892691489149
 1 -3.49022182268227  0.56724187848785  3.87302898809881
 1 -2.13688880788079 -1.68175884668467 -0.38611661876188
 1 -2.24878124712471  0.15296291609161 -0.59642637723772
 1 -0.43489891859186  0.24866445374537  1.11053491649165
 1 -0.21773019331933 -1.44373514011401  1.40791424972497
 1 -5.64967914561456  6.71819933193319  0.79045887718772
 1 -5.79239071037104  6.27017989938994  2.28481049354935
 1 -4.32404724932493  5.54711897989799  1.33256398899890
 1 -9.54882514231423  5.94801818381838 -0.38462981568157
 1 -8.98871793549355  8.00467018801880  0.54946472217222
 1 -7.64537246934693  7.68280511691169  1.31973093339334
 1 -11.81268174117412  3.49509865696570 -2.19834566606661
 1 -13.23946124382438  2.14845358775878 -2.02378810701070
 1 -12.50794182688269  3.03457079117912 -0.66524696419642
 1 -12.56153811871187 -1.54854577737774 -1.38460196109611
 1 -13.24014631373137  0.02219950945095 -2.04248000240024
 1 -12.88011321052105 -1.71752541464146 -3.64106506460646
 1 -11.73608401410141 -0.40125859715972 -4.05708468686869
 1 -11.31862670207021 -1.79334036123612 -3.43588186638664
 1 -8.89149376797680 -4.69021552235224 -1.90866692969297
 1 -8.02902728792879 -5.48761471477148 -0.57038699379938
 1 -9.80989516851685 -4.71044949334934 -0.43923619231923
 1 -3.28076559505951 -3.37172377797780 -0.11342908100810
 1 -1.88939232683268 -4.68715092849285  3.70119183678368
 1 -3.02895933323332 -6.09526905180518  3.54499553725373
 1 -1.46841736223622 -5.94436522132213  2.71847520862086
 1  2.62106016081608 -1.78643526632663 -1.31820326902690
 1  2.59630607190719 -0.17073898909891 -1.79069012651265
 1  4.09155964266427 -1.27916633043304  0.66000740094009
 1  3.76024133563356  1.41639718241824 -2.22576306200620
 1  5.50423735593559  2.23515393929393 -1.94851228962896
 1  5.39292886138614  0.76420761166117 -2.83965022192219
 1  6.40497868176818  1.34650463106311  0.31989160306031
 1  6.46711458355836 -0.34468180488049  0.91739793529353
 1  7.30879300210021 -1.02083275627563 -1.35232999019902
 1  7.79897245574557  0.53670277327733 -1.74087491039104
 1  8.98464450875088  1.04711420892089  0.40093252135213
 1  8.98035115591559 -0.51239959265927  0.87464358775878
 1  10.30045467726773  0.11317746554655 -1.66872203020302
 1  9.10354996409641 -2.09498778227823 -2.13142152405241
 1  10.73206234683468 -2.53316671597160 -2.05798115621562
 1  9.93583578067807 -2.80012412711271 -0.40250764446445
 1  11.38837047864786  0.56386281968197  0.60431820262026
 1  11.43787138263826 -1.24357565516552  0.78624494459446
 1  12.84862281478148 -1.48918633793379 -0.94297656915692
 1  12.72905873577358  0.23385832183218 -1.59351368506851
 1  14.08843026332633  0.98527389068907  0.41550637933793
 1  13.95915422602260 -0.55346172507251  1.01980435443544
 1  15.37591799319932  0.32908630563056 -1.61208247704770
 1  15.56596039283929 -2.42428176937694  0.01678354285429
 1  15.13934557895790 -2.24971949194920 -1.69130050355035
 1  16.77520580018002 -1.88695959295930 -1.06468298159816
 1  16.09401267476748  1.32191052475248  0.62084800110011
 1  16.65793987178718 -0.15633191799180  1.27827632233223
 1  18.55005174287429 -0.25352186618662 -0.88057825342534
 1  17.54611192079208  1.26698559265927 -1.34264000760076
 1  18.34576363326332  2.29059032703270  0.76821876867687
 1  18.85392135463546  0.89949478897890  1.50462370787079
 1  20.70901073337334  0.42187318491849 -0.28096220402040
 1  20.20453727222722  3.25473625012501 -0.97338952365237
 1  21.60902470327033  2.06915805790579 -1.51262924412441
 1  19.82994139173917  1.97627791799180 -2.02146053045304
 1  21.04497835133513  1.50748638953895  2.06495016381638
 1  22.10097799059906  2.11186165686569  1.03190984458446
 1  20.66950702920292  3.03662978017802  1.16224336103610

