%nproc=4
%Mem=2GB
# td=(NStates=1) CAM-B3LYP/6-31G(d,p) 

TD

0 1
12 -7.19407998099810  0.57665641374137  0.16719440684068
 6 -4.81529614761476 -1.96345752415242  0.55267179987999
 6 -4.87459738863886  2.89796824412441  1.06912327722772
 6 -9.41329606510651  3.13133862936294 -0.43761662136214
 6 -9.45825613931393 -1.75035054605461 -0.81729815891589
 7 -5.23423684828483  0.45747556565657  0.67780819911991
 6 -4.34616432253225 -0.63912373437344  0.83578160136014
 6 -2.93992299769977 -0.31595102080208  1.30236059025903
 6 -3.09249268766877  1.15980864916492  1.65431616231623
 6 -4.46546354125413  1.57396814561456  1.08302533243324
 6 -3.19404448654866  1.30777306540654  3.25082649154916
 6 -1.99889335033503 -0.59957521892189  0.00349430773077
 6 -0.54212163476348 -0.32511685888589  0.46978110741074
 6  0.44016515371537 -0.74868838173817 -0.61345672617262
 8  0.12274351445145 -1.12131753935394 -1.75140147184718
 8  1.72778458895890 -0.48406580298030 -0.28264505340534
 7 -7.14676512441244  2.64043963376338  0.24553324882488
 6 -6.13551283028303  3.34244522032203  0.75125865946595
 6 -6.46599385248525  4.77465175457546  0.87782847004700
 6 -7.73877658465847  4.93804443594359  0.29330772207221
 6 -8.13248752035204  3.57109630493049 -0.03270072377238
 6 -5.54008196489649  5.97498996489649  1.22516727722772
 6 -8.56254405200520  6.06079711341134  0.29118610401040
 6 -8.29590348164817  7.28476459505951  0.87390364016402
 7 -9.06762903550355  0.62346520762076 -0.43216725042504
 6 -9.81888814851485  1.74740469356936 -0.55377170127013
 6 -11.14734383098310  1.50232857195720 -1.08945066456646
 6 -11.25336774067407  0.13397876197620 -1.21136985098510
 6 -9.98182386308631 -0.39239121342134 -0.83886890299030
 6 -12.29066789048905  2.39756032703270 -1.39405618041804
 6 -12.36066061236124 -0.76170358045805 -1.68960976947695
 6 -12.33960144854485 -1.15604801600160 -3.23447856645665
 7 -7.17173664196420 -1.40798041164116 -0.26406108310831
 6 -8.18097833763376 -2.18750392249225 -0.49506446164616
 6 -7.76808295389539 -3.59950821832183 -0.49298657595760
 6 -6.48337222132213 -3.54339867686769 -0.18823055495550
 6 -6.17495009140914 -2.18126640794079  0.05632843704370
 6 -8.57656512391239 -4.76458930133013 -1.02213069146915
 6 -5.28455292559256 -4.35736962046205  0.12562543514351
 8 -4.99625846374637 -5.61399588298830  0.15312234293429
 6 -4.17781136053605 -3.26089187898790  0.53515338063806
 6 -3.58731936283628 -3.61546676797680  1.88088846174617
 8 -3.78260986158616 -3.11828856505651  2.94060674177418
 8 -2.65692688638864 -4.57091181358136  1.69154773567357
 6 -2.16731731963196 -5.14656888598860  2.99426436193619
 6  2.78440095179518 -0.71877967256726 -1.28842004240424
 6  4.10211230023002 -0.58574675097510 -0.58369851885189
 6  5.16045953035303  0.16278254365437 -1.00815058775878
 6  5.14860328332833  1.05843849314931 -2.20341450675068
 6  6.49668400120012  0.07328917911791 -0.22517900310031
 6  7.71018855675568 -0.45884623152315 -1.04901185168517
 6  8.89482135473547 -0.34566969736974 -0.09409122192219
 6  10.17994861936194 -0.76886395809581 -0.83398436893689
 6  10.14958165836584 -2.19531046714671 -1.12089555455546
 6  11.45047792469247 -0.40619440024002  0.06059692829283
 6  12.80748565626563 -0.54281833293329 -0.70853087598760
 6  13.93942341074107  0.00490928812881  0.16885395289529
 6  15.43592971787179 -0.15450918001800 -0.56969520932093
 6  15.81722339123912 -1.63862149594959 -0.80496011371137
 6  16.43548765466547  0.57903226322632  0.33015752295230
 6  17.84664925432543  0.64373577197720 -0.20694650925093
 6  18.84447481698170  1.31677989498950  0.77229766276628
 6  20.28516718591859  1.50279061256126  0.17129189238924
 6  20.37788914271427  2.35449374657466 -1.06784777747775
 6  21.08345927672767  2.11401433773377  1.27534289768977
 1 -4.05720720522052  3.50732625402540  1.67047163406341
 1 -10.11512190489049  3.77304813981398 -0.73262865436544
 1 -10.22034532393239 -2.39178851965197 -0.94090074227423
 1 -2.85454191109111 -0.91914022792279  2.10623131433143
 1 -2.36188979417942  1.89117269986999  1.31901255165517
 1 -2.21998645614562  0.94081453435344  3.70544425792579
 1 -3.13384844484448  2.29813387088709  3.77390955635564
 1 -4.04793823652365  0.64880956495650  3.62789520232023
 1 -2.25522800770077 -1.69674963536354 -0.04600851005101
 1 -2.19668134063406 -0.03207595719572 -0.85320536013601
 1 -0.35970948834883  0.69039365326533  0.77396779587959
 1 -0.36358416041604 -0.87962247744775  1.39639359455946
 1 -5.79961873727373  6.87192583668367  0.69437514671467
 1 -5.55490247964797  6.21964532763276  2.27455375247525
 1 -4.48738269426943  5.82178334473447  0.89481265686569
 1 -9.27731978447845  5.98872502060206 -0.45201542974297
 1 -8.95007622352235  8.01025176407641  0.67368699049905
 1 -7.40780024582458  7.48314471397140  1.51174956045605
 1 -12.39728383348335  2.70074040004000 -2.54178718341834
 1 -13.17480714991499  1.95404929612961 -1.34754594609461
 1 -12.21212294339434  3.37315597029703 -0.69595083908391
 1 -12.42861764016402 -1.57938738383838 -1.08630358525853
 1 -13.37188590749075 -0.20987772457246 -1.70386591409141
 1 -13.13573992659266 -1.83386807300730 -3.60929081358136
 1 -12.15878944314431 -0.23572811041104 -3.75167866356636
 1 -11.40550682998300 -1.71491635873587 -3.20014863486349
 1 -9.04493409640964 -4.44239498239824 -1.90756402050205
 1 -7.69367873267327 -5.56738674287429 -1.24711432443244
 1 -9.22480236513651 -4.81152617391739 -0.15522734533453
 1 -3.35164586048605 -3.59911316201620 -0.23227849934994
 1 -1.66791495799580 -4.25773221292129  3.38092100740074
 1 -2.96375598419842 -5.38337995559556  3.80887372627263
 1 -1.48470658215822 -5.97821709490949  2.80266421932193
 1  2.37160646474647 -1.77159899579958 -1.71490545554555
 1  2.68150562816282  0.04054833443344 -2.03903705590559
 1  4.14984589018902 -1.27668988418842  0.19400261626163
 1  4.35496445994599  1.09843855425543 -2.89376774647465
 1  5.29459487118712  2.18042830173017 -1.79787625582558
 1  6.03062036963696  0.77287839533953 -2.84980371137114
 1  6.55078714161416  1.09795379537954  0.20467311011101
 1  6.09008312771277 -0.40638867626763  0.82430214691469
 1  7.40752813751375 -1.64256349154915 -1.12880420402040
 1  7.74925736163616  0.07118032613261 -1.87977090069007
 1  8.94182623422342  0.84187207220722  0.27482511471147
 1  8.82779126782678 -0.88161366756676  0.72871073477348
 1  10.14917246864686 -0.10263772607261 -1.73782867236724
 1  9.25591057655766 -2.72663063956396 -1.54565048984898
 1  10.87295985168517 -2.67780456435644 -1.71050529442944
 1  10.26038892489249 -2.74283622562256 -0.16097553725373
 1  11.35234291519152  0.61377360756076  0.39354084158416
 1  11.64592764616462 -1.15996195749575  0.92152277387739
 1  12.92342566146615 -1.66276443764376 -0.79492716031603
 1  12.67526127862786 -0.28012732173217 -1.66903026432643
 1  13.75983742044204  1.10472302830283  0.50550789378938
 1  13.77921067416742 -0.40258986368637  1.15989250575058
 1  15.25119840834083  0.44699418441844 -1.49598395639564
 1  15.83428087098710 -2.28608890099010  0.18599714581458
 1  15.11748479917992 -2.11674405000500 -1.33778119321932
 1  16.73645327472747 -1.54615013991399 -1.21804327382738
 1  15.93490869156916  1.55041287498750  0.79115565986599
 1  16.51762620982098  0.01615244014401  1.25476823802380
 1  18.16896783548355 -0.45091163856386 -0.50769410981098
 1  17.91573863836384  1.08071539043904 -1.21712528832883
 1  18.31743253585358  2.21459561726173  1.15939394469447
 1  19.00490765106511  0.64092827382738  1.53491349164916
 1  20.66081099379938  0.44450059825983 -0.02951588758876
 1  19.67949205580558  3.21078464036404 -0.74520811421142
 1  21.43504775687569  2.72171882468247 -1.49648101140114
 1  19.79097300170017  1.80528233903390 -1.95940290929093
 1  21.18552452765277  1.45364347344734  2.10456007320732
 1  22.06017772407241  2.25667689738974  0.75906087238724
 1  20.64891462136214  3.07638772207221  1.65473591409141

