%nproc=4
%Mem=3GB
# td=(NStates=1) iop(3/107=0140000000,3/108=0140000000) CAM-B3LYP/6-31G(d,p) 

TD

0 1
12 -7.16530122182218  0.60916930043004  0.16230260026003
 6 -4.87660647714771 -2.02503973457346  0.47097249964997
 6 -4.88219425002500  2.80344906280628  1.12155226042604
 6 -9.38204496899690  3.11616916991699 -0.30416289158916
 6 -9.43410950895090 -1.66965873157316 -0.87746455135514
 7 -5.17389442064206  0.34804089468947  0.82710053405341
 6 -4.39011125842584 -0.76616775997600  0.84446234093409
 6 -2.93065928652865 -0.34319271727173  1.24049971907191
 6 -3.01343457035704  1.09778848044804  1.68746502580258
 6 -4.46449668436844  1.44931958305831  1.21441583548355
 6 -2.91524770557056  1.10053287258726  3.31209652425243
 6 -1.84341007070707 -0.61873786298630  0.17163097339734
 6 -0.49462517171717 -0.36759000700070  0.53817720002000
 6  0.48830075327533 -0.56743336523652 -0.62506229632963
 8  0.16621683848385 -0.83022680038004 -1.70244763786379
 8  1.74198279667967 -0.32572251065107 -0.25880126772677
 7 -7.10813845724573  2.52759596949695  0.34032495659566
 6 -6.10393053685369  3.29367313471347  0.84015989208921
 6 -6.36190109850985  4.71678854245425  0.88079633833383
 6 -7.67909269456946  4.85858766396640  0.43500962736274
 6 -8.10918044554455  3.46843378217822  0.15849384798480
 6 -5.41305333923392  5.88728820252025  1.20560071527153
 6 -8.48215822382238  6.00927119671967  0.13448406090609
 6 -8.29832824282428  7.32623177287729  0.58804286358636
 7 -9.06560560166017  0.63312030643064 -0.50886746064606
 6 -9.84185167146715  1.80286361066107 -0.74570738423842
 6 -11.18195214791479  1.49121856635664 -1.14005886558656
 6 -11.17522700990099  0.11928947474747 -1.35457548584859
 6 -9.83518112171217 -0.38297849124912 -0.86740894219422
 6 -12.21779271697170  2.47659290069007 -1.58340779347935
 6 -12.30384417731773 -0.65274139793979 -1.85671500210021
 6 -12.23737564646465 -0.96146633893389 -3.34105475667567
 7 -7.24092705510551 -1.43991882758276 -0.18994166926693
 6 -8.26781110741074 -2.23210175567557 -0.57622920282028
 6 -7.86637867766777 -3.69592014341434 -0.45358565836584
 6 -6.50492828332833 -3.54835781788179 -0.04291637333733
 6 -6.21366509820982 -2.18129608540854  0.11838367376738
 6 -8.58973131263126 -4.80552665106511 -0.74928831193119
 6 -5.35202066496650 -4.31617518091809  0.17651262536254
 8 -5.15700669296930 -5.58251510851085  0.11195714431443
 6 -4.27684218681868 -3.37717516491649  0.63287160876088
 6 -3.64979915671567 -3.67742568526853  1.94838080658066
 8 -3.81309409280928 -3.13093045094509  2.98435179337934
 8 -2.86142149494949 -4.84312293079308  1.82161119861986
 6 -2.23026198319832 -5.22908811471147  3.02993039343934
 6  2.75971229162916 -0.57879616851685 -1.28045156235624
 6  4.14680556575658 -0.44784005190519 -0.65390795359536
 6  5.13837932923292  0.35038156615662 -1.08370124712471
 6  5.07594131973197  1.31338901420142 -2.29419355435544
 6  6.48699497819782  0.39230984698470 -0.38403892829283
 6  7.64220567316732 -0.16055460346035 -1.17503783248325
 6  8.77270498209821 -0.09301111721172 -0.24975107750775
 6  10.08866432703270 -0.68438010121012 -0.82303802380238
 6  10.04150742734273 -2.15053293319332 -1.08959592559256
 6  11.42577724152415 -0.33417830893089 -0.05266322882288
 6  12.81666940244024 -0.68711874537454 -0.78162566766677
 6  14.00538180998100 -0.26511222552255  0.10908732033203
 6  15.43338932993299 -0.20265934953495 -0.49883553605361
 6  15.74773104410441 -1.55898428672867 -0.98535036133613
 6  16.38419541224123  0.47593411071107  0.40934566926693
 6  17.77287487518752  0.70895462506251 -0.23690021702170
 6  18.79100951955195  1.39050712921292  0.74582783948395
 6  20.23496630103010  1.30864029652965  0.27960466646665
 6  20.44375722152215  2.20693799889989 -1.01195589148915
 6  21.09614468146815  1.85221692159216  1.43493743374337
 1 -4.03107347084708  3.60935418681868  1.42105820162016
 1 -9.91507363066307  4.00070234473447 -0.60386491269127
 1 -10.13693811791179 -2.42889842494249 -1.33448126752675
 1 -2.60056734393439 -1.13744394709471  2.29540603130313
 1 -2.18573203950395  1.75552761386139  1.29259290829083
 1 -1.88602168856886  0.75002410881088  3.63150348774877
 1 -3.19186629572957  1.95168439123912  3.77583560576058
 1 -3.62280508100810  0.37476263056306  3.58761044624462
 1 -1.92455757475748 -1.71535220602060 -0.08464647174717
 1 -2.11574794379438  0.05534315411541 -0.60670740534053
 1 -0.22902833153315  0.40922050935093  0.97640150315032
 1 -0.05328374867487 -1.17396816341634  1.24858831713171
 1 -5.45698987668767  6.56296380838084  0.50960079137914
 1 -5.38301977327733  6.34736761816182  2.20709272177218
 1 -4.36200104470447  5.51592586058606  1.32084281688169
 1 -9.38142840264026  5.70920430243024 -0.49263061576158
 1 -8.87641670537054  8.16634635563556  0.30390016571657
 1 -7.51133906600660  7.63405024142414  1.26665562586259
 1 -11.96958743174317  3.09433858095810 -2.38212404390439
 1 -13.31281857955796  2.12338108050805 -1.61038676687669
 1 -12.37479851255125  3.39711704580458 -0.74646508600860
 1 -12.07523948884888 -1.53908483128313 -1.26075957685769
 1 -13.18737103620362 -0.19729243974397 -1.50993674807481
 1 -13.10159535873587 -1.51012467456746 -3.68065902400240
 1 -12.02941334703470 -0.18315678697870 -4.00607958635864
 1 -11.33988882828283 -1.69289031623162 -3.31393967216722
 1 -8.86453107170717 -4.80075657645765 -1.62808887188719
 1 -8.36740112531253 -5.99815576887689 -0.50553050815081
 1 -9.77782196119612 -4.70899934833483 -0.35340760946095
 1 -3.66441395989599 -3.53315992159216 -0.00339807790779
 1 -1.58602198979898 -4.47389960336034  3.32393411101110
 1 -2.86057249454946 -5.73425295019502  3.89409044674467
 1 -1.46565708620862 -6.07095788058806  2.76564992609261
 1  2.61854990979098 -1.60518714151415 -1.51153260196020
 1  2.52103854515452  0.13546163096310 -2.14799585708571
 1  4.23789427612761 -1.27591600540054  0.16237763796380
 1  4.14751006250625  1.57522306500650 -2.60960144584458
 1  5.64932186438644  2.16456688058806 -2.06423386178618
 1  5.67484705320532  0.66242743364336 -3.11200745764577
 1  6.63367155105511  1.47602758335834 -0.19823020912091
 1  6.33755162726273 -0.04001133783378  0.63029922542254
 1  7.48888101090109 -1.20947162016202 -1.31075583278328
 1  7.74965752425243  0.54130323332333 -2.08138896179618
 1  8.92218826312631  0.98111760926093  0.19432186028603
 1  8.43355647644765 -0.66938529122912  0.64331045444544
 1  10.27132176397640  0.00134628242824 -1.71138629662966
 1  9.45430503960396 -2.61440972447245 -1.81619000090009
 1  11.08065720632063 -2.53112651195120 -1.42126748484849
 1  10.05427762486249 -2.69874398909891 -0.18384577827783
 1  11.32340398199820  0.67132356575658  0.24553232403240
 1  11.51937953345335 -0.87085838343834  0.93435975607561
 1  12.84257220972097 -1.81912933223322 -0.86111838333833
 1  12.84982081198120 -0.25450051405141 -1.80957529122912
 1  13.78084950525053  0.82383774707471  0.48755358405841
 1  13.94909321992199 -0.80057643654365  0.99767214121412
 1  15.33558395979598  0.37876127312731 -1.47752902170217
 1  15.82029582638264 -2.31525086628663 -0.11191932743274
 1  15.12159380378038 -1.96453097309731 -1.68707008050805
 1  16.70095837543754 -1.66960785778578 -1.43537005030503
 1  15.98736200970097  1.47156549024902  0.53852976927693
 1  16.39135321312131 -0.11451773657366  1.38443693839384
 1  18.14300103780378 -0.25395190919092 -0.45447564316432
 1  17.80054736433643  1.37071596569657 -1.07134287788779
 1  18.42298135503550  2.29565083308331  0.95201714851485
 1  18.61846780928093  0.70492533203320  1.60907415291529
 1  20.56141597389739  0.26617761536154  0.09934582678268
 1  19.96421323982398  3.13834461096110 -0.74161634633463
 1  21.51395519631963  2.39645078717872 -1.29680766196620
 1  19.82424082168217  1.90804109430943 -1.94926331073107
 1  20.94272812631263  1.17773341424142  2.35029869866987
 1  22.21954984778478  1.74389486018602  1.25247190079008
 1  20.76632671117112  2.76273239043904  1.74206134283428

