%nproc=4
%Mem=2GB
# td=(NStates=1) CAM-B3LYP/6-31G(d,p) 

TD

0 1
12 -7.09930050305030  0.58750749884988 -0.00031234383438
 6 -4.84025864386439 -1.97480865926593  0.52754928762876
 6 -4.76830675957596  2.80111855915592  1.18098446334633
 6 -9.44892962846285  3.02211770727073 -0.25228808850885
 6 -9.59397971167117 -1.69880539153915 -0.92683911301130
 7 -5.13313673827383  0.36464628272827  0.73456387468747
 6 -4.32306201230123 -0.68068789078908  0.70767879107911
 6 -2.90859986538654 -0.35929535523552  1.23126348054805
 6 -3.10724416281628  1.02096476477648  1.64911564226423
 6 -4.31613860876088  1.46040678947895  1.19797682758276
 6 -3.03084816691669  1.25930821892189  3.17520892979298
 6 -1.82745620662066 -0.64138940034003  0.17926188448845
 6 -0.44647206980698 -0.43710805800580  0.66426055535554
 6  0.49885102230223 -0.71787530043004 -0.40864624512451
 8  0.22554379447945 -1.18169357695770 -1.58072440414041
 8  1.77433924442444 -0.33903129952995 -0.04646143504350
 7 -7.10476092399240  2.58598418821882  0.43033172867287
 6 -6.03765304430443  3.31524250005000  0.75200873447345
 6 -6.39102635573557  4.73660795019502  0.68544923212321
 6 -7.74156686368637  4.77634826632663  0.32782117341734
 6 -8.12020629222922  3.43352254755476  0.07530007630763
 6 -5.45020297699770  5.84409687558756  1.12847760826083
 6 -8.45148294589459  6.00418145184519  0.21136812221222
 6 -8.59474336563656  7.18234435303530  0.86273252305231
 7 -9.15954822742274  0.68297115821582 -0.56019005270527
 6 -9.86886314601460  1.82591254435444 -0.68735505960596
 6 -11.21193028962896  1.52230056915692 -1.12010372987299
 6 -11.29553195709571  0.11154651875188 -1.32270098409841
 6 -9.95885156585659 -0.37945992029203 -0.99442445854585
 6 -12.30938976267627  2.47741831283128 -1.49696647144715
 6 -12.36435098139814 -0.81664907500750 -1.89289009750975
 6 -12.32132962136214 -1.05089750095009 -3.41329644824482
 7 -7.24009347764776 -1.30951056465647 -0.15486016301630
 6 -8.25259549934994 -2.20084525662566 -0.64519947514751
 6 -7.79083522912291 -3.58340660816082 -0.54365164246425
 6 -6.49757364146415 -3.49952428942894 -0.08361009290929
 6 -6.18244084048405 -2.13403168446845  0.12733553775378
 6 -8.52785025242524 -4.83630647304730 -0.82401087948795
 6 -5.30803527382738 -4.28626250975097  0.21386425902590
 8 -5.20768960686069 -5.46762124552455  0.17092412311231
 6 -4.14142772217222 -3.34993078287829  0.56827669296930
 6 -3.53258388928893 -3.64839006030603  1.92342271517152
 8 -3.82197379797980 -3.13563029922992  3.00010269136914
 8 -2.68800999469947 -4.64864958735874  1.78934751565157
 6 -2.23609419731973 -5.21541577067707  3.15518045354535
 6  2.85107761946195 -0.65742353695370 -1.07560876127613
 6  4.14168625762576 -0.47325550185019 -0.49237938693869
 6  5.14864834923492  0.25845211061106 -1.00781055375538
 6  5.03683210621062  1.22918556785679 -2.09126329162916
 6  6.34240857365737  0.30098194839484 -0.12186867206721
 6  7.68622616051605 -0.06609695659566 -0.91339829032903
 6  9.03569544214422 -0.07953308370837 -0.18739055185519
 6  10.16633725822582 -0.52997006870687 -0.94599557005701
 6  10.12101880208021 -1.92158309440944 -1.40096356135614
 6  11.42006488338834 -0.38396217701770 -0.19565869726973
 6  12.74738964666467 -0.59013306440644 -0.82987301020102
 6  13.97743721212121 -0.13719492229223  0.07502456995700
 6  15.37268339323932 -0.23864759385939 -0.59395763556356
 6  15.79280094899490 -1.74426206000600 -0.76588620632063
 6  16.40143424932493  0.39427378737874  0.31517602480248
 6  17.86724131353135  0.50264166256626 -0.18603441804180
 6  18.76095646514651  1.37165538253825  0.66732716571657
 6  20.17104577377738  1.40203053655366  0.31232599579958
 6  20.45301665546555  1.95838413561356 -1.14329532223222
 6  20.99747067786779  2.23976691299130  1.25674103750375
 1 -4.05674715921592  3.49803532493249  1.81080566746675
 1 -10.03909430213021  3.81183201820182 -0.52300769226923
 1 -10.19467275667567 -2.51742108290829 -1.34963161536154
 1 -2.61178763566357 -1.05518383228323  2.06177686888689
 1 -2.29400300550055  1.68108169076908  1.20138078847885
 1 -1.92469692719272  1.23453390629063  3.57772148564856
 1 -3.19392445244524  2.28406246374637  3.47403956935694
 1 -3.76076951965196  0.91825650965096  3.85919833263326
 1 -2.06010849574957 -1.69525948634864 -0.35245915511551
 1 -1.84043571607161  0.06665391579158 -0.80353039263926
 1 -0.13111662906291  0.53872848674867  1.14763516261626
 1 -0.16015381738174 -1.18923343854385  1.43209716491649
 1 -5.73669244464446  6.79723836793679  0.56963267246725
 1 -5.45415240464046  6.01012437553755  2.29698599569957
 1 -4.41282523852385  5.45557672407241  0.86263943954395
 1 -9.08967101960196  6.00249639773977 -0.47929815801580
 1 -9.30943215911591  7.74174491339134  0.49585920772077
 1 -7.89012847864786  7.49587598709871  1.69728811431143
 1 -12.18461256635664  2.92887321332133 -2.31344434913491
 1 -13.29105877507751  1.97574146534653 -1.54283547504750
 1 -12.22794452555256  3.35461411611161 -0.62402364636464
 1 -12.13668844724473 -1.75965541064106 -1.22378733363336
 1 -13.35220393929393 -0.43839057585759 -1.43912944044404
 1 -13.29568592119212 -1.40989567576758 -3.80951083558356
 1 -12.42580614481448 -0.08855339293929 -3.98463195889589
 1 -11.53035931523152 -1.63780864796480 -3.75977459745975
 1 -8.78000760376038 -4.68222896579658 -1.93196646074607
 1 -8.09058842364236 -5.73800380458046 -0.55522513551355
 1 -9.68367825272527 -4.94992001330133 -0.41167298989899
 1 -3.19538023392339 -3.37170042074207 -0.08649392089209
 1 -1.55876404290429 -4.55704214391439  3.50284319961996
 1 -3.25308491709171 -5.38614023162316  3.56362920182018
 1 -1.65196330783078 -6.18191746494649  2.92579653255325
 1  2.87776708080808 -1.72224406030603 -1.22515648064806
 1  2.72045952355235  0.08149242884288 -2.02388554075408
 1  4.26966787238724 -1.04718693389339  0.45677889388939
 1  3.92722168566857  1.54577328772877 -2.45839420912091
 1  5.15676108780878  2.22775303420342 -1.72189865806581
 1  5.57855516311631  0.93236434393439 -3.11790052105211
 1  6.69360142304230  1.33604760476048  0.50086272907291
 1  6.16156027542754 -0.28442648004800  0.89699941664166
 1  7.41536892159216 -1.05999523472347 -1.52144346794679
 1  7.88569100500050  0.71260446854686 -1.81998492209221
 1  9.10179223082308  0.92885077007701  0.35002263446345
 1  8.73270175887589 -0.84749025522552  0.64172203590359
 1  10.37467501890189  0.24866740444044 -1.70566545604560
 1  9.05262024752475 -2.14145212171217 -1.77109303410341
 1  10.99407196289629 -2.21642842674267 -2.07776202010201
 1  10.10036292229223 -2.61443338533853 -0.70871031073107
 1  11.31612929382938  0.58095032523252  0.38466995449545
 1  11.17998105150515 -1.08542450375037  0.60862148374837
 1  13.21840515941594 -1.68322648384839 -1.17128479607961
 1  12.76244999749975  0.00600129112911 -1.63829719101910
 1  13.77765920262026  0.78319087508751  0.51221856485649
 1  13.88910166326633 -0.78024762946295  0.96389290579058
 1  15.07683097159716  0.42175166016602 -1.43035739373937
 1  15.98204564746475 -2.24030432253225  0.25258380448045
 1  15.06211926262626 -2.47395977157716 -1.42933034813481
 1  16.77373700310031 -1.90508603350335 -1.12725419491949
 1  16.00570577127713  1.27590542424242  0.77531407570757
 1  16.34227867506750 -0.25952512761276  1.20710347154715
 1  18.36464740344034 -0.48604515191519 -0.19362270267027
 1  17.74849191369137  0.89728704760476 -1.16926050185019
 1  18.51855264786479  2.49497365506551  0.76423442874287
 1  18.67727488778878  0.95160934193419  1.64871487178718
 1  20.71365627832783  0.22980912911291  0.33558062206221
 1  20.13031713831383  3.02486604850485 -1.23582717611761
 1  21.57939219131913  1.99970662346235 -1.33856521982198
 1  19.91468537293730  1.28745055585559 -1.87331430043004
 1  20.95182115731573  1.65343345244524  2.12684230143014
 1  22.02458416471647  2.30784201390139  1.12730769706971
 1  20.69257898779878  3.36803688698870  1.29982042254225

