%nproc=4
%Mem=2GB
# td=(NStates=1) CAM-B3LYP/6-31G(d,p) 

TD

0 1
12 -7.19900047304730  0.63861260936094  0.07300498789879
 6 -4.81416603460346 -1.86485766416642  0.47782431513151
 6 -4.85197512641264  2.87432587988799  1.13089945484548
 6 -9.47211194669467  3.10646614211421 -0.43016587628763
 6 -9.63042335603560 -1.75566107710771 -0.78781521062106
 7 -5.08365178977898  0.48288810691069  0.76472689098910
 6 -4.30004971107111 -0.59435925792579  0.81670969416942
 6 -2.86550555595560 -0.41660108580858  1.13923427762776
 6 -3.02290572897290  1.09186185448545  1.73467419811981
 6 -4.34844183908391  1.55008575737574  1.13251028092809
 6 -2.94853993609361  1.19868215631563  3.16964837373737
 6 -1.93498695969597 -0.50810607200720 -0.05468150985098
 6 -0.45397281988199 -0.44302865006501  0.43660779007901
 6  0.51709284648465 -0.61319483238324 -0.68159353985399
 8  0.29484072417242 -0.95723113071307 -1.84279061076108
 8  1.72109391989199 -0.35962335873587 -0.22689947884788
 7 -7.17493794169417  2.68439402920292  0.27113580908091
 6 -6.11417069606961  3.37383835963596  0.82153568716872
 6 -6.45332258535853  4.79073336273627  0.85396608380838
 6 -7.76299900690069  4.92695332683268  0.24572296359636
 6 -8.14191846344634  3.52532172747275 -0.00210766446645
 6 -5.59243720042004  5.95253771967197  1.14843960446045
 6 -8.70392819041904  6.02544357805781  0.02158914431443
 6 -8.59928381968197  7.12477859645965  0.68208445824582
 7 -9.15008728132813  0.69718257935794 -0.56195022872287
 6 -9.86389264896490  1.78869882298230 -0.72425874997500
 6 -11.29831892849285  1.42853119221922 -1.13666538603860
 6 -11.27412981688169  0.02810817491749 -1.23719243324332
 6 -10.03960964166417 -0.45862783708371 -0.84577959405941
 6 -12.39106793049305  2.37834840584058 -1.24941171597160
 6 -12.45997054335434 -0.82175958605861 -1.71801260976098
 6 -12.28236572497250 -1.04526693789379 -3.25613073167317
 7 -7.22728219651965 -1.43592320592059 -0.09238391539154
 6 -8.35102534233423 -2.32507767986799 -0.36311126632663
 6 -7.87934408000800 -3.59886815431543 -0.42113939123912
 6 -6.49643352745275 -3.54465880288029 -0.05543727562756
 6 -6.22128472487249 -2.20957923922392  0.17190999519952
 6 -8.72848031543154 -4.81863470587059 -0.78097657605761
 6 -5.31461593189319 -4.30693457695770  0.22856572917292
 8 -5.07065590349035 -5.50042452585259  0.14690172087209
 6 -4.16151973137314 -3.27724351415142  0.46896676197620
 6 -3.49241987288729 -3.64348957025703  1.83887426032603
 8 -3.68106970757076 -3.12282901910191  2.87657033813381
 8 -2.73012420612061 -4.74206892929293  1.63251183208321
 6 -2.22575316321632 -5.31799602870287  2.90302523802380
 6  2.79092160386039 -0.54984277887789 -1.21363256365637
 6  4.05150723972397 -0.43378155445545 -0.41567171617162
 6  5.10639412381238  0.28284454985499 -0.80951072377238
 6  5.09541796479648  1.10022267156716 -2.13165733103310
 6  6.38897323012301  0.30244209440944 -0.09026551175118
 6  7.68858639653965 -0.35223557045705 -0.81750870137014
 6  8.92297417001700 -0.22067719811981 -0.00856266906691
 6  10.22143276777678 -0.58904597629763 -0.76951792229223
 6  10.16130283048305 -2.12604354045405 -1.17530099509951
 6  11.52314519141914 -0.17624140494049 -0.04078320972097
 6  12.90863577127713 -0.67623167426743 -0.68157818071807
 6  14.11097056545655 -0.15285648844884  0.19377644514451
 6  15.45265139003900 -0.26601033013301 -0.57664590439044
 6  15.79245091399140 -1.75716335013501 -0.91709132683268
 6  16.56934104000400  0.42894725472547  0.38879338653865
 6  17.92088667806781  0.44678607700770 -0.27899371397140
 6  18.86096646614661  1.36215443244324  0.66800723372337
 6  20.24347301650165  1.43092342584258  0.17236199939994
 6  20.32708406220622  2.31680997819782 -1.04074506720672
 6  21.18306923772377  1.94080701700170  1.32930829422942
 1 -4.03587507200720  3.48563408480848  1.45611019791979
 1 -10.18960935363536  3.85001583658366 -0.39266465796580
 1 -10.16232952235224 -2.68273761456146 -1.25862251445144
 1 -2.50885734263426 -0.86394470837084  2.00778146934693
 1 -2.27761136633663  1.76543012561256  1.33408405880588
 1 -1.89753421092109  0.73003345624562  3.44845855935593
 1 -2.97320238023802  2.17169122662266  3.61313347874788
 1 -3.68035147784778  0.55936062006201  3.60636304910491
 1 -1.91026351125113 -1.59435939633963 -0.53332724192419
 1 -2.09262093459346  0.16433368376838 -0.69251929152915
 1 -0.54944846224622  0.59943455735574  0.88980938003800
 1 -0.20314811681168 -1.24583909910991  1.15978993419342
 1 -6.08290706610661  6.79695833993399  0.69828553775378
 1 -5.56466345574557  5.92009537263726  2.32032832993299
 1 -4.42293624962496  5.79094026042604  0.80184335993599
 1 -9.51579363186319  5.92745889398940 -0.64109433763376
 1 -9.43405462136213  8.03872461136114  0.47471709350935
 1 -7.84914438023802  7.23234963446345  1.62809119461946
 1 -12.51492559765977  2.88632895889589 -2.39763276797680
 1 -13.36996666586658  1.87781167236724 -1.16758795029503
 1 -12.26080781188119  3.13672232693269 -0.28974021802180
 1 -12.58538331673167 -1.81748119321932 -1.26202115701570
 1 -13.42643136203620 -0.38452518931893 -1.39844537203720
 1 -13.05249160176018 -1.47433211941194 -3.45889577407741
 1 -12.17989155335534  0.00973643604360 -3.71240473617362
 1 -11.43881016031603 -1.63713858095810 -3.49312793279328
 1 -9.35292489548955 -4.61732247514752 -1.57235049914992
 1 -7.99345871067107 -5.88893889808981 -0.93671328432843
 1 -9.43620350525052 -5.07809283058306  0.00832901030103
 1 -3.38264896079608 -3.60016326702670 -0.35866113761376
 1 -1.70341850835083 -4.39673611331133  3.22922583788379
 1 -3.07455706430643 -5.53363498109811  3.66277911681168
 1 -1.47015512701270 -5.99198847204720  2.58945289818982
 1  2.67294659875988 -1.60441227712771 -1.46495046004600
 1  2.80538801640164  0.08518279787979 -2.00692384458446
 1  4.19169007460746 -1.15617783298330  0.40097331333133
 1  4.02787175067507  1.42435114551455 -2.45670404010401
 1  5.67900331203120  2.08867912681268 -2.10096656485649
 1  5.75195250285029  0.61431253875387 -2.77200593159316
 1  6.71095315821582  1.41179517951795  0.22547519031903
 1  6.39601372077208 -0.37597563496350  0.83023273997400
 1  7.45587297199720 -1.23370260546055 -1.32167349094909
 1  7.75578801470147  0.32582579067907 -1.67460038363836
 1  9.13893594519452  0.76318420342034  0.34955258745875
 1  8.94353284198420 -0.95948145434543  0.75111297499750
 1  10.27196474787479 -0.09889735203520 -1.66874176367637
 1  9.24876986248625 -2.61828980548055 -1.55938186298630
 1  10.90178273397340 -2.15023180708071 -2.08636288018802
 1  10.51846473247325 -3.11022296429643 -0.48316775647565
 1  11.43380106100610  0.98054028422842 -0.07589610211021
 1  11.61885493889389 -0.27502346364636  1.17891851345135
 1  12.91753507240724 -1.77426558775878 -0.72384005160516
 1  12.95279903240324 -0.08862817181718 -1.61273463476348
 1  13.92177361406141  0.88464102010201  0.56283362636264
 1  14.10058281138114 -0.65611521622162  1.02581909840984
 1  15.43320660916092  0.42230171517152 -1.52160651865187
 1  15.80438788168817 -2.32299259135914  0.00491903800380
 1  14.89066211691169 -2.01212358795880 -1.55870328542854
 1  16.71431106050605 -1.75682120702070 -1.36793826332633
 1  16.33327852855285  1.41924975867587  0.64566111041104
 1  16.67322176937694 -0.09846902200220  1.29364212541254
 1  18.41120205890589 -0.71854840224022 -0.37034037443744
 1  17.90437750225023  0.99064638353835 -1.20605418121812
 1  18.54736552915292  2.37460161786179  0.81662966826683
 1  18.72282944324433  0.77457163816382  1.48682868316832
 1  20.69413432613261  0.42789893809381 -0.10223315931593
 1  20.13436754335433  3.41242480438044 -0.69750334373437
 1  21.41737598969897  2.44424107690769 -1.45311667496750
 1  19.73293719811981  1.98452026282628 -1.94236120512051
 1  21.20132610781078  1.39521763086309  2.21812142934293
 1  22.16983869016902  1.93624485418542  1.06072103840384
 1  21.01159088898890  3.06938702200220  1.55605604610461

