%nproc=4
%Mem=2GB
# td=(NStates=1) CAM-B3LYP/6-31G(d,p) 

TD

0 1
<<<<<<< HEAD
12 -7.08613918691869  0.62381112921292  0.15695338273827
 6 -4.92779739773977 -1.95443662206221  0.36114264696470
 6 -4.71605153405341  2.88255670297030  1.08232459735974
 6 -9.42129686518652  3.14748024352435 -0.36477933763376
 6 -9.60747106080608 -1.68934444544454 -0.67468389748975
 7 -5.16821024562456  0.40137995609561  0.63639405770577
 6 -4.41432113821382 -0.73533335533553  0.71155917911791
 6 -2.88437744314431 -0.43904333003300  1.20132048624862
 6 -2.99346278467847  0.98188085638564  1.57210794149415
 6 -4.39199619451945  1.45927667646765  1.09535656555656
 6 -2.91839692179218  1.21370365846585  3.13963537243724
 6 -1.88898235923592 -0.72595785718572  0.12798675697570
 6 -0.49217664026403 -0.54334868206821  0.52228635793579
 6  0.43556469366937 -0.73524703760376 -0.59658503900390
 8  0.14464570467047 -1.12459786738674 -1.69900623232323
 8  1.75807761826183 -0.54882227862786 -0.15015180408041
 7 -7.11739218711871  2.64123971377138  0.31364005950595
 6 -6.02385166416642  3.40390136593659  0.66758029162916
 6 -6.39430668376838  4.87220150955095  0.52544323152315
 6 -7.75689839683968  4.83952458395840  0.20770916221622
 6 -8.16446071767177  3.50837003230323  0.09559210551055
 6 -5.43028098479848  5.96223868976898  0.97160192069207
 6 -8.60447824542454  5.98616965066507  0.10460744614461
 6 -8.51379527082708  7.07878399699970  0.87010326012601
 7 -9.07368964156416  0.74220708180818 -0.50523455715572
 6 -9.88176443614361  1.85915586868687 -0.66934325842584
 6 -11.16821591819182  1.55644398349835 -1.10876259575958
 6 -11.21212361626162  0.19389475357536 -1.09285799979998
 6 -9.93726940764076 -0.33841581588159 -0.79458447454745
 6 -12.27544636833683  2.52530310131013 -1.33075985078508
 6 -12.41328587488749 -0.68227563766377 -1.39448025652565
 6 -12.48577606600660 -1.15893830503050 -2.79039415801580
 7 -7.28600806910691 -1.38666828042804 -0.13064774177418
 6 -8.41213145294529 -2.22982815491549 -0.46544149934994
 6 -7.91255740134013 -3.62332059955996 -0.49210648794879
 6 -6.57378126222622 -3.53144748174818 -0.17068880078008
 6 -6.27173977037704 -2.19152743404340  0.00132293649365
 6 -8.67680514791479 -4.82727556995700 -0.70803928232823
 6 -5.35035950625062 -4.32891677517752  0.13326619921992
 8 -5.20995983388339 -5.58406288968897  0.03057008770877
 6 -4.22396597599760 -3.30485627542754  0.38302816811681
 6 -3.59309994089409 -3.65934115541554  1.75386575947595
 8 -3.77253885448545 -3.12337907410741  2.86190887198720
 8 -2.57519871357136 -4.56705142754275  1.56090467136714
 6 -2.10209079697970 -5.10127435653565  2.90966590209021
 6  2.83178569026903 -0.69362715731573 -1.19161036143614
 6  4.14120620962096 -0.48736691299130 -0.51367151615162
 6  5.17548103250325  0.24768103350335 -0.96559633233323
 6  5.15226364936494  0.89907255655566 -2.32421658695870
 6  6.52085641844184  0.26365821602160 -0.32572905810581
 6  7.68108564646465 -0.45617596449645 -0.94945189568957
 6  8.96366823942394 -0.20233536393639 -0.15158697149715
 6  10.30915153965397 -0.64988205990599 -0.91785275577558
 6  10.15152185238524 -2.20310124622462 -1.27546101110111
 6  11.57850072697270 -0.39739352015202 -0.13403253465347
 6  12.85349025672567 -0.48772282338234 -0.82300232313231
 6  13.99766923532353 -0.18004920772077  0.10931799929993
 6  15.43116924182418 -0.16043977307731 -0.44848308810881
 6  15.82759442834283 -1.63532116591659 -0.90462007970797
 6  16.41534564046405  0.42212657265727  0.57295180238024
 6  17.79806439583958  0.69733113151315 -0.08551436603660
 6  18.71685205470547  1.49361757875788  0.85492592559256
 6  20.16645531473147  1.53918425192519  0.37487225042504
 6  20.32018337213722  2.30009830703070 -0.93581457415742
 6  21.09056998779878  2.17281021732173  1.45370073347335
 1 -3.93939542404240  3.47467298869887  1.35724031093109
 1 -10.09274966766677  4.06701753675367 -0.48269366086609
 1 -10.49247253665367 -2.18499784058406 -0.91921857405741
 1 -2.77578403530353 -1.14106242014201  1.85150584178418
 1 -2.07158076327633  1.70591417401740  1.24641529192919
 1 -1.94379883738374  0.81881233413341  3.47756146964697
 1 -2.94858991899190  2.23726778427843  3.42635480088009
 1 -3.80693413611361  0.85172985698570  3.67379979277928
 1 -2.03652613751375 -1.84790475087509 -0.42035594479448
 1 -2.09330100260026 -0.00499324892489 -0.62536257585759
 1 -0.28905242264226  0.47627224112411  0.93057345644564
 1 -0.10129793179318 -1.29029354455446  1.37355131033103
 1 -5.93621239663966  6.91167981208121  0.79763547274728
 1 -5.12229921932193  5.85848921202120  2.03986028312831
 1 -4.35320927692769  5.89981114751475  0.50526370197020
 1 -9.31989404190419  6.07953410151015 -0.70547077527753
 1 -9.02708392429243  7.93883462236224  0.92137175897590
 1 -7.61519098489849  6.84006040554055  1.60903928942894
 1 -12.29789389448945  2.87272759875988 -2.45239824452445
 1 -13.51441111031103  2.20761465266527 -1.33894508600860
 1 -12.16851858295830  3.39135779047905 -0.36234747874787
 1 -12.50690546894690 -1.56186563166317 -0.64114906980698
 1 -13.31949066796680 -0.00796753355336 -1.20096562406241
 1 -13.46100245284529 -1.69567425362536 -2.81923180768077
 1 -12.36121968616862 -0.23171770937094 -3.60488398409841
 1 -11.60460673997400 -1.83656852395240 -2.85225384538454
 1 -9.26226582958296 -4.66330707360736 -1.72386565066507
 1 -8.00443980878088 -5.71217122132213 -0.96671628462846
 1 -9.43826371127113 -5.18495351665167  0.07391556895690
 1 -3.34594529042904 -3.49260251095110 -0.40363563506351
 1 -1.49930809730973 -4.29171561126113  3.32696561186119
 1 -3.07641725032503 -5.24636625422542  3.49280211911191
 1 -1.52906101760176 -5.87005627882788  2.56810076297630
 1  2.75900520462046 -1.83760559645965 -1.45400936593659
 1  2.59136661426143 -0.18710443084308 -2.13669682188219
 1  4.17337824342434 -0.94276649184919  0.35567878387839
 1  4.23581254475448  1.03243195359536 -2.81719008870887
 1  5.49008442014201  1.93947420632063 -2.34440090829083
 1  5.86839414701470  0.30087119461946 -2.96679541054105
 1  6.88113017591759  1.39846384638464 -0.22600995819582
 1  6.47454157355736 -0.23341137853785  0.61427114381438
 1  7.55050243494349 -1.59077831303130 -1.16233755735574
 1  7.80075251115112 -0.02113890579058 -2.06321924552455
 1  9.06328838043804  0.91666955195520  0.13460109230923
 1  8.86364485318532 -0.67109261546155  0.85848371207121
 1  10.42804035543554  0.01666420412041 -1.83492838233823
 1  9.45521050655065 -2.16476445294529 -2.23066899169917
 1  11.30750330603060 -2.66636342024202 -1.60912515641564
 1  9.67354024002400 -2.64065600760076 -0.36368580828083
 1  11.57856553745375  0.70657288748875  0.28743023052305
 1  11.46683973737374 -1.17547350865087  0.64577519911991
 1  12.86944026292629 -1.50459862106211 -1.41772944054405
 1  12.84050780328033  0.12461315231523 -1.67958131943194
 1  13.75598703540354  0.92617517351735  0.35917326032603
 1  14.02121487458746 -0.82987259195920  1.03703021952195
 1  15.43772706120612  0.47093657865787 -1.29326368436844
 1  15.81278872177218 -2.14030432253225  0.21461000710071
 1  15.29943299399940 -1.98665104070407 -1.72608002310231
 1  16.88103773317332 -1.80710623552355 -1.23891536103610
 1  16.20227542824282  1.53477131083108  1.03664020832083
 1  16.49757420462046 -0.19349852495250  1.53669643084308
 1  18.16603754245424 -0.40302685008501 -0.33263660406041
 1  17.65145220972098  1.25777309620962 -0.77304087988799
 1  18.38537933053305  2.58670282798280  0.91270927622762
 1  18.82357951825183  0.93926810781078  1.93697369766977
 1  20.44334924762476  0.68256440464046  0.13297036103610
 1  19.95080918751875  3.28816237813781 -0.72078567196720
 1  21.46969122122212  2.51045769856986 -1.20712207550755
 1  19.74253815821582  1.89776158695870 -1.88462543154315
 1  21.04420039523952  1.48262637173717  2.36922653985399
 1  22.10443214951495  2.19016024572457  0.90695566186619
 1  20.70232996289629  3.13010309360936  1.70434087458746
=======
12 -7.12794336733673  0.56184493259326  0.08828651605161
 6 -4.83837845584558 -1.90980215861586  0.52091862456246
 6 -4.67247717661766  2.87550599789979  0.95920228512851
 6 -9.35759049454945  3.14231972747275 -0.30207306700670
 6 -9.62061237493749 -1.75091060206021 -0.84408083718372
 7 -5.04344776937694  0.45327514561456  0.80148056635664
 6 -4.33374308040804 -0.65691551355136  0.83278130133013
 6 -2.87433643904390 -0.44763418911891  1.31097145134513
 6 -2.91440487888789  1.04292696099610  1.64144487518752
 6 -4.29359635453545  1.49194994379438  1.13915094499450
 6 -3.04267935003500  1.24845713381338  3.18301971087109
 6 -1.93081654265427 -0.68404366576658  0.11924588288829
 6 -0.45139256185619 -0.42870721792179  0.47270139943994
 6  0.53912504970497 -0.78984249714971 -0.58263364386439
 8  0.27853909400940 -1.17803321092109 -1.75893222492249
 8  1.75635744624462 -0.31945934233423 -0.23750053895390
 7 -7.00336078397840  2.55297088688869  0.22508120362036
 6 -6.06101538053805  3.36466744254425  0.77358089168917
 6 -6.37545479857986  4.64841913131313  0.67510819801980
 6 -7.69626233323332  4.81139177067707  0.42961135243524
 6 -8.09068333993399  3.49967916321632  0.08845139143914
 6 -5.40705866256626  5.78203066896690  1.16206096659666
 6 -8.55663346094609  5.97697873157316  0.19444643004300
 6 -8.46574046534653  7.21001712031203  0.82809905970597
 7 -9.15446771937194  0.73411627272727 -0.47706173987399
 6 -9.85604186388639  1.87418737183718 -0.59269559365937
 6 -11.15266436303630  1.56379471857186 -1.02477419691969
 6 -11.09964236813681  0.14971033513351 -1.25849456345635
 6 -9.86692237293729 -0.33669564386439 -0.97328234433443
 6 -12.31742056575657  2.53872444344434 -1.32075885068507
 6 -12.25227977427743 -0.72195960606061 -1.82971377987799
 6 -12.10980846924693 -0.94396680788079 -3.40202532113211
 7 -7.24006347464747 -1.37759737333733 -0.12474715171517
 6 -8.34425466526653 -2.20625579767977 -0.46693164836484
 6 -7.86191233683368 -3.67824609210921 -0.43988126542654
 6 -6.52361624572457 -3.59041337833783 -0.04993672557256
 6 -6.23763636003600 -2.15146342764276  0.12667547174717
 6 -8.60784825222522 -4.82001484388439 -0.72266074447445
 6 -5.32830730103010 -4.33604748824883  0.24115698829883
 8 -5.22746158405841 -5.56231071447145  0.14008103880388
 6 -4.20630420982098 -3.32685847564756  0.52702256755676
 6 -3.63343397429743 -3.72366758805881  2.00402077497750
 8 -3.82852445304530 -3.08166490269027  2.96316899799980
 8 -2.86643783748375 -4.83919864226423  1.81978055895590
 6 -2.40396098399840 -5.36609083818382  3.14184912041204
 6  2.76535904760476 -0.53695148974897 -1.38328952935294
 6  4.01199328832883 -0.45303347964796 -0.73274342334233
 6  5.15927941234123  0.26415268066807 -1.10248002070207
 6  5.10823924692469  0.99376202550255 -2.38206237153715
 6  6.29947428022802  0.25189703990399 -0.30333681888189
 6  7.59319685758576 -0.21484183108311 -1.10754770527053
 6  8.87357923052305 -0.17398252865287 -0.14072588538854
 6  10.20871149564957 -0.64048111981198 -0.79440041054105
 6  10.26038273847385 -2.09592052815282 -1.22061552655266
 6  11.45316819371937 -0.23731751255126 -0.01438056945695
 6  12.84279918761876 -0.53758780988099 -0.63286330923092
 6  14.05613508190819 -0.08704990779078  0.21154822232223
 6  15.36104222912291 -0.14026775587559 -0.47717595739574
 6  15.76347801670167 -1.62536016981698 -0.84229384708471
 6  16.38370247614762  0.49174353435344  0.48491299849985
 6  17.74591918131813  0.59169056745675 -0.12871868646865
 6  18.76225659515952  1.32013023002300  0.81106153915392
 6  20.15158382758276  1.40078041154115  0.20118488168817
 6  20.23695504930493  2.38583688088809 -1.06671766446645
 6  21.16479741054106  2.06412934923492  1.21806717011701
 1 -3.99897138163816  3.69074459585959  1.11600618751875
 1 -10.01925231793179  3.91711254625463 -0.60451584308431
 1 -10.41018430783078 -2.44377371817182 -1.32203885608561
 1 -2.61905836273627 -1.00679899379938  2.13752444364436
 1 -2.05221882708271  1.71871545414541  1.17502815321532
 1 -1.95851030853085  1.05073552645265  3.50567428092809
 1 -3.16716177617762  2.25456951445145  3.34574674007401
 1 -3.97718116081608  0.70977566156616  3.68955136793679
 1 -1.96427891279128 -1.75591555195520 -0.26885079427943
 1 -2.31318299079908 -0.07433018261826 -0.72951299089909
 1 -0.10505402280228  0.52690730463046  0.61164156325633
 1 -0.30102790479048 -1.01150566576658  1.49419337453745
 1 -5.69791856725672  6.59578822292229  0.55832154135414
 1 -5.75098208760876  6.17039040214021  2.26989328642864
 1 -4.30817477347735  5.45720688708871  1.12175535113511
 1 -9.21355340784078  6.04629077717772 -0.69425965416542
 1 -9.16454767066707  8.09779051795180  0.26888651045105
 1 -7.79994946074607  7.47449384888489  1.57089547504750
 1 -11.95410951605161  3.20886121212121 -2.12158516321632
 1 -13.11954162336234  1.93903779497950 -1.68249944144414
 1 -12.53699543064307  3.13546220092009 -0.43177442144214
 1 -12.08575335373537 -1.63862330743074 -1.29682463736374
 1 -13.21856057495750 -0.29214595139514 -1.44561008850885
 1 -12.88335468806881 -1.76329101530153 -3.72052193669367
 1 -12.24280784498450  0.11781724412441 -3.77935143084308
 1 -11.10073635293529 -1.31087595469547 -3.80156877687769
 1 -8.83557316031603 -4.76318706160616 -1.83578684278428
 1 -7.95116448124812 -5.71239124332433 -0.79955956895690
 1 -9.46311619651965 -4.92453747504751  0.00515869326933
 1 -3.52358305420542 -3.31016426712671 -0.24367963946395
 1 -1.71929009550955 -4.61371781148115  3.50700361566157
 1 -3.22096170477048 -5.62853447104710  3.66764960386039
 1 -1.87809592109211 -6.36555582878288  2.95148910181018
 1  2.35838514261426 -1.47600943684368 -2.13284724972497
 1  2.24766224382438  0.45922020162016 -1.85336848904890
 1  3.95360626622662 -1.01616383158316  0.19504272027203
 1  4.15644460796080  1.11237994839484 -2.74577294699470
 1  5.69798521022102  2.04635489438944 -2.42648911711171
 1  5.89310661826183  0.60574168166817 -3.15102383338334
 1  6.35923798669867  1.15218921892189  0.20637328012801
 1  6.26449056845685 -0.39396743414341  0.54102381908191
 1  7.37088447314731 -1.31355059025903 -1.66062738633863
 1  7.72084452035203  0.38764197229723 -2.09082200580058
 1  8.99549160076008  0.84901278627863  0.17542517471747
 1  8.83790227892789 -0.68122362856286  0.94092195589559
 1  10.45790334173417  0.08988152585259 -1.57436232573257
 1  9.32250723622362 -2.39241721822182 -1.61639756455646
 1  11.16960951665166 -2.55596238013801 -1.78441268516852
 1  10.01961484748475 -2.74489643164316 -0.43659309900990
 1  11.29953763466347  0.86583881408141  0.19022050955096
 1  11.22600565396540 -0.56700266156616  1.02525314691469
 1  12.93642696159616 -1.52334049524953 -0.82461012861286
 1  12.97130088258826 -0.09422873187319 -1.58907226852685
 1  13.64374581128113  0.96942949894990  0.55631297429743
 1  14.02942569566957 -0.65180478517852  1.00102661916192
 1  15.21340462896290  0.40639012401240 -1.50823518151815
 1  15.64752219511951 -2.39246953905391 -0.00418187208721
 1  14.89502255295530 -2.02325470107011 -1.61321873697370
 1  16.83736336573658 -1.82696822172217 -1.13727519701970
 1  16.05018021872187  1.53993182688269  0.57043358765877
 1  16.30019446664666 -0.16904607970797  1.39954271547155
 1  18.10276121482148 -0.30888743614361 -0.36467980838084
 1  17.61376844134413  1.10316763566357 -1.14545812161216
 1  18.32916370897090  2.24628878657866  1.05563356865687
 1  18.92762992329233  0.77992217321732  1.77592759305931
 1  20.45142005470547  0.39557570577058  0.02853991799180
 1  19.99430353695369  3.34716827872787 -0.53912750615061
 1  21.37148140024003  2.64248090089009 -1.37382874617462
 1  19.60516442084209  2.17827963876388 -1.90428739773977
 1  21.42562853805380  1.48741685078508  2.26089570677068
 1  22.08273998029803  2.21923315301530  0.79255422172217
 1  20.75193492339234  3.03306338963896  1.45577601810181
>>>>>>> 8e03b5b5abfc0030b3aa597dc0de36371bfbd096

