%nproc=4
%Mem=2GB
# td=(NStates=1) CAM-B3LYP/6-31G(d,p) 

TD

0 1
12 -7.09576014901490  0.52612136023602  0.06110379777978
 6 -4.88054267226723 -1.97097827622762  0.48702523522352
 6 -4.75937586648665  2.81635008230823  1.09991635653565
 6 -9.34478921442144  3.06544203970397 -0.43554641434143
 6 -9.58472878657866 -1.70070558155816 -0.95113154225423
 7 -5.13423684828483  0.36935675377538  0.81230164846485
 6 -4.30606031213121 -0.76352617461746  0.80280830403040
 6 -2.96234523992399 -0.39392881858186  1.29191954615462
 6 -3.06172961136114  1.02021468976898  1.66956768746875
 6 -4.37563455835584  1.40141088988899  1.16617364726473
 6 -2.85392047414742  1.22046433453345  3.14851626052605
 6 -1.86321978297830 -0.70442570397040  0.12594655295530
 6 -0.43347076967697 -0.35386973417342  0.46562069136914
 6  0.53437457465747 -0.76795030793079 -0.55773115361536
 8  0.23309454955496 -1.43026843444344 -1.59186551825183
 8  1.80402221272127 -0.39273667006701 -0.18114490339034
 7 -7.01095154305431  2.63799938973897  0.20827952345235
 6 -5.93567284628463  3.37282825862586  0.66211974557456
 6 -6.37121437453745  4.76168045744574  0.66169685688569
 6 -7.63941664866487  4.87381801330133  0.25493388468847
 6 -8.07481175277528  3.50156935223522 -0.02279973367337
 6 -5.47673563026303  5.93222568846885  1.13390815131513
 6 -8.56942474007401  5.98617965166517  0.26559354475448
 6 -8.42525641694169  7.21530764936494  0.73820006980698
 7 -9.01843411601160  0.65247810891089 -0.66506053975398
 6 -9.80498675837584  1.79737969106911 -0.64838116221622
 6 -11.23894299089909  1.44881322042204 -1.10100181968197
 6 -11.18973137703770  0.13724908900890 -1.30780949494950
 6 -9.94483016371637 -0.44610658495850 -0.97279229532953
 6 -12.27469629332933  2.47654822582258 -1.23585035983598
 6 -12.44478902520252 -0.59840725082508 -1.63691449995000
 6 -12.62071956035604 -1.02103451465146 -3.10645576417642
 7 -7.22954242254225 -1.44858447204720 -0.22569724672467
 6 -8.33220346014602 -2.28720389248925 -0.60690564576458
 6 -7.79183532913291 -3.51919018651865 -0.52976025332533
 6 -6.57795167926793 -3.52172650965097 -0.07513924582458
 6 -6.21968456485649 -2.15664394569457  0.07257006120612
 6 -8.64632209960996 -4.74682752515251 -0.83129160756076
 6 -5.31181565186519 -4.34919880338034  0.12601547414741
 8 -5.20789962786279 -5.61376585998600  0.05660269096910
 6 -4.15061864126413 -3.27158294809481  0.55179504480448
 6 -3.48478910981098 -3.61847706900690  1.81596196909691
 8 -3.65472707330733 -3.10758749494949  2.91796447754775
 8 -2.66266746044604 -4.72909763216322  1.66717529842984
 6 -1.98668925682568 -5.26720094919492  2.84366930243024
 6  2.90439295099510 -0.73663145774577 -1.12934413481348
 6  4.19695178417842 -0.49417759405941 -0.51675182418242
 6  5.15497898229823  0.39367563296330 -0.96129590229023
 6  5.09427785078508  1.24159680898090 -2.21264542984298
 6  6.42248658145815  0.59554140434043 -0.11851833703370
 6  7.61020855875588 -0.09819016591659 -0.87245419591959
 6  8.89240111271127 -0.00806593699370 -0.09505131793179
 6  10.17445807030703 -0.54510158185819 -0.72803377387739
 6  10.03161986218622 -2.02602353845385 -1.03815728072807
 6  11.41278415531553 -0.30114389518952  0.14708557715772
 6  12.68722363006301 -0.73635768686869 -0.47612763566357
 6  13.82552202060206 -0.20619182198220  0.43058012551255
 6  15.23778990389039 -0.18822255135514 -0.34973321312131
 6  15.61840350925092 -1.55642327612761 -0.78045766346635
 6  16.36308041394139  0.53226758675868  0.50915542274227
 6  17.73048763816382  0.63540493889389 -0.29800561516152
 6  18.72697306680668  1.33648186518652  0.56186661966197
 6  20.14183285248525  1.35062539603960 -0.03238847564756
 6  20.30745209900990  2.19092738993899 -1.29785077777778
 6  21.17269820062006  1.85923886018602  1.07240260366037
 1 -4.21877336183618  3.63374889628963  1.48668325522552
 1 -10.09704009670967  4.07029786478648 -0.61770716221622
 1 -10.18114140354035 -2.50646998779878 -1.22617927012701
 1 -2.56891334823482 -0.84808312221222  2.04646533773377
 1 -2.31764536973697  1.77236081868187  1.15243589398940
 1 -1.84191864936494  0.96907736063606  3.58473218671867
 1 -2.78956401640164  2.25490954845485  3.38984114951495
 1 -3.68073151585158  0.75816050005000  3.81586399919992
 1 -1.87694017891789 -1.79807976837684  0.03911000180018
 1 -2.11311298379838 -0.08414116371637 -0.83757379697970
 1 -0.38205172257226  0.58598321222122  0.94684508360836
 1 -0.26491429342934 -0.93764828002800  1.45936989218922
 1 -6.00342911831183  6.92851149524953  0.70562627182718
 1 -5.75682267166717  6.00267363046305  2.25834213131313
 1 -4.38910286628663  6.01508267466747  1.04651782738274
 1 -9.23788584108411  6.00727687578758 -0.49257948614862
 1 -9.03860507640764  7.88671941084108  0.61775139693969
 1 -7.73547301310131  7.38908530803080  1.68925731123112
 1 -12.16867097219722  2.86257658365837 -2.25911891659166
 1 -13.31130079927993  2.00333422462246 -1.44641583308331
 1 -12.33352508360836  3.31858051275127 -0.54161540554055
 1 -12.46196097449745 -1.50638008310831 -1.02408736363636
 1 -13.28758747764777  0.00815407860786 -1.43283881138114
 1 -13.43336968956896 -1.43750843704370 -3.31124100860086
 1 -12.67126069026903  0.04166962936294 -3.56440993669367
 1 -11.81456773607361 -1.74622949004900 -3.55405402540254
 1 -8.90512011501150 -4.68883962686269 -1.77189045314531
 1 -7.97635700050005 -5.65237524172417 -0.78647826082608
 1 -9.48854873977398 -4.88520354165417 -0.21924374697470
 1 -3.29373006890689 -3.39306255695569 -0.20707597909791
 1 -1.23509167566757 -4.43666010571057  3.45903881918192
 1 -2.72234184278428 -5.65464708230823  3.67149998889889
 1 -1.44486259775978 -5.85100437363736  2.52169612251225
 1  2.73359266336634 -1.85096693259326 -1.52673663866387
 1  2.52894037163716 -0.17532325272527 -2.03072622482248
 1  4.20610151575158 -1.25155737093709  0.39242245824582
 1  4.05710467396740  1.39185789618962 -2.67395576527653
 1  5.26431184288429  2.23414367326733 -1.97411387958796
 1  5.75046235383538  0.88883999149915 -3.13758248924893
 1  6.54407647054705  1.69464346434643  0.11138378117812
 1  6.33335745514552  0.00707266986699  0.83265298199820
 1  7.30601798649865 -1.15412464766477 -1.02675399899990
 1  7.73318575447545  0.30990419851985 -1.76425934953495
 1  9.07803985558556  1.01820970597060  0.33039067126713
 1  8.54076256495650 -0.54983048924892  0.91055891959196
 1  10.30391794319432  0.21770430813081 -1.52500739023902
 1  9.06475146064606 -2.23346132263226 -1.35510143494349
 1  10.71321387708771 -2.49632641654165 -1.69651389528953
 1  9.95721860786079 -2.57383932593259 -0.28000744044404
 1  11.54716239713971  0.72843507370737  0.41870335783578
 1  11.23328638203821 -0.52398836013601  1.19265988758876
 1  12.56856017491749 -1.88515667686769 -0.55690335793579
 1  12.70776452895289 -0.23469277827783 -1.52945630693069
 1  13.45639707640764  0.75987854385439  0.95595293829383
 1  13.82095484858486 -0.82053165786579  1.24318083458346
 1  15.08090137863786  0.35195468046805 -1.32092645064506
 1  15.79607705060506 -2.10680097219722 -0.00873232713271
 1  14.81397444814482 -1.94842721832183 -1.64788220332033
 1  16.41419104850485 -1.64066959185919 -1.43689515901590
 1  16.24414961566157  1.56389422312231  0.96179272357236
 1  16.44638908610861 -0.18722789788979  1.45939870107011
 1  18.19347028572857 -0.25514206160616 -0.52036537693769
 1  17.56048311281128  1.24988230713071 -1.17871144694469
 1  18.24027482008201  2.29297345504550  0.90230823612361
 1  18.77254441474147  0.80072425342534  1.43040304060406
 1  20.55765067776778  0.32408855705571 -0.39736267226723
 1  20.08411251785178  3.37773133503350 -1.07343093649365
 1  21.45267952005200  2.46074272707271 -1.54778614191419
 1  19.84744864926493  1.99824163496350 -2.21298826782678
 1  21.47444341954196  1.01483959305931  1.83133275047505
 1  22.10552225852585  1.98021925162516  0.41514648094809
 1  20.67607733763376  2.89631971527153  1.40644108460846

