%nproc=4
%Mem=2GB
# td=(NStates=1) CAM-B3LYP/6-31G(d,p) 

TD

0 1
12 -7.16470704370437  0.57772652075208  0.04180186758676
 6 -4.86694131213121 -1.93738491689169  0.53443997669767
 6 -4.86185611451145  2.85107355465547  1.04819118401840
 6 -9.38148288378838  3.03830932643264 -0.40585344504450
 6 -9.50479079277928 -1.79236474747475 -0.90272670177018
 7 -5.08065148974898  0.41350116821682  0.59637005530553
 6 -4.34692439853985 -0.71895171717172  0.76655467866787
 6 -2.98459746514651 -0.36158558425843  1.30074042824282
 6 -3.04722816121612  1.11506417471747  1.69185991669167
 6 -4.42776977187719  1.50794154295430  1.12839986988699
 6 -2.92144722682268  1.44732702080208  3.13322473137314
 6 -1.89739320032003 -0.61192645404540  0.16519047734773
 6 -0.47588501110111 -0.49854420162016  0.62726685598560
 6  0.55909704690469 -0.73319683258326 -0.42453783428343
 8  0.32057329742974 -1.05541094869487 -1.58157448914891
 8  1.79806161666167 -0.39329672607261 -0.00859764866487
 7 -7.02695314321432  2.60403599339934  0.19948864436444
 6 -6.04151343034304  3.41126210201020  0.73084661826183
 6 -6.44734198729873  4.72082637203720  0.73369405660566
 6 -7.75855856285629  4.79673030453045  0.27445583688369
 6 -8.13951822342234  3.48980817611761  0.02537508380838
 6 -5.47443540024002  5.89684215011501  1.04527928842884
 6 -8.66375417301730  5.97783881758176  0.25105209060906
 6 -8.42688657995800  7.17763388198820  0.76447269706971
 7 -9.15645791839184  0.60718357945795 -0.58908294199420
 6 -9.87897415711571  1.79835978907891 -0.70201652575258
 6 -11.20616971357136  1.42239057815782 -1.17407912741274
 6 -11.26368877277728  0.06882224632463 -1.30189890389039
 6 -9.91827750845084 -0.34442641694169 -0.87297231333133
 6 -12.30594941864186  2.41386195719572 -1.38434520932093
 6 -12.39571411771177 -0.84690210031003 -1.70401120962096
 6 -12.40509799819982 -1.08532094329433 -3.30326544514451
 7 -7.22303177147715 -1.42354196779678 -0.17970264726473
 6 -8.32131237103710 -2.25839101120112 -0.50519547474747
 6 -7.86078222382238 -3.65955422292229 -0.46581385868587
 6 -6.55496938103810 -3.59955429242924 -0.05903763566357
 6 -6.18335093149315 -2.24393267456746  0.15798860306031
 6 -8.65315278267827 -4.85330817321732 -0.84033251165117
 6 -5.34018848914891 -4.34780866436644  0.20195306790679
 8 -5.16483532143214 -5.59667415081508  0.24386141684168
 6 -4.10288386778678 -3.25055084488449  0.53809367466747
 6 -3.54558518941894 -3.67385260656066  1.86161653455346
 8 -3.63919552015202 -3.13342007820782  2.98794147524752
 8 -2.75469666336634 -4.73793851625163  1.74209279017902
 6 -2.30883147104710 -5.24627885698570  2.91223615911591
 6  2.88780129182918 -0.65452324692469 -1.04445564596460
 6  4.19180126912691 -0.33523169946995 -0.41381153015302
 6  5.13199668406841  0.51706797219722 -0.80613038573857
 6  5.00127855085509  1.36641929122912 -2.09240340564056
 6  6.42471680448045  0.63304515471547 -0.01513799899990
 6  7.57342488038804  0.00424007710771 -0.85795274577458
 6  8.93461533413341 -0.09629475987599 -0.10315212801280
 6  10.07463808830883 -0.40157722942294 -0.97522849334933
 6  10.05955265546555 -1.85708664476448 -1.42011547654765
 6  11.40729360626063 -0.15683946474647 -0.05654478587859
 6  12.86832173987399 -0.46192024312431 -0.63805382828283
 6  14.00599006740674 -0.20883208600860  0.16676374387439
 6  15.33160928582858 -0.32294602370237 -0.61903014281428
 6  15.71572324122412 -1.69372700650065 -1.08825844354435
 6  16.47830193609361  0.27514187418742  0.37678218541854
 6  17.78690327972797  0.51234263266327 -0.29528534313431
 6  18.86660703020302  1.16520473747375  0.74641507450745
 6  20.24990365956596  1.32861319481948  0.23696846004600
 6  20.32922427622762  2.07494579177918 -1.10405139783978
 6  21.17523845464547  1.82730566686669  1.27511287468747
 1 -4.02137362186219  3.50734625602560  1.60560514741474
 1 -10.14891528422842  3.92179301430143 -0.65992138363836
 1 -10.33741703110311 -2.47681702250225 -1.32551920412041
 1 -2.63831028792879 -1.03076139003900  1.90194088528853
 1 -2.25047865306531  1.65874945754575  1.16347699809981
 1 -1.95536999449945  1.10704115701570  3.45588930243024
 1 -3.15427048704871  2.43106716421642  3.35970813621362
 1 -3.57670111281128  0.64916960096010  3.63736614941494
 1 -2.12888537343734 -1.65705566596660 -0.37959186838684
 1 -2.23060473297330  0.11775902630263 -0.40207024662466
 1 -0.38011152855286  0.41063567746775  1.00112051115112
 1 -0.42474027602760 -1.17629214441444  1.36460041524152
 1 -5.56988576397640  6.70710935503550  0.27529323852385
 1 -5.59660665006501  6.18176153925393  2.25725202230223
 1 -4.31954591059106  5.68664983138314  0.98057123272327
 1 -9.63564561706171  6.03436958505851 -0.27472770097010
 1 -9.39560077597760  7.94807554645465  0.79854947674767
 1 -7.39331879767977  7.48424482398240  1.22141052655266
 1 -12.03766787188719  2.88007833383338 -2.50935394009401
 1 -13.28179784898490  1.91270516171617 -1.40836202770277
 1 -12.32226395749575  3.24415307000700 -0.72880412441244
 1 -12.38030280868087 -1.87333677877788 -1.07455241014101
 1 -13.29984870377038 -0.43643037983798 -1.53753928142814
 1 -13.29946629922992 -1.39681436763676 -3.63986387088709
 1 -12.18896246044605 -0.22468700630063 -4.03648714441444
 1 -11.45236151545155 -1.75916078317832 -3.37351597159716
 1 -8.61128073107311 -4.91205194809481 -2.01809507360736
 1 -8.14191355615561 -5.66975697989799 -0.55507512051205
 1 -9.85475536043604 -4.78146316761676 -0.69935175777578
 1 -3.33279397529753 -3.39005225592559 -0.49867513901390
 1 -1.65783394989499 -4.65454189388939  3.26908982428243
 1 -3.12318192679268 -5.51896351395140  3.32814565346535
 1 -1.66126423792379 -6.10896016921692  2.71172512541254
 1  2.88214751885189 -1.76024786068607 -1.28326229122912
 1  2.63163064066407 -0.28455417581758 -1.99704285648565
 1  4.43499440504050 -0.68942115731573  0.39021223722372
 1  3.95090405390539  1.38546725712571 -2.49315768546855
 1  5.28362377407741  2.34809506840684 -1.71561803000300
 1  5.77294460206021  0.97496860436044 -2.88410714171417
 1  6.73725578847885  1.78541254125413  0.19198184098410
 1  6.50013413281328  0.09677163976398  0.95928564526453
 1  7.28852623732373 -0.89627886308631 -1.38217954155416
 1  7.73358579447945  0.55147835593559 -1.75146807040704
 1  9.10968301990199  0.94284216921692  0.43537116931693
 1  8.82545103380338 -0.89857536373637  0.76928479217922
 1  10.01581913331333  0.36559909760976 -1.91034592409241
 1  9.13700868636864 -2.10131810831083 -1.92745867066707
 1  10.89230178587859 -1.95645242914291 -2.25010925482548
 1  10.34166705270527 -2.48236017801780 -0.38149758945895
 1  11.41667934883488  0.77219945014501  0.25617710521052
 1  11.53450650405041 -0.87803376467647  0.86789741134113
 1  13.05780909980998 -1.51758992019202 -0.87557522512251
 1  13.06088984148415  0.10405109610961 -1.59366272757276
 1  14.14107554425443  0.81211376737674  0.70163750675068
 1  14.01867462056206 -0.87655726042604  1.13077959445945
 1  15.23876716521652  0.30169965496550 -1.29912427042704
 1  15.92220966386639 -2.52787307940794 -0.20752220612061
 1  15.08741179187919 -2.27455983158316 -1.78117553265327
 1  16.63593322272227 -1.91180670557056 -1.56511798129813
 1  16.19229443014301  1.25457329102910  0.73693023732373
 1  16.64232868006800 -0.39519869496950  1.36520928212821
 1  18.65575651435143 -0.29624617201720 -0.59032237263726
 1  17.84701176567657  1.17085440434043 -1.17057063286329
 1  18.43221401400140  2.27484164186419  1.04314231953195
 1  18.93045020532053  0.63285746674667  1.56118611891189
 1  20.50503541624163  0.31271741994199  0.03055011901190
 1  20.02131623822382  3.13714727662766 -1.15207880128013
 1  21.45144939703971  1.98655530833083 -1.25811717501750
 1  19.74268817321732  1.65762757355736 -1.90893786278628
 1  21.17894386958696  0.89557766686669  1.95831544874487
 1  22.11168287458746  1.82350358005801  0.72059702600260
 1  21.06502623252325  2.92471255455546  1.86112655315532

