%nproc=4
%Mem=2GB
# td=(NStates=1) CAM-B3LYP/6-31G(d,p) 

TD

0 1
<<<<<<< HEAD
12 -7.16835740874087  0.52087083518352  0.12660034743474
 6 -4.88545316331633 -2.03970514891489  0.59317585028503
 6 -4.71481141004100  2.88540698799880  1.11298766366637
 6 -9.40967570307031  3.14456995249525 -0.37752061176118
 6 -9.52446275997600 -1.79977548854886 -0.92860929002900
 7 -5.14947837243724  0.41118093619362  0.77734815311531
 6 -4.36248595469547 -0.80193001500150  0.84537256045605
 6 -2.92246125152515 -0.40547997369737  1.28335869006901
 6 -2.97798123652365  1.10713338163816  1.60258098879888
 6 -4.38228522342234  1.50819156795680  1.16841387128713
 6 -2.87862294439444  1.34565685378538  3.15814722362236
 6 -1.90176363736374 -0.68236349774978  0.06056001430143
 6 -0.46775419801980 -0.35673002020202  0.44831896119612
 6  0.51096223342334 -0.54641815471547 -0.68164354485449
 8  0.22117335743574 -0.92384779237924 -1.81325765746575
 8  1.76902871337134 -0.44633202960296 -0.23628041694169
 7 -7.09108955685569  2.63986957675768  0.32826152165217
 6 -6.02955223422342  3.34660563636364  0.74753828742874
 6 -6.32956020912091  4.73858814821482  0.74355504270427
 6 -7.71401410841084  4.85127575907591  0.38554694599460
 6 -8.17805207680768  3.49982917821782  0.01867441374137
 6 -5.41121907860786  5.85990845674567  1.28721348184818
 6 -8.51094889248925  6.06919795349535  0.09852683808381
 6 -8.52579647094710  7.18056417501750  0.76698294809481
 7 -9.08628090069007  0.67189005010501 -0.56349038273827
 6 -9.79977623732373  1.83770372347235 -0.68125444954495
 6 -11.16259535613561  1.52753109220922 -1.11269298879888
 6 -11.21309371327133  0.10807617171717 -1.29175788978898
 6 -9.95646132683268 -0.37541951625163 -0.85902091819182
 6 -12.28200702440244  2.41205177617762 -1.46563333813381
 6 -12.43081762806281 -0.72114952505251 -1.78889969846985
 6 -12.17817530593059 -1.13548595979598 -3.30236535513551
 7 -7.20302977127713 -1.42027164076408 -0.04125880288029
 6 -8.22065230503050 -2.25825099719972 -0.46832178737874
 6 -7.86153229882988 -3.62972123962396 -0.56670394769477
 6 -6.59750363446345 -3.57347168416842 -0.07114884678468
 6 -6.17873046944694 -2.21314959625963  0.08522132633263
 6 -8.76940440784078 -4.81821466386639 -0.76939541794179
 6 -5.41906637693769 -4.36778066156616  0.28048092069207
 8 -5.23207204510451 -5.61911639503950  0.23074010471047
 6 -4.24307788718872 -3.37241303110311  0.66776664196420
 6 -3.55673630453045 -3.64819004030403  2.00604097699770
 8 -3.85063666426643 -3.12059879607961  3.06050873197320
 8 -2.72624381808181 -4.69263398579858  1.80360894179418
 6 -2.00559114701470 -5.20607483658366  2.99016395189519
 6  2.81109362106211 -0.71023881848185 -1.17571877227723
 6  4.12581467046705 -0.39045722202220 -0.56589673867387
 6  5.13494697909791  0.32792905830583 -1.05358513121312
 6  5.14614303730373  1.07928057735774 -2.29598376367637
 6  6.44302863566357  0.29426127632763 -0.27910439563956
 6  7.72993053095310 -0.14546489338934 -0.98675562606261
 6  8.91172304490449 -0.21761689208921 -0.19180099289929
 6  10.16335696019602 -0.55894296599660 -0.96917788828883
 6  10.07561426162616 -1.96892782888289 -1.54843830883088
 6  11.48693157005701 -0.34334811561156 -0.02645177657766
 6  12.77220212791279 -0.60273432453245 -0.59317934083408
 6  13.94735420382038 -0.10293149594959  0.22622969046905
 6  15.31183730863086 -0.04370809990999 -0.46508474827483
 6  15.71146281518152 -1.51168880268027 -0.90118973667367
 6  16.35317942384238  0.49215357535754  0.54920942814281
 6  17.69721431083108  0.69078047644764 -0.19017483208321
 6  18.76297666716672  1.35419363636364  0.79448988198820
 6  20.15734440364036  1.33180351385139  0.30684544774477
 6  20.46081743554355  2.13114141134113 -1.08552954565457
 6  21.20684161496150  1.78575151145114  1.34060942434243
 1 -3.95349683418342  3.52949847124713  1.66191077797780
 1 -10.15340573327333  3.89200003500350 -0.50626601810181
 1 -10.54836812621262 -2.42225156595660 -1.29438609080908
 1 -2.51303776067607 -0.98198651255125  2.17900859205921
 1 -2.12003560876088  1.52021560416042  1.06134678507851
 1 -1.98453291079108  0.75658611151115  3.58620233373337
 1 -2.92487754775477  2.38464252175218  3.40123228862886
 1 -3.77056049874987  0.65835051905191  3.62139455225523
 1 -1.89513199809981 -1.80223018341834 -0.42707661686169
 1 -2.27023869636964 -0.05734848444844 -0.90944098369837
 1 -0.21765528292829  0.52090670457046  0.85173557265727
 1 -0.09649745174517 -0.97873238843884  1.14753870907091
 1 -5.65149392479248  6.72767141124112  0.85101081028103
 1 -5.51501849124913  6.03855721882188  2.27601389848985
 1 -4.32866682268227  5.55693686008601  1.12642581818182
 1 -9.30066211871187  6.00308645674567 -0.61364159235924
 1 -9.26324754065407  8.00361110001000  0.52906252805281
 1 -7.73899336513651  7.46989338883888  1.50559894539454
 1 -12.23976808190819  3.38977930393039 -2.15422842754275
 1 -13.21936160536053  2.01300519171917 -1.83138432993299
 1 -12.78846057715772  2.82452110681068 -0.33749499349935
 1 -12.47529230763076 -1.54263370847085 -1.19620457535754
 1 -13.12494121302130 -0.01946868366837 -1.71332686018602
 1 -13.03095944854486 -1.58013269946995 -3.64919480398040
 1 -12.23205676987699 -0.28745328292829 -4.16429992569257
 1 -11.31337761706171 -1.88057292439244 -3.38088670867087
 1 -9.46502610561056 -4.59509025192519 -1.59015227932793
 1 -8.07023638843884 -5.64421442564256 -0.78705831883188
 1 -9.53373325822582 -4.93357837913791  0.10008818621862
 1 -3.67187788368837 -3.41786503720372 -0.31963723522352
 1 -1.43141130763076 -4.48350479017902  3.20746366166617
 1 -2.82276188478848 -5.54891650925093  3.83183602250225
 1 -1.52240035153515 -6.06756602980298  2.54702865576558
 1  2.64046335043504 -1.77452928882888 -1.67164112911291
 1  2.52845032263226 -0.11598731913191 -2.12299545174517
 1  4.20389129472947 -1.17792000720072  0.36620983698370
 1  4.23310227372737  1.15375408580858 -2.67517588728873
 1  5.55004041574157  2.12604286318632 -2.22366883508351
 1  5.71297860546055  0.57472858035804 -3.00803953495350
 1  6.49879194209421  1.25839983998400  0.18939158195820
 1  6.14391851125113 -0.17947598499850  0.70182989968997
 1  7.39478686338634 -0.99387862306231 -1.27022834643464
 1  7.87334977087709  0.31246445454545 -1.81064398799880
 1  8.92370442204220  0.70604848984899  0.30650828302830
 1  8.70681917061706 -0.86164167036704  0.64894275797580
 1  10.14589214061406  0.25142768046805 -1.78910379987999
 1  9.07954293979398 -2.04301227772777 -2.06802272707271
 1  10.88847140284028 -2.15309209310931 -2.29712395629563
 1  10.15633851985199 -2.64044598659866 -0.60383982368237
 1  11.46031371227123  0.70784301450145  0.14400588808881
 1  11.43686674007401 -0.96077203850385  0.71736235783578
 1  12.93680699959996 -1.54859302050205 -0.93086075367537
 1  12.83708746124612 -0.02963227222722 -1.62349571087109
 1  13.92220365706571  0.89563211921192  0.78233557655766
 1  13.89000175327533 -0.62002160686069  1.14759127562756
 1  15.26070935943594  0.50116960196020 -1.33573793179318
 1  15.74094153705371 -2.30679097119712  0.04096264236424
 1  14.88895194589459 -1.93939631523152 -1.57863527862786
 1  16.71069069846985 -1.55890141504150 -1.56945841534153
 1  16.13589879057906  1.56180401410141  0.97631417571757
 1  16.43669811701170 -0.27950712581258  1.32491525272527
 1  18.19602054075408 -0.25220176757676 -0.45222856325633
 1  17.69563662816282  1.29995731463146 -0.96057963376338
 1  18.47949874247425  2.35139929762976  0.99224723002300
 1  18.74468162846285  0.68714289528953  1.71241124142414
 1  20.48439335203521  0.27392354055406  0.01431849584958
 1  20.11152525912591  3.04411797369737 -0.95206880028003
 1  21.49188344044405  2.31857851065106 -1.25266662996300
 1  19.91621552595260  1.85403721452145 -1.97325429442944
 1  20.97208318351835  1.38869697879788  2.40496011321132
 1  22.28880058635863  1.74079530923092  1.15715068136814
 1  21.15968569846985  3.05354543784378  1.28739918041804
=======
12 -7.12115268826883  0.51623037113711  0.04588227562756
 6 -4.83342796079608 -2.05570674907491  0.55198173087309
 6 -4.72358228712871  2.73991243854385  1.16743310821082
 6 -9.28881361686169  3.10225572107211 -0.60456331603160
 6 -9.46707702140214 -1.72619813081308 -0.90091652075208
 7 -5.08797222182218  0.35244506260626  0.73668408670867
 6 -4.25385509160916 -0.74461428342834  0.83810183338334
 6 -2.92644164956496 -0.44002342804280  1.27852820702070
 6 -3.05016845524552  1.02620528882888  1.78220895159516
 6 -4.37978497339734  1.42503325212521  1.22243927382738
 6 -2.98790387248725  1.18242053015302  3.28730013891389
 6 -1.96839030003000 -0.58083334473447  0.11558551685168
 6 -0.49601702430243 -0.57073142034203  0.59197332663266
 6  0.45724686188619 -0.66957046994699 -0.70485586608661
 8  0.16153739383938 -0.81892730033003 -1.87305363706371
 8  1.80401221172117 -0.67235463186319 -0.25047183608361
 7 -7.06879732763276  2.62687827762776  0.38624732023202
 6 -5.96950622962296  3.31927290309031  0.78964249784979
 6 -6.42346960006001  4.74251854125413  0.79905059225923
 6 -7.63134584158416  4.89602023352335  0.25263365466547
 6 -8.02913718531853  3.47580677597760 -0.10380783448345
 6 -5.50749870657066  5.94638710461046  1.26496125662566
 6 -8.43839163676368  5.99663069676968  0.15807279267927
 6 -8.41382527382738  7.12446856545655  0.86088233803380
 7 -9.09280155275528  0.72676553765377 -0.68386241994199
 6 -9.87518377807781  1.81352130523052 -0.75199152325233
 6 -11.13464256085608  1.47551589068907 -1.21348306780678
 6 -11.20986339023902  0.10532589668967 -1.29503821782178
 6 -9.91283696439644 -0.38337031133113 -0.88535355145515
 6 -12.13638246194619  2.54504507550755 -1.59104587938794
 6 -12.36887143344334 -0.76338374847485 -1.72029283778378
 6 -12.33162065046505 -0.95619803100310 -3.23997911651165
 7 -7.22626209450945 -1.32427204080408 -0.17227190419042
 6 -8.24988522832283 -2.24421959405941 -0.56287124232423
 6 -7.79936608220822 -3.59469773727373 -0.50663794109411
 6 -6.53264714881488 -3.58063240024002  0.04768303640364
 6 -6.08979157555756 -2.16701498279828  0.17680048424843
 6 -8.63743121052105 -4.80955379777978 -0.89158763716372
 6 -5.38461293159316 -4.37960184368437  0.36089896249625
 8 -5.34286312421242 -5.58464294769477  0.45103213391339
 6 -4.21197477687769 -3.42661845164516  0.61173103840384
 6 -3.54180481138114 -3.70922614391439  1.94379475237524
 8 -3.91408300890089 -3.08368510471047  2.99781246234623
 8 -2.76191738543854 -4.78332305470547  1.87122570347035
 6 -2.19021960986099 -5.23182741184118  3.07728266376638
 6  2.74477698939894 -0.68487628222822 -1.23076427682768
 6  4.09722181118112 -0.47465564186419 -0.62905305430543
 6  5.02777626202620  0.39707597299730 -0.96391616431643
 6  5.04735315831583  1.36342899219922 -2.11352551785179
 6  6.42873720652065  0.49041089128913 -0.22419890509051
 6  7.59110664856486 -0.15462580948095 -0.99879683018302
 6  8.78903077567757 -0.04035916631663 -0.15446725952595
 6  10.13370399489949 -0.50608768046805 -0.93410438093809
 6  10.07463416361636 -1.88698963506351 -1.51914537953795
 6  11.40491336823682 -0.23520730153015 -0.09506863826383
 6  12.81820672837284 -0.43792784388439 -0.68259828272827
 6  14.01738120652065 -0.06430763356336  0.13639070657066
 6  15.39663578847885 -0.20500422952295 -0.51263950375038
 6  15.69500116901690 -1.67025465926593 -1.02734235193519
 6  16.55665977187719  0.20913527352735  0.52445695289529
 6  17.81570616001600  0.40523192159216 -0.10762657725773
 6  18.80899126862686  1.23843206020602  0.78862929592959
 6  20.26540520972097  1.41188152165217  0.30905566876688
 6  20.34380573437344  2.02315061226123 -1.06591758445845
 6  21.08655958675868  2.24754769106911  1.27784314771477
 1 -4.06797828232823  3.55063058445845  1.61785637253725
 1 -10.12669306200620  3.85001583658366 -0.79858525002500
 1 -10.42275556495650 -2.41140048084808 -1.14184083628363
 1 -2.59773623052305 -1.08914722862286  2.02360305150515
 1 -2.22377598279828  1.70138372097210  1.17897854825483
 1 -2.07148160566057  0.81109156205621  3.68806251975198
 1 -3.25291035103510  2.09548360586059  3.84809697509751
 1 -3.65306874957496  0.64419910391039  3.71443385618562
 1 -2.19378186308631 -1.44667462786279 -0.26590049924992
 1 -1.93216488898890  0.10458770917092 -0.68193823342334
 1 -0.49316283368337  0.44499911381138  0.91345174427443
 1 -0.27316511851185 -1.43066758195820  1.28939289448945
 1 -5.88233700910091  6.75393403750375  0.55812152135214
 1 -5.60303729312931  6.27627099019902  2.29210550765076
 1 -4.47755171117112  6.00342150855086  1.08027120272027
 1 -9.26002805530553  5.98000414851485 -0.80095032323232
 1 -9.10320153605361  7.75791653055305  0.46264588638864
 1 -7.94115358115812  7.51344774427443  1.79329771527153
 1 -11.78134223932393  3.15459578557856 -2.38268127282728
 1 -13.14275394459446  2.03960785198520 -1.84649584108411
 1 -12.27777950905091  3.06903555825583 -0.69065030903090
 1 -12.28144292269227 -1.91884132923292 -1.22927788268827
 1 -13.30494921382138 -0.28357509430943 -1.43062859035904
 1 -13.17899425202520 -1.71722640884088 -3.51568145264526
 1 -12.51848541274128 -0.16614115171517 -3.90766426212621
 1 -11.36062234153415 -1.39456432353235 -3.60866948694870
 1 -9.01508111111111 -4.51745248814882 -1.82370563466347
 1 -8.11700106490649 -5.70442044624462 -0.71639125212521
 1 -9.52934281918192 -4.61740676197620 -0.08086990959096
 1 -3.46494719061906 -3.39074232493249 -0.29015428692869
 1 -1.89087725422542 -4.34325076477648  3.78637155245525
 1 -3.00970057865787 -5.84689630723072  3.44396723562356
 1 -1.28900701220122 -5.75583485668567  2.75535948884888
 1  2.65403470757076 -1.51439327522752 -1.76924088908891
 1  2.41193867146715  0.19240351995200 -1.90322347454745
 1  4.22789369496950 -1.03562577777778  0.34768798479848
 1  4.02345130863086  1.52092080248025 -2.42784115381538
 1  5.25392080378038  2.41998225712571 -1.87169363756376
 1  5.60620792839284  0.89646075357536 -3.04008273927393
 1  6.59925198809881  1.53378737873787 -0.05781313851385
 1  6.14396851625163 -0.09611764916492  0.66600631733173
 1  7.19071645634563 -1.05796503170317 -1.34689601320132
 1  7.80919335523552  0.29892310041004 -1.84811773537354
 1  8.94836688828883  0.90325821082108  0.33417104930493
 1  8.65168365706571 -0.65185069126913  0.66966483018302
 1  10.27365491689169  0.11009354705471 -1.88916380588059
 1  9.20114510001000 -1.86562453895390 -2.08529445424542
 1  10.89524207990799 -2.03577036093609 -2.26103034693469
 1  10.03744663066307 -2.63979592159216 -0.89949938963896
 1  11.42504018491849  0.85350758095810  0.39984147164716
 1  11.40671372477248 -1.00309627092709  0.68690931253125
 1  12.82535585448545 -1.33312147334733 -1.08209587718772
 1  12.77152090459046  0.28899959095910 -1.64375773707371
 1  13.90389182588259  0.89349190519052  0.54921226422642
 1  14.08303105620562 -0.77366697139714  1.10801731823182
 1  15.46536982548255  0.48900838583858 -1.24988934693469
 1  15.60397784068407 -2.28198849094909 -0.08859031293129
 1  14.93579663036304 -1.99070144574457 -1.73872128722872
 1  16.60254988438844 -1.91242676757676 -1.50857232673267
 1  16.09054425512551  1.13473130683068  0.98827537183718
 1  16.70830527772777 -0.44420359545955  1.29445220642064
 1  18.26278721742174 -0.54509105650565 -0.32821616201620
 1  17.76294335883589  1.12088940784078 -1.04525810161016
 1  18.59084987758776  2.34241839953995  1.03019102440244
 1  19.11961912221222  0.64039822082208  1.78161816211621
 1  20.93864877757776  0.44713086128613  0.22842990699070
 1  19.98294240084008  3.04022758465847 -1.05706930033003
 1  21.26023027512752  2.20661731453145 -1.54872623592359
 1  19.76870077447745  1.59431124192419 -2.06168313731373
 1  21.15302127732773  1.99624773387339  2.35611522872287
 1  22.09216092239224  2.35912714241424  1.01397636393639
 1  20.35079480938094  3.23415349864987  1.43670411091109
>>>>>>> 8e03b5b5abfc0030b3aa597dc0de36371bfbd096

