%nproc=4
%Mem=3GB
# td=(NStates=1) iop(3/107=0140000000,3/108=0140000000) CAM-B3LYP/6-31G(d,p) 

TD

0 1
12 -7.03113780548055  0.70741912541254  0.05025139513951
 6 -4.92160097659766 -1.95787301790179  0.53295869826983
 6 -4.77017304790479  2.86471518941894  1.24291439663966
 6 -9.37885464996500  3.15241279427943 -0.45933840914091
 6 -9.46473257125713 -1.63503526922692 -1.03765056995700
 7 -5.19349638083808  0.46751284188419  0.83043086708671
 6 -4.42843509080908 -0.64790593379338  0.85796369106911
 6 -3.01870809140914 -0.40565896389639  1.37599326842684
 6 -3.10835406230623  1.08214691629163  1.80676695599560
 6 -4.44519475417542  1.53431808290829  1.25915030893089
 6 -3.06784296509651  1.11379419871987  3.38291360596060
 6 -2.02642837253725 -0.60419640884088  0.20950476077608
 6 -0.58735444464446 -0.33093634163416  0.43320670297030
 6  0.37904982818282 -0.72643926582658 -0.77448723882388
 8  0.02840305710571 -1.06741051875187 -1.78057545064506
 8  1.67060565896590 -0.58761870027003 -0.30876626422642
 7 -7.04287193059306  2.71256446634664  0.29630055415542
 6 -5.99026917071707  3.38681244864486  0.86294217031703
 6 -6.36917182558256  4.81130799439944  0.95475373407341
 6 -7.71174595989599  4.89304110931093  0.43488961536154
 6 -8.13061258875888  3.53269020782078 -0.02330433183318
 6 -5.54804683858386  5.99229870357036  1.34013416861686
 6 -8.57512752075207  6.06484675427543  0.18911952445245
 6 -8.43991240124012  7.26829597929793  0.75595965526553
 7 -9.03365240634063  0.75394238863886 -0.54861143504350
 6 -9.84770225652565  1.84212753705371 -0.66835964946495
 6 -11.15484943764377  1.46448589308931 -1.15694055375538
 6 -11.20300978817882  0.10178772457246 -1.28517854615462
 6 -9.83864146774678 -0.33857405080508 -1.00160236153615
 6 -12.32414335203520  2.37504274567457 -1.42582203490349
 6 -12.22488628152815 -0.75802192599260 -1.84701403200320
 6 -12.16600850975098 -1.06855704800480 -3.29836048724872
 7 -7.13234619701970 -1.41803663936394 -0.10786346144614
 6 -8.30652497879788 -2.14500304580458 -0.53453503340334
 6 -7.82930497029703 -3.48724927632763 -0.48434873467347
 6 -6.54442223272327 -3.54591757385739  0.05512343064306
 6 -6.20366409810981 -2.16182413821382  0.20476231163116
 6 -8.57656999649965 -4.74508060646065 -0.89355273837384
 6 -5.37604306720672 -4.30235379877988  0.36462143624362
 8 -5.20640163246325 -5.57050390739074  0.35037098569857
 6 -4.17276177877788 -3.23582102950295  0.54894321592159
 6 -3.50808498529853 -3.66542448514851  1.82718868736874
 8 -3.85066785018502 -3.20311766966697  2.99048240644064
 8 -2.57035238803880 -4.70460907940794  1.66142518001800
 6 -2.05387434443444 -5.18756396229623  2.94631203160316
 6  2.71138745914591 -0.77626591549155 -1.25210872807281
 6  4.12099298449845 -0.66774204210421 -0.54395695849585
 6  5.18345383668367  0.10378690669067 -1.15732860986099
 6  5.15713943954395  0.88076575187519 -2.38561269626963
 6  6.46408268696870  0.11086170217022 -0.24600512491249
 6  7.72437388998900 -0.33920246824682 -1.15178550725072
 6  8.92796050765076 -0.31103291939194 -0.18926502890289
 6  10.20120558115812 -0.58574023722372 -1.04413013301330
 6  10.30180345694570 -2.11421930183018 -1.59482644864486
 6  11.45585024882488 -0.26535142624262 -0.13033099559956
 6  12.81495923142314 -0.56899693319332 -0.69976748184818
 6  13.93143441524152 -0.14571028532853  0.12981939353935
 6  15.32650864186419 -0.25397448104810 -0.45861151365137
 6  15.67468373937394 -1.65283367166717 -0.75513734003400
 6  16.43424041674167  0.34865138243824  0.46740147484748
 6  17.78189577727773  0.71027475707571 -0.25684221122112
 6  18.70041045964596  1.41106918541854  0.75737899459946
 6  20.18744154855485  1.50192962546255  0.40676738273827
 6  20.32292513831383  2.20178748384838 -1.01031572747275
 6  21.18833390039004  2.14187588748875  1.48365230523052
 1 -4.11290165366537  3.36121937333733  1.90713680948095
 1 -10.22477460076008  3.81545381988199 -0.76878140434043
 1 -10.33191761586159 -2.23066860196020 -1.18654647404740
 1 -2.73913120032003 -0.97080728342834  2.27110360106011
 1 -2.15368883518352  1.63958601970197  1.45658930793079
 1 -2.03263635003500  0.80704981138114  3.78002834023402
 1 -3.56979408850885  2.03126234903490  3.73895191739174
 1 -3.74679748024803  0.54289944424442  3.88698038323832
 1 -2.06972209120912 -1.46583725452545 -0.19474748184818
 1 -2.45646201520152  0.26274389418942 -0.44405113971397
 1 -0.38078350705071  0.68340792809281  0.54028789178918
 1 -0.24844326462646 -0.80400116671667  1.44778823712371
 1 -5.84543872157216  6.75633314531453  0.63098292959296
 1 -5.61610308160816  6.25899878127813  2.33770578307831
 1 -4.44152899749975  5.75545981398140  1.20381111371137
 1 -9.45456571637164  6.07440082208221 -0.38964031673167
 1 -9.20149921362136  8.15784550555055  0.57729750545054
 1 -7.81879981208121  7.53276011241124  1.67955691599160
 1 -11.88603907690769  3.06214536163616 -2.12666849834984
 1 -13.11473877157716  1.76098484088409 -1.67916364456446
 1 -12.63182421512151  2.92544987908791 -0.47348778827883
 1 -12.08295025992599 -1.89658058085809 -1.27136063696370
 1 -13.36557885698570 -0.48221093159316 -1.43800955535554
 1 -12.89398459765977 -1.72195585768577 -3.69476043414341
 1 -12.17448785448545 -0.02765123642364 -4.02022100050005
 1 -11.25891073047305 -1.69141016821682 -3.52696097429743
 1 -8.96390100870087 -4.67928442924292 -1.76296235923592
 1 -7.90268465366537 -5.75649160246025 -1.02842279737974
 1 -9.45725990499050 -5.10600904930493 -0.30862313101310
 1 -3.54597211571157 -3.32191879747975 -0.22187992609261
 1 -1.47145053265327 -4.38684089748975  3.27075879347935
 1 -2.93083952125213 -5.42108163306331  3.61068210591059
 1 -1.53606412691269 -6.17559834463446  2.72943630473047
 1  2.67404545934593 -1.86393301610161 -1.57165861456146
 1  2.54791123242324 -0.17437935313531 -2.17578863636364
 1  4.18330881758176 -1.25609402320232  0.30224162436244
 1  4.15532084358436  0.86905244794479 -3.06409689538954
 1  5.47503443564356  1.93924434833483 -2.32137957635764
 1  5.97372694119412  0.59039022992299 -2.81592784968497
 1  6.78392657655766  1.24312429302930  0.10474008790879
 1  6.34869274137414 -0.38021535823582  0.58389458495850
 1  7.41497362016202 -1.34380505350535 -1.55841059825983
 1  7.97373993249325  0.33385248824882 -1.91956277917792
 1  8.98047409170917  0.68322782028203  0.37466989508951
 1  8.57782090289029 -0.87503585628563  0.58594471787179
 1  10.21766639843984  0.06081222902290 -1.89859501750175
 1  9.19250885998600 -2.25480376387639 -2.03875225712571
 1  11.15482462306231 -2.17863126242624 -2.32196755485549
 1  10.40204240134013 -2.77167128182818 -0.68797619131913
 1  11.49607124872487  0.85294172757276  0.16237400820082
 1  11.36830442594260 -1.01770306790679  0.88287460756076
 1  12.88710666316632 -1.71185860516052 -0.85530780228023
 1  12.91902773267327 -0.15490055405541 -1.78442277597760
 1  13.88406982728273  0.89477484078408  0.39411424012401
 1  14.15295360596060 -0.72616899579958  1.18761113511351
 1  15.17896829822982  0.43786718371837 -1.37851912071207
 1  15.49306310311031 -2.20701004220422  0.30887275177518
 1  15.24893653805380 -2.30686520652065 -1.56451782528253
 1  16.79220750035003 -1.67150804780478 -0.92759927322732
 1  16.06397967146714  1.36888522222222  0.89806572287229
 1  16.44285836363636 -0.23225951075108  1.35647414211421
 1  18.49278601630163 -0.26578309230923 -0.52367256285629
 1  17.67720503010301  1.41135002910291 -1.20797654125413
 1  18.44098315521552  2.43762503050305  1.03829577637764
 1  18.54203016551655  0.96643148264827  1.70348359385939
 1  20.62797262956296  0.48390938853885  0.34186007820782
 1  19.90585740424043  3.24899567606761 -1.03127531223122
 1  21.50929473027303  2.36231737383738 -1.49725770697070
 1  19.80380877847785  1.74189447964796 -1.86299468386839
 1  21.00884473797380  1.62020766166617  2.40065373417342
 1  22.13148104090409  2.04732520322032  1.09817647124712
 1  20.99239931843184  3.19462557975798  1.81473861056106

