%nproc=4
%Mem=2GB
# td=(NStates=1) CAM-B3LYP/6-31G(d,p) 

TD

0 1
12 -7.20095066806681  0.57176592469247  0.15258294569457
 6 -4.84072869086909 -1.89055023342334  0.52551908460846
 6 -4.88659858875888  2.82836128342834  1.24985135003500
 6 -9.37651238673867  3.08428392389239 -0.44007686738674
 6 -9.65021533523352 -1.72310782178218 -0.87638406750675
 7 -5.13420684528453  0.47243706180618  0.74093451175118
 6 -4.40250995709571 -0.63399322132213  0.77270529372937
 6 -2.93498250365037 -0.30484991069107  1.13379373357336
 6 -2.98996243464346  1.13567623592359  1.62735346604660
 6 -4.46957395229523  1.48950969976998  1.16517354725473
 6 -2.72249733183318  1.33463575167517  3.12432384128413
 6 -1.84866832783278 -0.61313657505751 -0.04493053475348
 6 -0.39721714431443 -0.54531887908791  0.48215234453445
 6  0.46843798099810 -0.70358387128713 -0.65976135663566
 8  0.06863810391039 -1.18573398099810 -1.71235756745675
 8  1.78393020352035 -0.42248964536454 -0.32385917481748
 7 -7.20386083398340  2.60483607340734  0.46771546704670
 6 -6.06975625462546  3.31603257905791  0.84485801940194
 6 -6.39084633773377  4.70654494389439  0.77693838103810
 6 -7.63946665366537  4.85699633113311  0.27426581788179
 6 -8.12981725332533  3.44468366366637  0.06679922622262
 6 -5.52530048674867  5.83420588648865  1.10331509200920
 6 -8.48192599019902  5.97088812251225  0.07955494089409
 6 -8.34016790809081  7.12410852945295  0.87849409920992
 7 -9.08166043864386  0.60160302140214 -0.67413144684468
 6 -9.85161142084208  1.82629258235824 -0.68845516961696
 6 -11.15445454205421  1.45611395049505 -1.06301802130213
 6 -11.21223362726273  0.12752811691169 -1.22661137513751
 6 -9.86719239993999 -0.37117909220922 -0.82217723382338
 6 -12.31627045074507  2.45927649864986 -1.34969174397440
 6 -12.42435698199820 -0.76559396949695 -1.66054686318632
 6 -12.44476196459646 -1.21263367456746 -3.07425254385439
 7 -7.23877334563456 -1.46050566416642 -0.19221389838984
 6 -8.30745098489849 -2.25508068016802 -0.49322427762776
 6 -7.84478062366237 -3.59269753725373 -0.53928120542054
 6 -6.47646153025303 -3.56456079307931 -0.20192192409241
 6 -6.18657125352535 -2.26557483878388  0.04287709190919
 6 -8.67527499489949 -4.84805764816482 -0.76845532393239
 6 -5.28705317561756 -4.29685356885689  0.07728060066007
 8 -5.19290812871287 -5.54052853625362  0.24108113881388
 6 -4.15632921232123 -3.28445423522352  0.48227809310931
 6 -3.59717034793479 -3.63693891519152  1.90373074597460
 8 -3.94726632723272 -3.09857659385939  2.89467214831483
 8 -2.79934112781278 -4.67341206360636  1.77180576147615
 6 -2.15056564446445 -5.02101633073307  3.05181011651165
 6  2.79987249894989 -0.66816461106111 -1.30431163156316
 6  4.16107819681968 -0.42005018131813 -0.68548869786979
 6  5.17292077647765  0.35665193059306 -1.02756252895290
 6  5.13119154215422  1.30465311461146 -2.16218038333833
 6  6.44732906570657  0.28192004220422 -0.15194167936794
 6  7.62750028792879 -0.33639398629863 -0.86471342184218
 6  9.01397326992699 -0.30107523792379 -0.15271708450845
 6  10.25461608610861 -0.71402847454745 -0.85141611211121
 6  10.09598629882988 -2.16451738783878 -1.31168463346335
 6  11.42850572747275 -0.33562734353435 -0.02374150555055
 6  12.79938484618462 -0.49216326742674 -0.67932795569557
 6  13.90920038843884  0.04148294549455  0.15648271577158
 6  15.37701382628263 -0.14636836593659 -0.51326956675668
 6  15.75461713061306 -1.66808444224422 -0.68251786948695
 6  16.38735284118412  0.60188454845485  0.43518802600260
 6  17.81492608200820  0.69995139353935 -0.27922373697370
 6  18.73453382288229  1.31008922592259  0.76175660866087
 6  20.20487915711571  1.42511284478448  0.25630039323932
 6  20.41921327512751  2.28402669986999 -0.97999899259926
 6  21.22460339113912  1.82222515881588  1.36402176557656
 1 -3.95223670817082  3.43044856625662  1.60879546644665
 1 -10.11990238293829  3.97566840184018 -0.70270566206621
 1 -10.38462175157516 -2.54408374917492 -1.10670732293229
 1 -2.77827428432843 -1.01923023692369  1.86534722592259
 1 -2.26739034423442  1.79834341694169  0.95634628502850
 1 -1.50585504300430  1.05118557145715  3.24466818031803
 1 -2.71738679867987  2.31283534103410  3.52307447284729
 1 -3.42195563826383  0.79274395839584  3.67139955275528
 1 -2.16754923982398 -1.52278223862386 -0.56185009420942
 1 -1.74522619511951 -0.02938568816882 -1.04202424202420
 1  0.02553903650365  0.44812942684268  1.11214161326133
 1 -0.22117991999200 -1.38046256145615  1.03519747494750
 1 -5.81470024542454  6.83425206930693  0.68050375957596
 1 -5.41154814421442  5.77797116021602  2.36334263136314
 1 -4.41775573157316  5.71523268966897  0.61004418001800
 1 -9.05307736023602  6.19599574767477 -0.87064729292929
 1 -8.98822003790379  8.11637237613761  0.57232685448545
 1 -7.63324279007901  7.24643104260426  1.68149653515351
 1 -11.96317042214221  2.99703002900290 -2.15384838953895
 1 -13.23147281648165  1.97886177737774 -1.44425561706171
 1 -12.21116284738474  3.27069572427243 -0.49812105610561
 1 -12.44903968236824 -1.51923136823682 -0.90468542344234
 1 -13.29127784668467 -0.10157689448945 -1.42519804730473
 1 -13.43264961756176 -1.63243792999300 -3.17289717421742
 1 -12.36005957015702 -0.19522406000600 -3.63787728342834
 1 -11.61371765106511 -1.96664153125313 -3.18387700770077
 1 -9.00148975197520 -5.01123186608661 -1.88373163726373
 1 -8.03976334113411 -5.74375437963796 -0.49218883188319
 1 -9.53945383028303 -4.87771279257926 -0.02960478307831
 1 -3.26630732663266 -3.31615486618662 -0.23005827732773
 1 -1.64567273377338 -4.17640408010801  3.50372328762876
 1 -2.95287489608961 -5.48302992059206  3.77858069696970
 1 -1.55923403490349 -5.81030030323032  2.79544349724973
 1  2.50505981008101 -1.61026286218622 -1.88279224422442
 1  2.57127460506051 -0.08673439383938 -2.25307846004600
 1  4.32280318591859 -0.99660187538754  0.07451066706671
 1  4.05781474497450  1.60020873127313 -2.30445881558156
 1  5.26563197489749  2.52012227112711 -1.81253772197220
 1  5.73897120472047  1.28845995349535 -3.18016674767477
 1  6.59894195709571  1.28783278327833 -0.06304366156616
 1  6.24470859025903 -0.28011604900490  0.64939465616562
 1  7.30631801650165 -1.41012024722472 -1.14059538313831
 1  7.65070750665067  0.44146735483548 -1.73601652525253
 1  9.16443849544954  0.84695258025803  0.11051868406841
 1  9.02401088978898 -0.89256476267627  0.74128199189919
 1  10.27266481788179 -0.10034749704970 -1.63896878637864
 1  9.32522750825082 -2.16555453195320 -1.91384730953095
 1  10.99664221992199 -2.43482026592659 -1.95474971887189
 1  9.83686657265727 -2.89939188118812 -0.62564200390039
 1  11.51244892579258  0.76928915911591  0.14573606110611
 1  11.50742379577958 -0.92414837613761  0.96820744234423
 1  13.10752407130713 -1.54438259945995 -1.06902457005701
 1  13.07492124462446  0.09866055705571 -1.63355671697170
 1  13.95848728542854  0.96383893989399  0.33920126312631
 1  13.84944769786979 -0.42551215591559  1.21491800830083
 1  15.32178546704670  0.42497198219822 -1.44754911291129
 1  16.35865330823082 -2.34339463156316  0.10012855895590
 1  14.80632368306831 -2.34684706030603 -1.02759017411741
 1  16.58468809820982 -1.45980150505050 -1.50936240574057
 1  16.19750495119512  1.51319915361536  0.57042358665867
 1  16.56186063326333 -0.01390056515652  1.16770953215321
 1  18.04394533323332 -0.38194474187419 -0.57828116851685
 1  17.74834189868987  1.24031135003500 -1.23344692049205
 1  18.21934272687269  2.34129828752875  1.03015102040204
 1  18.80626778707871  0.89073325432543  1.63681368166817
 1  20.47948286098610  0.25369151735174  0.17682474647465
 1  20.17502160876088  3.26068963086309 -0.73551714511451
 1  21.54976922902290  2.14628128092809 -1.12899426272627
 1  19.83734763916392  1.81940375117512 -1.78162513151315
 1  21.26519249444944  1.42393050215022  2.30725034223422
 1  22.15279698599860  1.53345457515752  0.83706867316732
 1  21.33083281318132  2.83379346264626  1.72133257375738

