%nproc=4
%Mem=2GB
# td=(NStates=1) CAM-B3LYP/6-31G(d,p) 

TD

0 1
12 -7.13335390839084  0.66047479557956  0.06877456485649
 6 -4.83305792379238 -2.03214439283928  0.57970450315032
 6 -4.81379130803080  2.83168161546155  1.06372273717372
 6 -9.39438417391739  3.11354685018502 -0.39366222592259
 6 -9.56590690439044 -1.80037554855486 -1.00409683878388
 7 -5.16503992859286  0.32910272837284  0.73514393269327
 6 -4.37709741584158 -0.75863568556856  0.80837886108611
 6 -3.03045205060506 -0.41592101780178  1.42441279547955
 6 -3.03810724912491  0.99126179447945  1.76192692339234
 6 -4.41423841874187  1.44228497729773  1.17134416431643
 6 -2.91944702680268  1.32651493959396  3.16304771367137
 6 -1.83986744774477 -0.83595885728573  0.27020097839784
 6 -0.43592101470147 -0.68769311651165  0.71637576687669
 6  0.56312744994499 -0.77323083598360 -0.39154453495350
 8  0.24993623372337 -0.98767417501750 -1.53284961666167
 8  1.75183699419942 -0.48959635603560 -0.01338812771277
 7 -7.07604805270527  2.63753934373437  0.38723741924192
 6 -6.05826510551055  3.36054703050305  0.66245977957796
 6 -6.33072032513251  4.80438472787279  0.65115580278028
 6 -7.63362606960696  4.86236686818682  0.18754714601460
 6 -8.08876314791479  3.53316251155116  0.02356490279028
 6 -5.34796275297530  5.79955242114211  1.16852161266127
 6 -8.52822061966197  6.02242327602760  0.09410639603960
 6 -8.43166705800580  7.13692981158116  0.69683593339334
 7 -9.10638291089109  0.66259912101210 -0.40530456415642
 6 -9.88659491919192  1.78142809590959 -0.66739306340634
 6 -11.14743383998400  1.54007234633463 -1.19033075257526
 6 -11.19181158505851  0.15516088018802 -1.17409612361236
 6 -9.92059774047405 -0.40166214051405 -0.94789980608061
 6 -12.14010283398340  2.59409998099810 -1.53140991579158
 6 -12.33568811511151 -0.63059046914691 -1.78665947444744
 6 -12.22280976937694 -1.01294370557056 -3.22962808140814
 7 -7.23215268356836 -1.37848746234623 -0.21363604060406
 6 -8.29524976477648 -2.23859903200320 -0.65561051625163
 6 -7.84858100370037 -3.59450771827183 -0.62967024432443
 6 -6.50869475357536 -3.51238557555756 -0.22172390429043
 6 -6.17746034243424 -2.14771305260526 -0.01866906270627
 6 -8.67762522992299 -4.74894773717372 -0.93062154055406
 6 -5.39305377567757 -4.45402928642864  0.16953982658266
 8 -5.28364720262026 -5.68485296869687  0.30130716141614
 6 -4.25244882428243 -3.45953174297430  0.63510337563756
 6 -3.64374500540054 -3.83947916921692  1.94780515341534
 8 -3.76747834843484 -3.20607734393439  3.02300498159816
 8 -2.88471966566657 -4.91806652905291  1.87204578547855
 6 -2.27352794069407 -5.29873410251025  3.11629656515652
 6  2.89733224492449 -0.72428022262226 -1.03407460786079
 6  4.01536362536254 -0.27770594689469 -0.48235838483848
 6  5.09111259565957  0.40810707610761 -0.94578435113511
 6  5.11986040904090  1.36361901120112 -2.20368453375338
 6  6.44550888368837  0.55475732593259 -0.21778826402640
 6  7.60453799169917 -0.07013736063606 -0.97518446894689
 6  8.95233710631063  0.00142501210121 -0.13598541134113
 6  10.21794241874187 -0.45977304900490 -0.95277624812481
 6  10.07683438363836 -2.02295323142314 -1.30817428242824
 6  11.56493937083708 -0.24978875967597 -0.14385351675168
 6  12.83672858055806 -0.46056010711071 -0.85594561746175
 6  14.04004347274727 -0.11428263106311  0.05654272177218
 6  15.44494061896190 -0.09901363046305 -0.56300454025403
 6  15.74726639553955 -1.53156078987899 -1.08238785648565
 6  16.38110221612161  0.37494185418542  0.44028853605361
 6  17.78445303470347  0.54557595599560 -0.21406722132213
 6  18.69488985848585  1.41149936693669  0.74134456745675
 6  20.17610627982798  1.30866119961996  0.27498226142614
 6  20.37153850765077  1.93270156735674 -1.18088908160816
 6  21.00726165696570  2.04436737303730  1.32552791619162
 1 -4.13747523202320  3.58040356175618  1.45271985888589
 1 -10.24119451215122  4.00489132413241 -0.50397578907891
 1 -10.36878016741674 -2.47710705150515 -1.36694334653465
 1 -2.96496295319532 -1.18172648654865  2.26498718991899
 1 -2.44734834003400  1.57612119471947  0.91308195859586
 1 -2.08621307880788  0.92458291119112  3.53846756025603
 1 -3.04362942294229  2.39098315581558  3.22690485588559
 1 -3.70295373807381  0.81593627762776  3.93795620842084
 1 -2.07376986188619 -1.80923088348835 -0.29174308350835
 1 -1.73581525402540  0.03058030843084 -0.58370841044104
 1 -0.54507802520252  0.28693330723072  1.51294169326933
 1 -0.12244004600460 -1.33652816801680  1.44003795899590
 1 -5.54762353775378  6.91555019911991  0.88359406860686
 1 -5.37419440884088  5.78383174627463  2.21233753085309
 1 -4.34771872787279  5.56677784418442  0.61725490109011
 1 -9.46137819031903  5.72214836293629 -0.57480770897090
 1 -9.33461467736774  7.85681642054205  0.55626524832483
 1 -7.61857132293229  7.34137053655366  1.40215860136014
 1 -11.77430153525352  3.14794512051205 -2.39887289198920
 1 -13.06770643984398  2.16186007720772 -1.94384557605761
 1 -12.33693542464247  3.45639429412941 -0.89104034803480
 1 -12.25683046144615 -1.39400884598460 -1.00370532543254
 1 -13.14094281318132  0.03462672587259 -1.81423695119512
 1 -13.08363471607161 -1.66919160536054 -3.41077096159616
 1 -12.36397996219622 -0.04870940854085 -3.84914841054105
 1 -11.22898917821782 -1.51498636573657 -3.43454207420742
 1 -8.94311391439144 -4.57540828372837 -2.03471673577358
 1 -8.20818018281828 -5.82176218041804 -1.07480709370937
 1 -9.52435232013201 -4.81064608590859 -0.26036785938594
 1 -3.59565026092609 -3.49739298999900 -0.12051732323232
 1 -1.81075924242424 -4.43212965266527  3.59689260456046
 1 -3.25830543914391 -5.32435405300530  3.79157199609961
 1 -1.58144625612561 -6.12512178537854  2.82791674457446
 1  2.80857016111611 -1.77076891279128 -1.44618858385839
 1  2.50137761536154  0.05675995559556 -1.83933708590859
 1  4.36838774437444 -0.85799801500150  0.39352256825683
 1  4.06262522602260  1.49490820122012 -2.59358772847285
 1  5.41222663436344  2.38478873777378 -1.86298276647665
 1  5.77165447304731  0.97436854435444 -3.17705643664366
 1  6.50690275317532  1.41671567156716  0.42070471327133
 1  6.14841896129613 -0.13154119151915  0.68862857955796
 1  7.36126351105110 -1.14233346854685 -1.32434375797580
 1  7.85122755865587  0.56054926302630 -1.77647057065707
 1  9.00306235783578  1.10498838383838  0.19561719391939
 1  8.80165865456546 -0.54107961416142  0.65604346804681
 1  10.43177072847285  0.03248578627863 -1.92770766026603
 1  9.22484747024702 -2.39899787628763 -1.72650857565757
 1  10.80522307800780 -2.15864264816482 -2.06179042294229
 1  10.17577046304631 -2.64832677467747 -0.35493493319332
 1  11.60031771267127  0.69779200940094  0.09004049154916
 1  11.39390244364436 -0.90007596889689  0.79997061866187
 1  12.95673899279928 -1.47641580278028 -1.15105277287729
 1  12.86772052455245  0.21096178717872 -1.91162452375238
 1  13.85238667536754  0.91878443444344  0.33400074307431
 1  14.03378613171317 -0.88982858755876  0.91177769426943
 1  15.44700798929893  0.62359184418442 -1.34929928792879
 1  15.81336877977798 -2.17148744084408 -0.23647510141014
 1  14.94546759745975 -1.90265264086409 -1.69955737083708
 1  16.78507813721372 -1.49125465036504 -1.58216968646865
 1  16.02765796649665  1.34022185588559  0.87863440774077
 1  16.35790023722372 -0.26162533763376  1.31760452165216
 1  18.25422636133613 -0.36314286168617 -0.34608794919492
 1  17.61146821132113  1.23144046294629 -1.15078865466547
 1  18.20272106470647  2.49793395109511  1.01098910421042
 1  18.63156031633163  0.84051823282328  1.61803180348035
 1  20.48603351605161  0.10719686788679  0.40551761576158
 1  19.96616072267226  2.98542210411041 -1.19027262066207
 1  21.53150740284028  1.91912856565657 -1.34963632693269
 1  19.86612051645165  1.34260607140714 -1.89738670767077
 1  20.89537551275128  1.46035414451445  2.19719933713371
 1  22.15018672497250  2.01598282798280  1.36072103840384
 1  20.86103583348335  3.09681976527653  1.28476891739174

