%nproc=4
%Mem=2GB
# td=(NStates=1) CAM-B3LYP/6-31G(d,p) 

TD

0 1
12 -7.17441801480148  0.63371211931193  0.16207389478948
 6 -4.90881549954995 -1.92018319671967  0.44178071077108
 6 -4.87323725262526  2.77327577487749  1.16961332623262
 6 -9.50167490299030  3.04106960246025 -0.35358821852185
 6 -9.58395870957096 -1.70025553655366 -0.83839026812681
 7 -5.14130755535554  0.37333715181518  0.72047246554655
 6 -4.31296100220022 -0.73984380638064  0.69113713691369
 6 -2.97764677007701 -0.39000842654265  1.16413676787679
 6 -3.08512195059506  1.03758642694269  1.60544127482748
 6 -4.43174016891689  1.49462021082108  1.14080111001100
 6 -2.86669175127513  1.32623491159116  3.07325873477348
 6 -1.91122458345835 -0.67516277767777  0.12696665496550
 6 -0.48616603920392 -0.34110845804580  0.61510563986399
 6  0.50001113831383 -0.64626813971397 -0.52470785128513
 8  0.28180942104210 -1.18718412601260 -1.59180551225123
 8  1.82824463496350 -0.28083547994799 -0.08280506940694
 7 -7.18197864576458  2.60116570637064  0.43460215571557
 6 -6.08036731573157  3.35244622042204  0.81074460806081
 6 -6.43657091019102  4.84802909230923  0.78342903010301
 6 -7.73986669366937  4.82090272177218  0.23704209550955
 6 -8.25165943754376  3.46681587688769  0.10346289258926
 6 -5.56894485118512  5.94693715961596  1.13724848534853
 6 -8.52271006860686  6.04662569626963 -0.04488750335034
 6 -8.32534642594259  7.23946006460646  0.54325057485749
 7 -9.08924119671967  0.58014087518752 -0.51380541424142
 6 -9.93809006870687  1.72751270437044 -0.57941426552655
 6 -11.28006710331033  1.48829716881688 -1.09090080958096
 6 -11.37926032993299  0.05787115121512 -1.17366608060806
 6 -10.06122180288029 -0.44346632093209 -0.91596661276128
 6 -12.45133395709571  2.40962153315332 -1.31370814561456
 6 -12.39057360366037 -0.86717412751275 -1.73424423292329
 6 -12.35966345474547 -1.22309472067207 -3.27042216081608
 7 -7.19954942324232 -1.41206081968197 -0.14207888488849
 6 -8.30548078787879 -2.27986315841584 -0.48854380958096
 6 -7.83573971957196 -3.62846111361136 -0.44233151045105
 6 -6.49242312641264 -3.54691902890289 -0.10857258915892
 6 -6.19510210661066 -2.18811709300930  0.13996680088009
 6 -8.66307377477748 -4.81317415981598 -0.81025950435044
 6 -5.28638310861086 -4.35183906740674  0.13581645424542
 8 -5.13533237113711 -5.55295977937794  0.09689672037204
 6 -4.16435001440144 -3.21306709650965  0.51159102440244
 6 -3.64438506940694 -3.62266748804881  1.76487686058606
 8 -3.80036163676368 -3.03841057725773  2.81570425152515
 8 -2.79537073077308 -4.60611533393339  1.62965154605461
 6 -2.14332492039204 -5.13367759685969  2.82805774127413
 6  2.94734724642464 -0.55615340994099 -1.09925112551255
 6  4.28345043404340 -0.38616679297930 -0.49217936693669
 6  5.21223470787079  0.47064332973297 -0.81769154185419
 6  5.06045446844684  1.37653030233023 -2.03756792209221
 6  6.46703103590359  0.27603945414541 -0.04251073627363
 6  7.64257179507951 -0.22637298419842 -0.90218716921692
 6  8.92701457405741 -0.17114224462446 -0.04922673547355
 6  10.20522114661466 -0.69093616531653 -0.82158312881288
 6  10.07152385258526 -2.10163109920992 -1.25119858485849
 6  11.51977485438544 -0.33730751155116 -0.05840497189719
 6  12.86315122282228 -0.49222327342734 -0.81579160206021
 6  14.02701216961696 -0.16629783258326  0.15525259275928
 6  15.39009513441344 -0.23797752685269 -0.37594583438344
 6  15.82455412431243 -1.59750738453845 -1.05302492019202
 6  16.46592069796980  0.33405776577658  0.54992950015001
 6  17.77129171857186  0.68459985838584 -0.27977379197920
 6  18.78730910041004  1.38581679867987  0.70420085308531
 6  20.28005667486748  1.30356068956896  0.24934969816982
 6  20.48191954575458  2.06318461566157 -1.16451744444444
 6  21.18212914371437  1.90183311961196  1.30818618201820
 1 -4.12376386088609  3.50445596699670  1.41169575647565
 1 -10.11638203090309  3.74366520152015 -0.33617900940094
 1 -10.58824211361136 -2.24136347714771 -0.86618327052705
 1 -2.76339279617962 -1.31314962886289  2.03820451165117
 1 -2.17112071727173  1.49987356995700  1.13733438383838
 1 -1.81024548204821  1.05644609750975  3.47739145264526
 1 -3.21004606460646  2.48229228672867  3.00073223862386
 1 -3.43678712141214  0.73991867586759  3.66414882768277
 1 -1.90242272717272 -1.68622858325833 -0.22626653585358
 1 -2.31064273677368 -0.02162491209121 -0.73176321592159
 1 -0.38913243064306  0.52820743464346  0.99391979107911
 1 -0.27621542354235 -0.97241175637564  1.53924787998800
 1 -5.97412618801880  6.64742338643864  0.52088779797980
 1 -5.45867285668567  6.15877924102410  2.38828512561256
 1 -4.51997595359536  5.58406957335734  1.10293346894689
 1 -9.17148920142014  6.13192934103410 -0.95364559275928
 1 -9.03130434633463  8.04358509740974  0.22486210801080
 1 -7.74788425422542  7.21350775027503  1.41027941344134
 1 -12.37298140324032  3.12140246624662 -2.21597460216022
 1 -13.36670633983398  1.64663855505551 -1.22259345084508
 1 -12.31150288138814  3.07749640434043 -0.37937918191819
 1 -12.19981475987599 -1.88808825392539 -1.22001695659566
 1 -13.47594631353135 -0.37725446224622 -1.46860238773877
 1 -13.06177252985299 -1.85570025622562 -3.46025591009101
 1 -12.45275884008401 -0.20849538713871 -3.75616911261126
 1 -11.23138941824183 -1.62844771187119 -3.53474209420942
 1 -8.95045464846485 -4.82207295019502 -1.74087735183518
 1 -7.99604896969697 -5.63348335253525 -0.76499611261126
 1 -9.39767965286529 -4.79349437073707 -0.10832265486549
 1 -3.31802249814982 -3.38334158485849 -0.39852512401240
 1 -1.52023018951895 -4.39020546024602  3.06821973727373
 1 -2.91241084968497 -5.26543816141614  3.71394423332333
 1 -1.66495460696070 -5.86141541474147  2.27225117801780
 1  2.81273057715772 -1.50603243914391 -1.55929989498950
 1  2.94881235883588  0.40117439703970 -1.72637578977898
 1  4.42784368996900 -0.98168038323832  0.41633484948495
 1  4.10860982448245  1.46812552295229 -2.38860723042304
 1  5.32973838553855  2.38333859275928 -1.81010747894789
 1  5.80928823642364  1.00878198569857 -2.83475220622062
 1  7.24141620452045  1.37192119211921  0.46016865966597
 1  6.47902202160216 -0.45554359175918  0.70274999169917
 1  7.66972435713571 -1.42374160936094 -1.08477980158016
 1  7.86076851275128  0.22980618871887 -1.82544546814681
 1  9.04980703230323  0.91071895689569  0.16502413461346
 1  8.79661815051505 -0.87362286848685  0.81439930363036
 1  10.22485003640364 -0.07643510581058 -1.83772866236624
 1  9.37100208570857 -2.22468044454445 -1.83174909970997
 1  10.95686824252425 -2.54827161106111 -1.82948719261926
 1  9.86787967396740 -2.92841478347835 -0.43298273797380
 1  11.36764444534453  0.64612684288429  0.15722721022102
 1  11.56196925032503 -0.95451141244124  0.91264188578858
 1  13.04688800770077 -1.51629979117912 -1.23679134673467
 1  12.95767952045204  0.07636832783278 -1.79736309760976
 1  14.09282071877188  0.85254781078108  0.50110745374537
 1  14.06834958805881 -0.78789839453945  1.10561707820782
 1  15.35126841534153  0.42161164616462 -1.24742910091009
 1  15.77849529242924 -2.32520281238124 -0.31348280218022
 1  15.18456150685068 -2.06900927652765 -1.94640205530553
 1  16.73534316371637 -1.40999652455246 -1.61753322282228
 1  16.16321152185218  1.29026686038604  1.14562110641064
 1  16.85462991019102 -0.36102527762776  1.24879764096410
 1  18.15340627932793 -0.14938148554855 -0.74695803620362
 1  17.68549561406141  1.33184050295030 -1.16628020382038
 1  18.53230402300230  2.36821097879788  0.46540454575458
 1  18.67279443974398  0.76705088608861  1.51970197049705
 1  20.47942285498550  0.29242539073907  0.07302436643664
 1  20.10697480408041  2.95651921382138 -0.90754434783478
 1  21.35600985308531  2.27437409020902 -1.69319068236824
 1  19.73369727412742  1.61152296309631 -1.85362233123312
 1  21.07457343254325  1.48690679977998  2.41170078727873
 1  22.33687539383938  1.81389261896190  1.06841180748075
 1  20.89263899379938  3.05194527782778  1.35647608810881

