%nproc=4
%Mem=3GB
# td=(NStates=1) iop(3/107=0140000000,3/108=0140000000) CAM-B3LYP/6-31G(d,p) 

TD

0 1
12 -7.17789248094809  0.59754813831383  0.15058142814281
 6 -4.89553837033703 -1.96521375197520  0.43653905630563
 6 -4.73401943254325  2.79250796869687  1.16040614581458
 6 -9.36442320682068  3.12510006300630 -0.31228370367037
 6 -9.54196029402940 -1.74607637333733 -0.82708951385139
 7 -5.12783981518152  0.41879797039704  0.68668649264927
 6 -4.29945219251925 -0.71966310951095  0.73680157485749
 6 -2.96565278587859 -0.44230262826283  1.16394206330633
 6 -2.96301952885289  1.11124982658266  1.58016429572957
 6 -4.39808004270427  1.44035868696870  1.10739513341334
 6 -2.86675285608561  1.22860567986799  3.10026534113411
 6 -1.92054778447845 -0.61870785998600  0.02179598989899
 6 -0.47032274147415 -0.44605785378538  0.58467184948495
 6  0.48164008720872 -0.74529115101510 -0.59391918201820
 8  0.15773599039904 -1.08063184088409 -1.76446383948395
 8  1.78285688408841 -0.52953289168917 -0.14082947054705
 7 -7.09454709810981  2.57531074097410  0.35314623872387
 6 -6.06948709250925  3.29253302070207  0.88066394249425
 6 -6.31548645704570  4.70339720332033  0.80039829852985
 6 -7.56738152345234  4.89637144234423  0.27784391079108
 6 -8.08757828532853  3.47081402020202  0.04564256285629
 6 -5.47566960086009  5.85730520422042  1.24186434163416
 6 -8.45562557055706  6.01885215481548  0.03005361786179
 6 -8.23878228822882  7.20522967266727  0.57614167346735
 7 -9.15328436953695  0.65135212961296 -0.48483505740574
 6 -9.85594308060806  1.77628095239524 -0.46471928542854
 6 -11.17434138683868  1.47356680118012 -1.08384324402440
 6 -11.28462794999500  0.11582912871287 -1.18856888518852
 6 -9.97233483708371 -0.40118031143114 -0.86357855915592
 6 -12.31004194189419  2.58602384378438 -1.23556300900090
 6 -12.43607740064006 -0.67040316411641 -1.69441877247725
 6 -12.09565147404741 -1.14195438773877 -3.12246289748975
 7 -7.27512047444744 -1.37125196089609 -0.24767744284428
 6 -8.31308563486349 -2.25105365086509 -0.58188976887689
 6 -7.81668370817082 -3.68361891329133 -0.49905020482048
 6 -6.48624641514151 -3.52975595769577 -0.18085016671667
 6 -6.16106983868387 -2.20795875167517  0.05282711811181
 6 -8.71396373587359 -4.83172927132713 -0.85593897699770
 6 -5.36207167006701 -4.41416497989799  0.13727870197020
 8 -5.19531052335234 -5.60262711971197  0.10179612821282
 6 -4.13792829542954 -3.31355880328033  0.50793911551155
 6 -3.59013319011901 -3.66240418311831  1.82268823732373
 8 -3.68514129752975 -2.98741609950995  2.88207156535654
 8 -2.73145849864986 -4.69489810831083  1.76528556605661
 6 -1.96945590259026 -5.12227743364336  2.91726912731273
 6  2.81417773817382 -0.73639192809281 -1.16601011821182
 6  4.18064895009501 -0.42761802970297 -0.47590015281528
 6  5.11769726102610  0.34274080208021 -0.93389626662666
 6  5.04025775137514  1.16047372267227 -2.18785292029203
 6  6.33886016471647  0.53574419041904 -0.21100162456246
 6  7.49147059965997  0.07875932793279 -0.97237756645665
 6  8.91507921952195  0.07311549544954 -0.23343944634463
 6  10.19694515511551 -0.40403206640664 -0.97762348234823
 6  10.13702697929793 -1.93485136503650 -1.23204017001700
 6  11.39973463726372 -0.06538142924292 -0.10262822532253
 6  12.73894162966297 -0.44762479597960 -0.75969347444744
 6  13.86591786358636 -0.14258997329733  0.18576498809881
 6  15.23769976097610 -0.22229131273127 -0.53992964546455
 6  15.65770204120412 -1.62761114941494 -0.84384621092109
 6  16.32819981268127  0.33977049434943  0.45315004970497
 6  17.74235182288229  0.51965569516952 -0.19136566356636
 6  18.78194861346135  1.27970604910491  0.69831308800880
 6  20.24499730413041  1.16101553405341  0.37231393739374
 6  20.48482132793279  1.83760106520652 -0.96416111201120
 6  21.11112617961796  1.91533323322332  1.39406334633463
 1 -4.03708407190719  3.47971122252225  1.44257035283528
 1 -10.22064418771877  4.02770504500450 -0.50246477267727
 1 -10.44675910001000 -2.44736027112711 -1.16311413081308
 1 -2.85743303050305 -1.10122032473247  2.04638112881288
 1 -2.19213267956796  1.66453851495150  1.06366001500150
 1 -1.80893397979798  0.80861996839684  3.54153449084908
 1 -2.75137224632463  2.45571479427943  3.38388641084109
 1 -3.72467526802680  0.60528568286829  3.73684536973697
 1 -2.02225734473447 -1.58090876167617 -0.52607061416142
 1 -2.28219458845885  0.05794341414141 -0.69186592119212
 1 -0.25257068576858  0.43937352465247  1.02939680268027
 1 -0.49985840614061 -1.47865863246325  1.28788224652465
 1 -5.67554173187319  6.64253176517652  0.49818965026503
 1 -5.87270874217422  6.14456733813381  2.37467948044804
 1 -4.40902574717472  5.57529179717972  1.23822455505551
 1 -9.28974923472347  5.94525790779078 -0.57118847154715
 1 -8.90690975467547  7.96916663766377  0.11307108280828
 1 -7.50485841794179  7.51611844824482  1.39465842614261
 1 -11.91913238623862  3.44756390349035 -1.82723855535554
 1 -13.19718701640164  2.07597634003400 -1.81513724192419
 1 -12.62100313301330  2.93042037613761 -0.26282672217222
 1 -12.50650261516152 -1.63976489928993 -1.13456695759576
 1 -13.33358565766577 -0.04745745624562 -1.64001975637564
 1 -12.77756295549555 -2.16151981408141 -3.39764072217222
 1 -12.13768417411741 -0.23863233453345 -3.80997997639764
 1 -11.04787962736274 -1.47987901510151 -3.21998027622762
 1 -9.29646426502650 -4.60466696749675 -1.87239330233023
 1 -8.25848023322332 -5.62786874017402 -0.85295525062506
 1 -9.52773695269527 -4.65928437683768  0.03256098739874
 1 -3.32937045554555 -3.62787939353935 -0.16985472357236
 1 -1.66872025962596 -4.14019623302330  3.41398311591159
 1 -2.73973041034103 -5.78402792769277  3.59087012471247
 1 -1.10217073757376 -5.75499628442844  2.51824518561856
 1  2.81885994079408 -1.87057368016802 -1.20460190889089
 1  2.51148759005901 -0.18693060826083 -2.01490254775478
 1  4.29274976167617 -1.04178259205921  0.41280268046805
 1  3.94546985848585  1.02274781748175 -2.57033751945195
 1  5.11231816401640  2.28749917381738 -1.99781722012201
 1  5.56212578107811  0.70702189308931 -2.94169042594259
 1  6.57546573047305  1.63702368296830 -0.00243062916292
 1  6.39503737583758  0.24294695799580  0.76233242874287
 1  7.20754287708771 -1.09625029802980 -1.12263702090209
 1  7.71888444694469  0.64832393539354 -1.85296611951195
 1  9.15580162446245  1.08865836333633  0.13899632773277
 1  8.74639776057606 -0.40371872457246  0.70435655905591
 1  10.14328896069607  0.34018016581658 -1.87244240224022
 1  9.30204981408141 -2.26060434393439 -1.95194357625763
 1  11.05213435403540 -2.41617501680168 -1.84930028812881
 1  9.91664386148615 -2.56857097179718 -0.19397679137914
 1  11.38389003060306  0.99326575997600  0.16770454125413
 1  11.36085368086809 -0.65686698429843  0.81017733783378
 1  12.77767572007201 -1.45392281158116 -1.05077734923492
 1  12.87308313821382  0.17735267126713 -1.78856319001900
 1  13.56535795609561  0.81363672697270  0.78351318001800
 1  13.83963227382738 -0.95567194609461  1.09077145114511
 1  15.30827122852285  0.21733513051305 -1.64198546734673
 1  16.01330512731273 -2.20509985118512  0.09109097359736
 1  14.87266891129113 -2.40493501350135 -1.25730710421042
 1  16.62686096569657 -1.58674957195720 -1.46383289658966
 1  15.70367364086409  1.50215854955496  0.60869678597860
 1  16.35982005980598 -0.27808409320932  1.35928442314231
 1  18.19543628132813 -0.48892540654065 -0.44460465606561
 1  17.53959126872687  1.04503339743974 -1.10497624122412
 1  18.49590864776478  2.35472674067407  0.83655560236024
 1  18.76140210271027  0.94059889938994  1.71045429092909
 1  20.64236406870687  0.04694569216922  0.32443833603360
 1  20.27007382588259  2.94836561306131 -1.05982816751675
 1  21.52848664946495  1.87409855195519 -1.17164514571457
 1  19.76510490809081  1.40985127532753 -1.91418980338034
 1  20.99435328882888  1.39673531443144  2.50566423522352
 1  22.24413230603060  1.89623009370937  0.92890954455446
 1  20.79126920542054  3.14933105030503  1.47328446514651

