%nproc=4
%Mem=3GB
# td=(NStates=1) iop(3/107=0140000000,3/108=0140000000) CAM-B3LYP/6-31G(d,p) 

TD

0 1
12 -7.19040373207321  0.67816620012001  0.06528289828983
 6 -4.79135795229523 -1.98280551115112  0.50967637003700
 6 -4.59154518511851  2.87529624752475  0.99389949514951
 6 -9.35246201070107  3.14322187518752 -0.39268174347435
 6 -9.50419651765177 -1.67635940164016 -0.97618442334233
 7 -5.09990702190219  0.53058914951495  0.56761458545855
 6 -4.39138138543854 -0.71726286948695  0.73063095779578
 6 -2.99865608620862 -0.41667006500650  1.16278194729473
 6 -3.01381460836084  1.05154385598560  1.64942122142214
 6 -4.30654088878888  1.46669132023202  1.02915730963096
 6 -3.02697887868787  1.22552537183718  3.16452176677668
 6 -1.99259498919892 -0.63223921312131  0.00811462176218
 6 -0.54062977217722 -0.53000624862486  0.53212659495950
 6  0.47928985218522 -0.75218184008401 -0.68595838593859
 8  0.30997121392139 -1.09173295099510 -1.79204659775978
 8  1.71731032943294 -0.55541547994799 -0.22388777637764
 7 -7.02924056745675  2.64085729562956  0.30364128822882
 6 -5.94883502730273  3.46048981638164  0.77819369546955
 6 -6.37891279967997  4.80363722732273  0.79056731543154
 6 -7.68900368566857  4.89761156635664  0.39318544494449
 6 -8.09721924942494  3.48291523032303  0.06470446904691
 6 -5.58571060496050  5.95467494119412  1.23519367456746
 6 -8.49500950895090  5.98372864246425  0.16615722822282
 6 -8.44354276427643  7.34280343004300  0.74066812611261
 7 -9.12718175927593  0.66892388678868 -0.48966554045405
 6 -9.91342882918292  1.77905122942294 -0.55395820932093
 6 -11.25836978967897  1.46310575507551 -1.01843670337034
 6 -11.29171865906591  0.02679022482248 -1.26564659295930
 6 -9.90190779437944 -0.40040023342334 -0.90027222852285
 6 -12.30964190189019  2.52227746914691 -1.27855730843084
 6 -12.30895468836884 -0.80245636943694 -1.62192152275228
 6 -12.31967387628763 -1.28953914621462 -3.04433508470847
 7 -7.17452041444144 -1.32406724242424 -0.24041671677168
 6 -8.25335966226623 -2.24121266676668 -0.66145772567257
 6 -7.88202024182418 -3.63021357275728 -0.57006730653065
 6 -6.48298608910891 -3.51090407250725 -0.17755983768377
 6 -6.18989272097210 -2.12972092789279  0.03910574597460
 6 -8.65395773527353 -4.83157925632563 -0.96455983908391
 6 -5.35828129102910 -4.32219578297830  0.13958893299330
 8 -5.28399939223922 -5.53406026302630  0.12969891849185
 6 -4.17079158175818 -3.35062250965097  0.58623694529453
 6 -3.62217639443944 -3.77844578727873  1.92769873837384
 8 -3.89259204260426 -3.22233959185919  2.99718307650765
 8 -2.84990034283428 -4.89182780128013  1.84775381288129
 6 -2.19537849484949 -5.15659086498650  3.21712911331133
 6  2.85392171257126 -0.64339262816282 -1.28513203040304
 6  4.08859974517452 -0.46782205010501 -0.52268483128313
 6  5.10874636593659  0.31363789178918 -0.97466034303430
 6  4.99604332993299  1.19339701500150 -2.08909304430443
 6  6.34558083678368  0.33558417441744 -0.13070359475948
 6  7.53268472107211 -0.15649419741974 -0.86491682038204
 6  8.92834054565457 -0.06268808490849 -0.17942404480448
 6  10.27661312191219 -0.45546720992099 -0.79666538653865
 6  10.14093737033703 -1.78751663156316 -1.42255922192219
 6  11.43102776657666 -0.25060995209521  0.03310534803480
 6  12.75471320682068 -0.45126516001600 -0.63910141524152
 6  13.95373664546455 -0.02371808610861  0.24456086768677
 6  15.36475246624662 -0.09512859645965 -0.43924957745775
 6  15.70794706570657 -1.53568195649565 -0.98677050335033
 6  16.50497749044905  0.44605112241224  0.51357609230923
 6  17.84464205190519  0.53202693229323 -0.17143367036704
 6  18.85217563616362  1.25903398189819  0.74998825552555
 6  20.36868967336734  1.19134856735674  0.21589829582958
 6  20.43540638643864  1.90501780688069 -1.10149484538454
 6  21.22807787478748  1.83691539143914  1.23036697669767
 1 -3.82371273477348  3.58271152255226  1.31343743954395
 1 -10.14901702500250  3.94643691819182 -0.44261878807881
 1 -10.30304472857286 -2.55796133123312 -1.36080389978998
 1 -2.62319960716072 -0.94744494719472  2.05061155185519
 1 -2.16374984128413  1.60857291839184  1.09497314631463
 1 -2.02406549294929  0.74703380978098  3.53920425782578
 1 -2.96813392249225  2.29054827762776  3.60358838103810
 1 -3.78969176967697  0.56950210451045  3.65460714591459
 1 -2.25360047904790 -1.62793346414641 -0.48062606970697
 1 -2.09341571057106  0.33822144194419 -0.64502123672367
 1 -0.20009543824383  0.56712629992999  0.89564342734273
 1 -0.02217063736374 -1.29654042064206  1.25486894519452
 1 -5.90338451615162  6.84639215121512  1.04119395069507
 1 -5.53660513181318  5.90541342274227  2.46416842934293
 1 -4.48680352495249  5.85360962896290  1.07969870247025
 1 -9.29942020182018  5.85167854985499 -0.53804515721572
 1 -9.13746280998100  7.85722544354435  0.46011578727873
 1 -7.59005693779378  7.64771160756076  1.49877883818382
 1 -12.02932340534053  3.25652479957996 -2.01201703320332
 1 -13.25691298899890  2.06745548794879 -1.40810653885388
 1 -12.49503053575357  3.16533386748675 -0.37725816531653
 1 -12.37400936583658 -1.61879280208021 -0.92736623752375
 1 -13.35980827992799 -0.15973868436844 -1.40602635703570
 1 -13.35071027022702 -2.10033369546955 -3.20717167526753
 1 -12.40324072977298 -0.35500397169717 -3.67585656405641
 1 -11.43235807520752 -1.85563659085909 -3.37579585778578
 1 -9.09530414901490 -4.54911141194119 -1.95517158015802
 1 -8.11763614881488 -5.71943789708971 -1.14962491759176
 1 -9.60900507950795 -4.93274172257226 -0.24561683038304
 1 -3.33612113061306 -3.50199680528053 -0.19037677577758
 1 -1.56299968756876 -4.26690890429043  3.43164488208821
 1 -3.09885632293229 -5.26038556345635  3.81629266696670
 1 -1.70970149064907 -6.01596238103810  2.60877423852385
 1  2.86719477427743 -1.77098372117212 -1.71287273597360
 1  2.64934137543754  0.04299238403840 -2.00275133263326
 1  4.24837532423242 -1.02576098989899  0.28966036623662
 1  4.06172148364836  1.37914345704570 -2.55549603530353
 1  5.48070500270027  2.25953637753775 -1.89578701710171
 1  5.65158472697270  0.62947413831383 -2.66415267216722
 1  6.55636382028203  1.50522050265026  0.10979059295930
 1  6.16213408550855 -0.33531086778678  0.70129632513251
 1  7.21640376317632 -1.15489616261626 -1.15502025922592
 1  7.55604816331633  0.32307141014101 -1.89232005490549
 1  8.97828387268727  0.97349684718472  0.23504593269327
 1  8.75453857465747 -0.60888924162416  0.83146927032703
 1  10.52238687048705  0.15698184598460 -1.67430258825883
 1  9.41662127122712 -1.87261554505451 -2.31852023392339
 1  11.17236637723772 -1.96162956225623 -1.85982134023402
 1  10.07957015411541 -2.48301241594159 -0.53793118681868
 1  11.58540018161816  0.90361679507951  0.25148291909191
 1  11.26526412191219 -0.91035233283328  1.12793911401140
 1  12.98360631313131 -1.47342476177618 -0.93433570507051
 1  12.78035386528653  0.22836777277728 -1.53847818151815
 1  13.84501592189219  1.03229859315932  0.48477330603060
 1  13.92887119771977 -0.70043642254225  1.17160953495350
 1  15.13462386378638  0.44003740074007 -1.38835010381038
 1  15.86536033283328 -2.16528586978698 -0.07632576807681
 1  15.09192083648365 -2.02774729472947 -1.58134950845085
 1  16.76435471507151 -1.74452534953495 -1.39149566286629
 1  16.09504277777778  1.48159649334934  0.75078099439944
 1  16.61436551435143 -0.20101638643864  1.30367886258626
 1  18.31397813551355 -0.55702221622162 -0.41606180178018
 1  17.67912522212221  1.14592348644865 -1.07723346694669
 1  18.57109616651665  2.23242451045105  0.83865581238124
 1  18.77837379987999  0.63708854835484  1.69558280378038
 1  20.80379021132113  0.17731872947295  0.34895078727873
 1  20.13352017051705  2.92647342384238 -1.17237942264226
 1  21.49880368116812  1.81521266336634 -1.37949593079308
 1  19.61081947954796  1.46139642984298 -1.81639002340234
 1  21.16169002250225  1.55354099499950  2.44898856765677
 1  22.46614450725072  1.92783325402540  0.91273792739274
 1  21.21673175167517  3.04891100830083  1.35577271397140

