%nproc=4
%Mem=2GB
# td=(NStates=1) CAM-B3LYP/6-31G(d,p) 

TD

0 1
12 -7.11678225122512  0.54822357045705  0.09465715311531
 6 -4.88380299829983 -1.90324150255025  0.38023455615562
 6 -4.79952988188819  2.81667011431143  1.07064342924292
 6 -9.39668440394039  3.02927842334233 -0.36876973667367
 6 -9.44797511121112 -1.80172568356836 -0.89371580068007
 7 -5.04931835643564  0.52502232033203  0.69761017931793
 6 -4.36211591769177 -0.57050687268727  0.62486050925092
 6 -2.86974597999800 -0.36359578527853  1.01273162736274
 6 -3.00155359375938  1.15941861016102  1.43427415811581
 6 -4.37793478837884  1.57124787358736  1.07044407430743
 6 -2.79605468756876  1.24374666276628  3.05115652455246
 6 -1.89313277427743 -0.47272253365337 -0.03980002170217
 6 -0.47335475807581 -0.48613296049605  0.57712184148415
 6  0.58018915611561 -0.57354086698670 -0.66482186268627
 8  0.27742898299830 -0.81971737933793 -1.90368670037004
 8  1.85114692519252 -0.34327172357236 -0.30502729162916
 7 -7.10264071197120  2.64870045984598  0.40465916141614
 6 -6.03847312631263  3.37887886368637  0.74775830943094
 6 -6.50052730583058  4.75738002740274  0.71248193539354
 6 -7.82927563456346  4.77454808630863  0.37881627292729
 6 -8.14329860146015  3.39704890019002  0.07775032133213
 6 -5.61244920162016  5.98523098899890  1.07628238873887
 6 -8.61157895549555  6.01573260696070  0.27577456285629
 6 -8.62481637293729  7.21232735133513  0.85437168696870
 7 -9.10988326092609  0.59937279837984 -0.47399143284328
 6 -9.90332659235924  1.74497445054505 -0.67345366946695
 6 -11.25327442404240  1.44293263236324 -1.02290400990099
 6 -11.22028443234323 -0.04470910681068 -1.14580329432943
 6 -9.92673835453545 -0.41651362566257 -0.74009902600260
 6 -12.41336015971597  2.43089366036604 -1.27916469126913
 6 -12.43175772207221 -0.82339975007501 -1.64645545404540
 6 -12.30286777517752 -1.14001641284128 -3.02220733933393
 7 -7.20116958525853 -1.37541715531553 -0.24292896989699
 6 -8.25964620442044 -2.27559273137314 -0.56148110331033
 6 -7.87075322092209 -3.63597186468647 -0.52621989928993
 6 -6.57313119721972 -3.53905824282428 -0.02322405430543
 6 -6.12990558695870 -2.13627190849085  0.04201700590059
 6 -8.62446991439144 -4.82410525292529 -0.69063754215422
 6 -5.31752622292229 -4.38606248974897  0.21975484808481
 8 -5.19211804970497 -5.59964444784478  0.33195022572257
 6 -4.23667724712471 -3.25029081888189  0.48386825212521
 6 -3.55537616851685 -3.63118834013401  1.77029740264026
 8 -3.62752435303530 -3.10183691989199  2.84134681578158
 8 -2.75917711141114 -4.73080780318032  1.68570715161516
 6 -2.19568015591559 -5.26407063616362  2.88295323082308
 6  2.80896340804080 -0.67065486008601 -1.30784198459846
 6  4.17799988898890 -0.42165034133413 -0.55893604260426
 6  5.19972345674567  0.31471773717372 -0.99474924762476
 6  5.27828625162516  1.14483713301330 -2.24396856215622
 6  6.44337867066707  0.39367121732173 -0.08665515071507
 6  7.70738827672767 -0.16022636953695 -0.94563151365136
 6  8.92810468306831  0.04453932353235 -0.06021783458346
 6  10.23375399989999 -0.50873794549455 -0.67622859335934
 6  10.06141284148415 -2.07685862196220 -0.99713317831783
 6  11.48559143604360 -0.13790757155716  0.12414328292829
 6  12.74927983568357 -0.46689074017402 -0.61340136303630
 6  13.98002747114711 -0.02452365516552  0.19477654515452
 6  15.28684480938094 -0.18291202030203 -0.39286752655266
 6  15.64716638553855 -1.64480211401140 -0.72220183788379
 6  16.35079918581858  0.46877123712371  0.53000750795080
 6  17.78317290669067  0.30792219061906 -0.15094090869087
 6  18.82146251575157  1.14653287028703  0.63356378937894
 6  20.20473914311431  1.16400673417342  0.12967773097310
 6  20.35562691649165  2.09538783598360 -1.12973396609661
 6  21.07886881768177  1.83240617691769  1.21133649704970
 1 -4.00917240174017  3.51371689308931  1.36673126002600
 1 -10.05453584628463  3.76404723972397 -0.79859525102510
 1 -10.42415570497050 -2.35641498229823 -1.27947459965997
 1 -2.68552500940094 -0.95372368626863  2.06269696089609
 1 -2.21325493069307  1.94148773137314  0.93830448084809
 1 -1.85706016351635  0.93539399229923  3.18921263476348
 1 -3.19254431443144  2.24004806230623  3.36043820922092
 1 -3.40203364606461  0.40021470547055  3.64187660046005
 1 -2.19394187908791 -1.38640860126013 -0.60734464366437
 1 -1.98608028052805  0.23809105950595 -0.83141318091809
 1 -0.12295581298130  0.36396101000100  0.95974637373737
 1 -0.60273807580758 -1.26124063926393  1.43308726392639
 1 -5.99316809220922  6.89020766486649  0.73945965516552
 1 -5.50311730113011  5.72704606770677  2.27951424852485
 1 -4.67618157415742  5.97572873927393  0.74393756935694
 1 -9.55037709020902  5.56826297439744 -0.33001322952295
 1 -9.20754197009701  8.09259999889989  0.63325294709471
 1 -7.87128659445945  7.54225062456246  1.50899928542854
 1 -12.11803590869087  2.88443876987699 -2.28983198789879
 1 -13.30098976817682  1.76275016621662 -1.33379457095710
 1 -12.33296502760276  3.00863951865186 -0.31868311231123
 1 -12.64743952235224 -1.75921536663666 -0.93774872977298
 1 -13.31754047294729 -0.27522425922592 -1.45012053955396
 1 -13.02654900750075 -1.90102478867887 -3.26140602510251
 1 -12.03117668186819 -0.26686122372237 -3.68502199789979
 1 -11.28430470977098 -1.59914478157816 -3.30363898389839
 1 -8.95347495049505 -5.01386212911291 -1.70997426152615
 1 -7.99495886068607 -5.75112511671167 -0.39901951495149
 1 -9.62953283818382 -4.89495451675168 -0.07085890849085
 1 -3.31320201610161 -3.22047529822982 -0.21295656715672
 1 -1.83441160766077 -4.41466790649065  3.42234514981498
 1 -3.01516112471247 -5.67159877747775  3.45321816071607
 1 -1.38283639513951 -5.95677495069507  2.26330028292829
 1  2.96251555565557 -1.69472130803080 -1.33584754975498
 1  2.65634311191119 -0.02554827522752 -2.04089724192419
 1  4.10517142274227 -0.96319853505350  0.45922913891389
 1  4.35688465196520  1.25725443584358 -2.86359472917292
 1  5.63635904760476  2.16965722462246 -2.07464393259326
 1  5.98334564216422  0.64404551205120 -3.01825055605560
 1  6.48034009690969  1.48791279127913  0.25762840564056
 1  6.41433555295530 -0.22248028542854  0.97628734543454
 1  7.61956934163416 -1.25861509670967 -1.21311263486349
 1  7.84117655355536  0.53311651975198 -1.95364828842884
 1  8.87055910751075  1.13656154115412  0.15322295449545
 1  8.79593808250825 -0.41452695889589  0.95445330903090
 1  10.25553310471047  0.13625616331633 -1.73119800930093
 1  9.26378136363636 -2.26881485798580 -1.92000792559256
 1  10.99963251895189 -2.33042982688269 -1.48495273917392
 1  9.94540742674267 -2.56967890989099  0.11254181448145
 1  11.44000168106811  0.98977120732073  0.24405589308931
 1  11.48121117451745 -0.53418938023802  1.06658728032803
 1  12.44524784368437 -1.56019418061806 -0.96462413001300
 1  12.91852560506051 -0.03808311731173 -1.70690405170517
 1  13.73237467416742  0.93558611461146  0.41574891789179
 1  13.84305705880588 -0.52033163786379  1.23536005250525
 1  15.29717300580058  0.40026951195120 -1.25782014001400
 1  15.47883532643264 -2.32072236433643  0.15681422752275
 1  14.78152120282028 -2.03076545214522 -1.53850126522652
 1  16.60729035843584 -1.70644616951695 -1.07487895739574
 1  16.28962416311631  1.54519235293529  0.66945348964896
 1  16.41040548774878 -0.00838001310131  1.38473123432343
 1  18.01422236093609 -0.68134468186819 -0.36346968736874
 1  17.68491555605561  0.77372469136914 -1.27646122192219
 1  18.53437423002300  2.12232639033903  0.70354836013601
 1  18.82147930823082  0.67374155515552  1.47272727302730
 1  20.49604451715172  0.16938308650865 -0.12302523852385
 1  20.32243635023502  3.09191275317532 -0.77199079247925
 1  21.37109136123613  1.84804145694569 -1.63479484278428
 1  19.65483938833884  1.90964277507751 -1.82476944594460
 1  21.26624259945995  1.22616072517252  2.23817343454345
 1  22.04041574787479  1.76694792449245  0.75594056035604
 1  20.73613334323433  2.90475055835584  1.40661110161016

