%nproc=4
%Mem=2GB
# td=(NStates=1) CAM-B3LYP/6-31G(d,p) 

TD

0 1
12 -7.10787136013601  0.64668341644164  0.03603129052905
 6 -4.79041365936594 -1.97545872427243  0.43242977567757
 6 -4.78186811571157  2.74189263656366  1.05562192709271
 6 -9.38868360386039  3.07568306380638 -0.44920778047805
 6 -9.48510882458246 -1.75261077207721 -0.83811024012401
 7 -5.11051447604761  0.50594041214121  0.68469888818882
 6 -4.37625733183318 -0.71115093709371  0.70067809100910
 6 -2.96902590799080 -0.35180460616062  1.17905826002600
 6 -3.09024246264626  1.11042371067107  1.68279901060106
 6 -4.34347134203420  1.49337008580858  1.10442747264726
 6 -2.86876195829583  1.34636692479248  3.19350075897590
 6 -1.90953441444144 -0.63931919331933  0.04359831813181
 6 -0.51900932353235 -0.41727607480748  0.62052618191819
 6  0.51675281248125 -0.58302181508151 -0.52344772527253
 8  0.24652589268927 -1.02783819141914 -1.65040137183718
 8  1.79923173367337 -0.27127452385239 -0.09395618451845
 7 -7.08324877277728  2.56914250405041  0.27285598109811
 6 -6.02838211721172  3.31628260406041  0.65749928352835
 6 -6.40224747784778  4.69120340974097  0.83206389358936
 6 -7.71962466946695  4.79711034253425  0.45163355465547
 6 -8.13689796139614  3.41535073037304  0.06770931723172
 6 -5.52227018371837  5.89211167706771  1.21153591409141
 6 -8.54123192079208  5.96415744944494 -0.05081809640964
 6 -8.43961785308531  7.10542666126613  0.61848809860986
 7 -9.15335760836084  0.63714657575758 -0.58038207190719
 6 -9.93906016571657  1.74163411651165 -0.61087741184118
 6 -11.21281037763776  1.40818915801580 -0.96479819931993
 6 -11.25804820872087  0.10222558665867 -1.17868658265827
 6 -10.01254693539354 -0.37708968326833 -0.88686370247025
 6 -12.31274009770977  2.40248081908191 -1.34529130393039
 6 -12.32568711501150 -0.83893130323032 -1.57569837833783
 6 -12.24430191859186 -1.22851526272627 -3.13047816641664
 7 -7.22498196649665 -1.39290890449045 -0.14525920292029
 6 -8.23292353215322 -2.25824099619962 -0.57081203640364
 6 -7.82600874647465 -3.56139440694069 -0.49767704500450
 6 -6.49312319641964 -3.53381771877188 -0.10444217611761
 6 -6.17724032043204 -2.22956123742374  0.02206501070107
 6 -8.61043851125112 -4.81500434283428 -0.80011849024903
 6 -5.33122759305931 -4.41569545304530  0.14302717531753
 8 -5.23897273517352 -5.60546502990299  0.21536856755676
 6 -4.11146472587259 -3.35496128592859  0.62032189748975
 6 -3.58327895879588 -3.66950217151715  1.86536690959096
 8 -3.72675427602760 -3.04815155135514  2.91997467856786
 8 -2.80336152985299 -4.82729745214521  1.82541112201220
 6 -2.19078966686669 -5.13556778587859  3.14897983348335
 6  2.79291180288029 -0.45818361296130 -1.13433463386339
 6  4.10352244124412 -0.19949812611261 -0.40183033203320
 6  5.15525901030103  0.46943320872087 -0.94546431913191
 6  5.11366978997900  1.34422707200720 -2.14189835513551
 6  6.45479981278128  0.49499134933493 -0.21457794299430
 6  7.59303684158416 -0.10836118301830 -1.07956490699070
 6  8.89812168476848 -0.22094722512251 -0.29469128192819
 6  10.21187181168117 -0.54455152685269 -1.09653062356236
 6  10.18793549374937 -1.83843477957796 -1.74478794379438
 6  11.36025890279028 -0.26881066186619 -0.13706283768377
 6  12.77691259895990 -0.44235828692869 -0.72965298819882
 6  13.96402587098710 -0.09161036383638  0.16747381488149
 6  15.31561768666867 -0.27889161826183 -0.57418565836584
 6  15.68960062896290 -1.74949258305831 -0.86436605430543
 6  16.50753485938594  0.42701706170617  0.37525203240324
 6  17.84662925232523  0.45258665706571 -0.23119893449345
 6  18.69433980348035  1.23310152715272  0.78447888088809
 6  20.18836750595059  1.37406774027403  0.39890465366537
 6  20.48625997979798  1.98515681288129 -0.92725371807181
 6  21.08993992479248  1.82017495379538  1.54916027942794
 1 -4.00868235273527  3.44274979637964  1.42488707560756
 1 -9.98487888058806  3.96953778877888 -0.60726611811181
 1 -10.28198148754876 -2.45759510031003 -1.34360101230123
 1 -2.76959341624162 -1.06545485938594  2.14771546274627
 1 -2.21988559375938  1.88813239583958  1.14388503890389
 1 -2.00623508100810  1.04245469836984  3.61421513501350
 1 -2.90531559155916  2.39914397189719  3.49493165856586
 1 -3.64623806650665  0.86563124712471  3.84828724152415
 1 -2.17092957785779 -1.77756771717172 -0.17149105830583
 1 -2.38055972847285 -0.06855960556056 -0.85742578217822
 1 -0.38508202560256  0.40866548044805  1.19524992409241
 1 -0.30881868386839 -1.27499201440144  1.33874782998300
 1 -5.64852362776278  6.86467511161116  0.53209891909191
 1 -5.76843383278328  6.27254061716172  2.21153745084508
 1 -4.53862781878188  5.64399556595659  1.38006118171817
 1 -8.99717176967697  5.93326947504750 -0.99176940514051
 1 -9.10440165606561  8.08437917681768  0.46591621342134
 1 -7.75575504130413  7.32293869336934  1.54927331283128
 1 -12.07758186328633  3.07845817181718 -2.03538654335434
 1 -13.28619828902890  1.98544243544354 -1.57712890439044
 1 -12.42579431053105  3.09914856955696 -0.53836508050805
 1 -12.53421820022002 -1.69921936703670 -1.05431038593859
 1 -13.44329304820482 -0.38183492029203 -1.27704323182318
 1 -13.16980333293329 -1.96557124332433 -3.19553943844384
 1 -12.43738730293029 -0.36762129972997 -3.91071456715672
 1 -11.32841912121212 -1.74736960406041 -3.39651827182718
 1 -8.82954255725573 -4.79099984288429 -1.82698596269627
 1 -8.05956532133213 -5.72566257045705 -0.72447206020602
 1 -9.59553943884388 -4.89679470077008 -0.29545136773677
 1 -3.31804250015001 -3.43518676937694 -0.04978024952495
 1 -1.43233139963996 -4.29404584428443  3.38410132543254
 1 -2.89024863346335 -5.26445806340634  3.99437227612761
 1 -1.69914802630263 -6.16978625182518  3.00415436833683
 1  2.83232253635364 -1.47012884878488 -1.46204016901690
 1  2.79258673627363  0.12678695829583 -2.13476662886289
 1  4.22396330193019 -0.86464868006801  0.50184340034003
 1  4.07638660216022  1.70009872027203 -2.32448081778178
 1  5.38544395609561  2.29577983688369 -1.79367583578358
 1  5.73838114571457  1.08149925742574 -3.18392712371237
 1  6.82096415931593  1.54084808480848  0.02468511131113
 1  6.69373349274928  0.06854881748175  0.97118683538354
 1  7.32997038173817 -1.08473770897090 -1.47137846144614
 1  7.61561399729973  0.56327953605361 -1.91345426902690
 1  8.82528458005801  0.80385827082708  0.31191882408241
 1  8.85901439013901 -1.27480298649865  0.34511237493749
 1  10.12613016441644  0.27970050775078 -1.84860975047505
 1  9.24247923342334 -2.01099907640764 -2.32034795959596
 1  11.03001555725573 -2.24809159305931 -2.21294553845385
 1  10.05342822882288 -2.67138908090809 -0.79457889758976
 1  11.27953563446345  0.62806503670367  0.42615410291029
 1  11.38839189258926 -1.07248320962096  0.67069769136914
 1  12.90955427432743 -1.46328448964896 -1.07086475407541
 1  12.88316206870687  0.06553724472447 -1.63227658895890
 1  13.70186162286229  0.92375493149315  0.32760010301030
 1  14.17239999309931 -0.74586419111911  0.95068158465847
 1  15.26800008850885  0.37181666666667 -1.46014037203720
 1  15.71455889878988 -2.44245453755376 -0.03488494239424
 1  14.70133318401840 -2.14498687428743 -1.53140055515552
 1  16.45486511591159 -2.08666419131913 -1.37768923842384
 1  16.20497569826983  1.39659749344934  0.65741228552855
 1  16.25527997519752 -0.06314548964896  1.36673943514351
 1  18.30425136383638 -0.55797234463446 -0.49278261866187
 1  17.70449751425143  1.02503982288229 -1.09871344714471
 1  18.26440723332333  2.26762091979198  0.80400840614061
 1  18.56208336863687  0.85909009000900  1.86686668696870
 1  20.51750666336634  0.26611275947595  0.05347241124112
 1  20.02120622722272  3.02653621552155 -0.75730932433243
 1  21.52025627772777  2.01574822762276 -1.25062642594259
 1  19.97381128552856  1.57730954175418 -1.58674564356436
 1  20.86135211041104  1.10106821592159  2.41571118831883
 1  22.15299700600060  1.99935116481648  1.16133109940994
 1  20.65546527642764  2.97062714601460  1.90109054955496

