%nproc=4
%Mem=3GB
# td=(NStates=1) iop(3/107=0140000000,3/108=0140000000) CAM-B3LYP/6-31G(d,p) 

TD

0 1
12 -7.20460515221522  0.55070345384538  0.12563893389339
 6 -4.81104992149215 -1.91702893349335  0.40213561596160
 6 -4.76127215781578  2.80159887778778  1.35664576977698
 6 -9.32108887338734  3.12379993299330 -0.50647312261226
 6 -9.56036213421342 -1.73832559825983 -0.94558136303630
 7 -5.00857788898890  0.42755884648465  0.58048587258726
 6 -4.35879812711271 -0.63127427062706  0.79763765846585
 6 -2.93784000460046 -0.39985838383838  1.27006267536754
 6 -3.02280550745074  1.01339004060406  1.70719699899990
 6 -4.37932816751675  1.42790744184418  1.18853324722472
 6 -2.93223940474047  1.17586040534053  3.31620693529353
 6 -1.88164389408941 -0.64095008420842  0.08877268756876
 6 -0.42919862906291 -0.41970521852185  0.54212759505951
 6  0.50552247544754 -0.79289591149115 -0.55643543364336
 8  0.16784700150015 -1.29059283698370 -1.63365075817582
 8  1.73866246464646 -0.42669260766077 -0.14994038163816
 7 -7.12477012041204  2.59293250315031  0.21292221632163
 6 -6.02769291309131  3.29264303170317  0.87272314841484
 6 -6.40395530393039  4.68843570717072  0.95729398809881
 6 -7.66866165146515  4.89865167036704  0.32198832523252
 6 -8.10956048354836  3.52950988978898  0.01176917551755
 6 -5.48189022292229  5.87655712941294  1.38742889808981
 6 -8.48691869986999  6.03976424602460  0.15723633613361
 6 -8.32791120112011  7.25198434813481  0.57781184048405
 7 -9.16816585768577  0.57102409680968 -0.58714528842884
 6 -9.82911039733973  1.79236256055606 -0.66801961546155
 6 -11.16837078977898  1.49181862636264 -1.20766562626263
 6 -11.26903639083908  0.13036058185819 -1.38987901620162
 6 -9.94707231083108 -0.46316651005101 -1.02202440374037
 6 -12.33329426712671  2.48691393279328 -1.42795224792479
 6 -12.42025581848185 -0.71132725652565 -1.79299863046305
 6 -12.15293720262026 -1.13856404870487 -3.22863351455146
 7 -7.24535749814982 -1.31302613831383 -0.19045172027203
 6 -8.27892221852185 -2.17681622712271 -0.49378095799580
 6 -7.76885892569257 -3.50024057545755 -0.51659195899590
 6 -6.45981377187719 -3.48326130823082 -0.11275335703570
 6 -6.11538527022702 -2.12518047384738  0.03690552595260
 6 -8.74075641514152 -4.63153925232523 -0.89443282638264
 6 -5.35202066496650 -4.35376894029403  0.15143011711171
 8 -5.21740273257326 -5.56326318331833  0.14044999359936
 6 -4.13812831543154 -3.28560600800080  0.51422974457446
 6 -3.55887006380638 -3.64351229392939  1.90917688618862
 8 -3.70340312371237 -3.02138949684969  2.89661301950195
 8 -2.81094644744474 -4.80178879737974  1.74487352485249
 6 -2.30494945194519 -5.34974017991799  2.94784218461846
 6  2.79325564596460 -0.71707999689969 -1.10477399459946
 6  4.13831471667167 -0.55373064096410 -0.45047761056106
 6  5.17505299659966  0.28227475547555 -0.86003888088809
 6  5.06452017761776  1.35236291159116 -1.99866400140014
 6  6.43907018571857  0.48233884988499 -0.02556308070807
 6  7.65936738933893  0.03831528352835 -0.86971730043004
 6  8.92596030763076 -0.14803661976198 -0.01873797619762
 6  10.16411187178718 -0.63524518771877 -0.80180590059006
 6  10.02094537113711 -2.07251513141314 -1.13771073707371
 6  11.36313097689769 -0.21318620972097  0.03151518901890
 6  12.74944267976798 -0.40827086058606 -0.66436394149415
 6  14.06005727752775 -0.08795450975098  0.20253666526653
 6  15.33674966596660 -0.08622770637064 -0.54572022452245
 6  15.67846411741174 -1.60317870617062 -0.83867569386939
 6  16.37813480618062  0.44473099039904  0.34609934463446
 6  17.83592117981798  0.44131786138614 -0.30279680668067
 6  18.78887930653065  1.29715779427943  0.57081033773377
 6  20.20964376877688  1.31108054055406  0.03902060806081
 6  20.40208305410541  2.08458576367637 -1.25473016891689
 6  21.19927499449945  1.90441214111411  1.20720466046605
 1 -4.09391975547555  3.50354360576058  1.48564466026603
 1 -10.05441756505651  4.03914618911891 -0.44797932413241
 1 -10.36369079317932 -2.34442997809781 -1.45697351675168
 1 -2.88997628482848 -1.01824202690269  2.00905739643964
 1 -2.26761022732273  1.65535759685969  1.32433608260826
 1 -1.84133722012201  1.09688879527953  3.56684702210221
 1 -3.32019912901290  2.17129635243524  3.60096811901190
 1 -3.66067886838684  0.45234038833883  3.71638332353235
 1 -2.04456957595760 -1.69339000980098 -0.26782478957896
 1 -2.19231560056006  0.14366198599860 -0.78863559815982
 1 -0.34316974567457  0.64331391869187  0.89912377537754
 1 -0.00830925122512 -0.99899066566657  1.32846630493049
 1 -5.66930110781078  6.57230474247425  0.68306813811381
 1 -5.99414088538854  6.16000888228823  2.37427944044404
 1 -4.38517336193619  5.62148641664166  1.36509724232423
 1 -9.33674393419342  5.89427280928093 -0.48063941664166
 1 -8.97860692439244  8.00384010501050  0.20396017171717
 1 -7.68006593869387  7.61566840324032  1.27888684898490
 1 -12.06032650565056  3.34037318441844 -2.22299813131313
 1 -13.02759005670567  1.97192593499350 -1.96714244244424
 1 -12.84324535723572  2.97800513461346 -0.47588802830283
 1 -12.66586855175517 -1.62712363516352 -1.04039754065407
 1 -13.30390268936894 -0.14326703720372 -1.72902865726573
 1 -12.93736893609361 -1.75284894699470 -3.62463342144214
 1 -12.28984939063906 -0.35846431773177 -3.90846982538254
 1 -11.18239307870787 -1.48894992219222 -3.47075535373537
 1 -9.44318893749375 -4.43017951875187 -1.89122518551855
 1 -8.42950733593359 -5.75340129342934 -0.99838979407941
 1 -9.59358353735374 -4.59086753515352 -0.00638290699070
 1 -3.19562708120812 -3.63974057965797 -0.30019775787579
 1 -1.47220060766077 -4.55052726612661  3.40336205380538
 1 -3.12968940624062 -5.59359888478848  3.59662069976998
 1 -1.85604612511251 -6.31241202600260  2.65040840194019
 1  2.64413246804681 -1.84062068486849 -1.41717316601660
 1  2.71337777907791 -0.07202911811181 -1.99433049054905
 1  4.22429291599160 -1.34212262606261  0.58349975017502
 1  4.09158446994699  1.24469001170117 -2.36192667836784
 1  5.21771870407041  2.35178560246025 -1.72823026142614
 1  5.74923449194919  1.15173636453645 -2.89440569746975
 1  6.65761394529453  1.58241822242224  0.13624323822382
 1  6.27008488058806 -0.22325966266627  0.82954915041504
 1  7.54986710951095 -1.01480215321532 -1.22110686788679
 1  7.92575513401340  0.73985308830883 -1.70092091499150
 1  9.19475551985198  0.88232773027303  0.40137256535654
 1  8.73297641844185 -0.87805615831583  0.83682980638064
 1  10.21668630043004 -0.00674452665267 -1.62029718771877
 1  9.34897450655066 -2.20374865836584 -2.08217659955996
 1  11.03865300590059 -2.19868326762676 -1.39935529362936
 1  9.75574777187719 -2.78755286998700 -0.17315470917092
 1  11.25309695129513  0.72011844524452  0.47246501730173
 1  11.42907050255026 -0.96343764136414  0.96243256335634
 1  12.82623057555756 -1.33680109940994 -1.03610588208821
 1  12.77013284318432  0.37430236623662 -1.46022035573557
 1  13.77404882518252  0.92650801410141  0.74888971767177
 1  14.06884519511951 -1.05383176207621  0.97363973797380
 1  15.21553195459546  0.38927232423242 -1.56228749754975
 1  15.96410020682068 -2.00627996919692  0.11959382388239
 1  15.09645128952895 -2.19841436143614 -1.50246161966197
 1  16.78574685428543 -1.41266216321632 -1.45443195649565
 1  16.04469774327433  1.46879521322132  0.53235915221522
 1  16.40717479527953 -0.22069835463546  1.36284477917792
 1  18.03492022972297 -0.54592110611061 -0.52503269886989
 1  17.44467177677768  0.80009890399040 -1.29166491009101
 1  18.63109216611661  2.22338360636064  0.71098304510451
 1  18.77244320682068  0.79515435493549  1.60919416491649
 1  20.70643047534754  0.31390238783878 -0.16119022682268
 1  19.88649546804681  3.00506128262826 -1.17651983668367
 1  21.40472427322732  1.98670981308131 -1.59216719791979
 1  19.90347874547455  1.56686697689769 -2.12825120952095
 1  20.94444829832983  1.46149179007901  2.27801146994699
 1  22.31937983078308  1.64279475017502  0.83890054365437
 1  21.04347442594259  3.06685280248025  1.14639177587759

