%nproc=4
%Mem=2GB
# td=(NStates=1) CAM-B3LYP/6-31G(d,p) 

TD

0 1
12 -7.17711828482848  0.65422417051705  0.06837452485249
 6 -4.91687630563056 -2.04188536693669  0.53828036073607
 6 -4.79586951585159  2.76237468476848  0.99406577147715
 6 -9.42126686218622  3.08010350585058 -0.36748960866087
 6 -9.54749506320632 -1.81761727272727 -0.96745317441744
 7 -5.13008643324332  0.34969478757876  0.74377479577958
 6 -4.31909161526153 -0.71928175017502  0.72719074227423
 6 -2.93214221962196 -0.36999642534253  1.13186354055406
 6 -2.93095653405341  1.02754542284228  1.53930466116612
 6 -4.34313130803080  1.45387613641364  1.10132716261626
 6 -2.77923300540054  1.25664795289529  3.10285169406941
 6 -1.94724818581858 -0.80870613201320  0.05967992629263
 6 -0.45336275887589 -0.61759610681068  0.65703983328333
 6  0.54594573177318 -0.81541505440544 -0.45059043954395
 8  0.22743398349835 -1.14558996659666 -1.61537786948695
 8  1.78907071757176 -0.56521391779178 -0.05338212711271
 7 -7.12873332123212  2.61922751255126  0.34685338083808
 6 -6.11826110511051  3.33499447524752  0.80992452605261
 6 -6.44949220232023  4.68640292969297  0.85336602380238
 6 -7.75072777977798  4.83034366586659  0.41552994429443
 6 -8.16615088668867  3.44375357065707  0.12221476777678
 6 -5.48404636133613  5.82538500440044  1.26480124062406
 6 -8.62472026962696  5.96285731943194  0.27935492089209
 6 -8.42809670097010  7.18158427702770  0.83970021982198
 7 -9.12942521512151  0.63900676177618 -0.66883091679168
 6 -9.84837109680968  1.79830978407841 -0.66538286238624
 6 -11.23587268386839  1.45490382948295 -1.24665638513851
 6 -11.23274567846785  0.10762612671267 -1.41092980698070
 6 -9.97213289398940 -0.45727770207021 -0.95650066616662
 6 -12.28334715841584  2.45595616661666 -1.51218799359936
 6 -12.44071861816182 -0.69494690479048 -1.86948775727573
 6 -12.15782327072707 -0.92440485168517 -3.33484860346035
 7 -7.29692916121612 -1.35658527212721 -0.06648132513251
 6 -8.28075831563156 -2.15018019011901 -0.46960191539154
 6 -7.90988713431343 -3.56234450195020 -0.44955223252325
 6 -6.54783866796680 -3.51768610561056 -0.13110484238424
 6 -6.19615221162116 -2.18826710801080  0.19849265346535
 6 -8.64804227162716 -4.69958280068007 -0.79998847724772
 6 -5.32238670897090 -4.35439932343234  0.08599147174717
 8 -5.17300613851385 -5.57303178657866  0.19801683238324
 6 -4.15402898229823 -3.26314210401040  0.55685555085509
 6 -3.59824045494549 -3.57995321662166  1.82436280918092
 8 -3.85402700330033 -2.97905464166417  2.89760244134413
 8 -2.79652084578458 -4.63339806220622  1.81791037193719
 6 -2.19974056195620 -5.09796402550255  3.04388932443244
 6  2.83886639833983 -0.72681047564757 -1.07442864326433
 6  4.17181927092709 -0.48858703500350 -0.46125627462746
 6  5.10500398479848  0.33729999539954 -0.92323209590959
 6  5.06595501850185  1.08202085138514 -2.18689285458546
 6  6.50914524732473  0.50402225242524 -0.13121960716072
 6  7.64663220112011 -0.02558290519052 -0.99699665016502
 6  8.94829670227023 -0.02550768116812 -0.13541535433543
 6  10.20148077257726 -0.41105817751775 -0.80646161666167
 6  10.09984668486849 -1.92412334843484 -1.19818328332833
 6  11.39395227212721 -0.27031081188119  0.07855872447245
 6  12.77263217091709 -0.43993804490449 -0.57258728162816
 6  13.95470493889389 -0.09482068486849  0.32463953145315
 6  15.24211033593359 -0.21369509860986 -0.44400264006401
 6  15.63753542244224 -1.59886752055206 -0.82663228092809
 6  16.42501660756076  0.49116347634763  0.42110661786179
 6  17.79477406680668  0.55674707310731 -0.25150096469647
 6  18.88351872137214  1.21850006700670  0.63508394139414
 6  20.30115878507851  1.31321165466547  0.05909067226723
 6  20.43402475627563  2.15553385058506 -1.26455744844484
 6  21.30581151195119  1.85810874717472  1.07505286868687
 1 -4.05969745424543  3.51412693409341  1.22851743864386
 1 -10.28275866856686  3.73845468046805 -0.33082847434743
 1 -10.32619590899090 -2.61569090989099 -1.20949760196020
 1 -2.89731618851885 -0.98368668256826  2.00156084728473
 1 -2.05133873907391  1.61677526012601  1.05723637403740
 1 -1.75738019551955  1.07428788168817  3.41357507100710
 1 -2.90753581358136  2.29340339783978  3.33140530593059
 1 -3.54657810051005  0.55994067806781  3.49571198399840
 1 -1.97962044694469 -1.78392835323532 -0.30763467266727
 1 -1.92796446894689 -0.12917566716672 -0.84655469506951
 1 -0.56353987138714  0.25755036893689  1.13499389848985
 1 -0.41614941694169 -1.56864137933793  1.49126308150815
 1 -5.74261303670367  6.76817546164616  0.70718642784278
 1 -5.65057204660466  6.03557692079208  2.20522681978198
 1 -4.48667262326233  5.59861102750275  0.94161733733373
 1 -9.55561761426143  5.65841198929893 -0.44661488968897
 1 -9.31425264116412  8.06750748964896  0.74034365616562
 1 -7.73893335913591  7.10081648114812  1.56894528002800
 1 -11.94060816591659  2.90177050305030 -2.34989799449945
 1 -13.33490315951595  1.91968585978598 -1.71149234073407
 1 -12.49864159525953  3.11076973167317 -0.77478872287229
 1 -12.71406618501850 -1.68754819991999 -1.28089304420442
 1 -13.35027374627463 -0.01986872367237 -1.77028255575558
 1 -12.98530488308831 -1.46573125932593 -3.99962984748475
 1 -11.89527309150915  0.13954941734173 -3.82944644034403
 1 -11.20852713201320 -1.57683255035504 -3.50369898989899
 1 -8.89936953995400 -4.80868161106111 -1.84297756185619
 1 -7.94253361816182 -5.60974097829783 -0.61793140614061
 1 -9.54015390029003 -4.78206322762276 -0.11158298089809
 1 -3.60904160006001 -3.18078132883288 -0.39082435393539
 1 -1.56598476497650 -4.20609704940494  3.48325124042404
 1 -2.89461907050705 -5.29625124272427  3.75067790669067
 1 -1.44442255375538 -5.89448872207221  2.76833078597860
 1  2.63627293139314 -1.76018785468547 -1.41411537653765
 1  2.57794527212721 -0.15487120752075 -2.04774792699270
 1  4.20376128172817 -1.04045626082608  0.60710392639264
 1  4.02836179967997  1.24545325572557 -2.54185255495550
 1  5.37035244694470  2.18114837373737 -2.26264273247325
 1  5.68479578717872  0.63760486798680 -2.94246297729773
 1  6.42843490639064  1.60000400040004  0.17440008280828
 1  6.56471059045905 -0.15924396179618  0.92119183588359
 1  7.24159154385439 -0.99718895409541 -1.26163748734874
 1  7.80926336223622  0.59793300140014 -1.97034995859586
 1  9.12189424102410  1.04866275127513  0.28001563376338
 1  8.92792128082808 -0.66210171637164  0.78740660436044
 1  10.36610416181618  0.15503804150415 -1.67403229272927
 1  9.20719570507051 -2.13486146264626 -1.74681060586059
 1  11.02534509020902 -2.11514829872987 -1.63988823272327
 1  10.14040692669267 -2.66633857585759 -0.39262870257026
 1  11.45757343824382  0.87218944914492  0.39351083858386
 1  11.31923497689769 -0.78634459575958  0.95498612021202
 1  12.89594291319132 -1.48389655085509 -0.74149181678168
 1  12.76677042954295  0.02914360536054 -1.48771213251325
 1  14.00795223192319  0.91462401840184  0.58235557855786
 1  13.99002175527553 -0.72035163986399  1.24917143364336
 1  15.11992528102810  0.37449693469347 -1.37770212821282
 1  15.93314075697570 -2.28929922202220  0.01553009910991
 1  14.87721077177718 -2.15249762536254 -1.46189360446045
 1  16.67735736513652 -1.52790831573157 -1.25738720822082
 1  16.11904710541054  1.46689452315232  0.66181272557256
 1  16.52835728292829 -0.12447162226223  1.28187094829483
 1  18.31654259295930 -0.33043959135914 -0.62632597299730
 1  17.88960602510251  1.19702702160216 -1.18169174497450
 1  18.73650444304430  2.29303346104610  0.96785479077908
 1  19.10638779907991  0.66231041204120  1.58311831213121
 1  20.63616852955295  0.37689383758376 -0.23211614761476
 1  20.01133524012401  3.24181774367437 -1.19836342974297
 1  21.52983723582358  2.29976662946295 -1.51818318161816
 1  19.91979588398840  1.84630644144414 -2.32700966996700
 1  21.59078505370537  1.14282239133913  1.87050666786679
 1  22.31946365266527  1.99914114381438  0.53640860716072
 1  20.78261799169917  2.77657774107411  1.43225366586659

