%nproc=4
%Mem=2GB
# td=(NStates=1) CAM-B3LYP/6-31G(d,p) 

TD

0 1
12 -7.07760833383338  0.54279302740274  0.02397008440844
 6 -4.90086470447045 -1.95735691409141  0.58018455115512
 6 -4.76776670557056  2.84090253755376  1.11168753365337
 6 -9.43137787328733  3.01490698619862 -0.47226008570857
 6 -9.45271558525853 -1.73148865986599 -0.88339476857686
 7 -5.12487591219122  0.51939175727573  0.68805922422242
 6 -4.37520722682268 -0.69908973097310  0.78669669286929
 6 -2.91984098949895 -0.37095652135214  1.24325467966797
 6 -3.01769520792079  1.07178984728473  1.68133886458646
 6 -4.37048404330433  1.49306005480548  1.11643867376738
 6 -3.05849093119312  1.29429171727173  3.21107251615162
 6 -1.85409887088709 -0.56746200760076  0.11352531083108
 6 -0.48176559915992 -0.17252159935994  0.53684781408141
 6  0.49291042824282 -0.56952046494649 -0.62004738523852
 8  0.15746698679868 -0.94413982158216 -1.68709504120412
 8  1.80013182368237 -0.27731512791279 -0.20811760066007
 7 -7.11222167006701  2.54093968376838  0.23302199769977
 6 -6.07971725072507  3.28218919471947  0.75520905450545
 6 -6.48567582068207  4.66972126152615  0.72595328252825
 6 -7.82713542054205  4.77974860636064  0.35428381968197
 6 -8.14986925852585  3.41681087638764 -0.02188964266427
 6 -5.49268722542254  5.73185565146515  1.33014777527753
 6 -8.61623942154215  5.91824285798580  0.24230121552155
 6 -8.58854274557456  7.06083220182018  0.82678892869287
 7 -9.11782405500550  0.62855571667167 -0.51396543024302
 6 -9.89785604530453  1.74010396349635 -0.74338066216622
 6 -11.14313340994099  1.46317465656566 -1.19505122462246
 6 -11.17647005090509  0.04590995509551 -1.30399911391139
 6 -9.97387306800680 -0.42932490679068 -0.85715073117312
 6 -12.38400722442244  2.39643021402140 -1.36242301710171
 6 -12.39346389268927 -0.79152656275628 -1.63061386988699
 6 -12.27479496789679 -0.96757916911691 -3.24326944554455
 7 -7.17086655495550 -1.47368698229823 -0.06454113111311
 6 -8.24262450225022 -2.20868604070407 -0.51991694689469
 6 -7.78756490209021 -3.59907817531753 -0.55386266356636
 6 -6.49963384748475 -3.54632896989699 -0.10176190809081
 6 -6.14028662506251 -2.20011829312931  0.15392819701970
 6 -8.66975444284428 -4.89378222062206 -0.70150862926293
 6 -5.31807627792779 -4.35176906040604  0.28260113271327
 8 -5.18513735163516 -5.51979646304630  0.24665169586959
 6 -4.21651523092309 -3.26993278307831  0.61674153945395
 6 -3.50881151205121 -3.62769799109911  1.98916928982898
 8 -3.65485708630863 -3.09488622482248  3.02469515061506
 8 -2.73842503620362 -4.74586930933093  1.81549012991299
 6 -1.94109469736974 -5.20279450855085  3.01043597909791
 6  2.78079059075908 -0.47704549914991 -1.27045824622462
 6  4.02851494049405 -0.14636281258126 -0.62862301130113
 6  5.10502398679868  0.44119038443844 -1.22440221292129
 6  4.95466388938894  1.22617526682668 -2.42437660296030
 6  6.52695702850285  0.42543439363936 -0.44720120532053
 6  7.64931246914691 -0.20996134303430 -1.23054000450045
 6  8.94170604320432 -0.00011514191419 -0.37238905170517
 6  10.24029465396540 -0.51706877857786 -1.07967893839384
 6  10.26329302950295 -2.09912084818482 -1.31119458445845
 6  11.36413929082908 -0.21385516631663 -0.00361949334934
 6  12.73651855955596 -0.56425047614761 -0.62586260916092
 6  13.89666913531353 -0.00336153895390  0.14148121562156
 6  15.34928105300530 -0.24542827192719 -0.48598683848385
 6  15.59926159505951 -1.70963859765977 -0.83197281498150
 6  16.45718982488249  0.31840620062006  0.50554506170617
 6  17.88315290469047  0.24561595999600 -0.12235805040504
 6  18.80984135363536  1.15567378437844  0.78184861786179
 6  20.29206787598760  1.25771610511051  0.44048881208121
 6  20.41825317911791  2.08065636283628 -1.00314130683068
 6  21.08263919471947  1.95181811811181  1.50533589698970
 1 -4.00653213771377  3.58724424582458  1.68092267916792
 1 -9.88942933563356  4.00992182718272 -0.77554294579458
 1 -10.03994728412841 -2.58166750755075 -1.23602025422542
 1 -2.77369382628263 -1.05514382828283  2.11689238043804
 1 -2.16279988518852  1.58974255685569  1.35738638903890
 1 -2.05740019751975  1.00261071397140  3.80608432193219
 1 -3.03536859685969  2.41251530903090  3.45117728312831
 1 -4.06330977367737  1.04970965496550  3.77181959475948
 1 -2.11632411731173 -1.53992395279528 -0.24500841004100
 1 -2.03842551505150 -0.00849359895990 -0.75559559915992
 1 -0.21489500690069  0.91934654855486  0.66511691079108
 1 -0.25925372737274 -0.67942245744575  1.46895085028503
 1 -5.87044581998200  6.51073971807181  0.89675538473847
 1 -5.66011300070007  5.73967733083308  2.45905220232023
 1 -4.43920787678768  5.56249741614161  1.01039421502150
 1 -9.28070012251225  5.97846399449945 -0.58584881308131
 1 -9.38462967886789  7.72448318721872  0.86504612641264
 1 -7.87693715951595  7.37534393389339  1.52809119461946
 1 -12.40135424052405  3.02174250025002 -2.31293429812981
 1 -13.43043271247125  2.15017890909091 -1.40408159965997
 1 -12.26531826292629  3.23574222892289 -0.42458370237024
 1 -12.31370614901490 -1.82680212531253 -1.37495245014501
 1 -13.45408412731273 -0.22535927272727 -1.49839536703670
 1 -13.13327968056806 -1.47516220242024 -3.49813969846985
 1 -12.18758232243224  0.04686014841484 -3.51917541324132
 1 -11.36188246754675 -1.45278014511451 -3.61156977697770
 1 -9.18284788778878 -4.71845258815882 -1.64606787088709
 1 -7.86657602240224 -5.65506551075107 -0.60315992899290
 1 -9.34463434833483 -4.80276529782978  0.03132130953095
 1 -3.39202989888989 -3.43513676437644 -0.07042231373137
 1 -1.51288945544554 -4.03408984868487  3.18399131443144
 1 -2.51398100670067 -5.70432204980498  3.86444928382838
 1 -1.04258236973697 -5.83337261046105  2.72291624452445
 1  3.05952525662566 -1.50090192609261 -1.70728469346935
 1  2.43173065066507 -0.03865958635864 -2.10715386758676
 1  4.37284819041904 -0.86204842004200  0.22961617761776
 1  3.85448441194119  1.68906761716172 -2.53893226292629
 1  5.62333774547455  2.13864412331233 -2.22496896509651
 1  5.29731703930393  0.76904801230123 -3.32707143814381
 1  6.60175223812381  1.51453545354535 -0.43019037623762
 1  6.37333145254525 -0.02505054245425  0.59444916161616
 1  7.27860524522452 -1.21041027622762 -1.40681200480048
 1  7.84497693359336  0.60525373347335 -1.95687861146115
 1  9.09394144574457  1.19294717971797 -0.24686705450545
 1  8.90535902460246 -0.35474098029803  0.68749661336134
 1  10.61911946334634 -0.34332179447945 -1.91699658915892
 1  9.34784977047705 -2.11752972947295 -2.15613153795380
 1  11.00837339303930 -2.20327711161116 -2.07694193809381
 1  10.25144803080308 -2.64649659165917 -0.35700514021402
 1  11.28755643654365  0.86035826602660  0.01689317681768
 1  11.03133618701870 -0.86847280858086  1.01963258485849
 1  13.04652797169717 -1.68994715591559 -0.62508017561756
 1  12.74903865636563 -0.00844015301530 -1.76840020132013
 1  14.02343378007801  1.02703525952595  0.33201054405441
 1  13.86251900500050 -0.50096970167017  1.04945146164616
 1  15.33388667716772  0.35564504950495 -1.26505086308631
 1  15.53250069296930 -2.24915520762076  0.17074562066207
 1  14.99293234393440 -2.12580495609561 -1.43125054015402
 1  16.57593722312231 -2.06684220912091 -1.36968843834383
 1  16.25171037173717  1.45240307400740  0.84861140544054
 1  16.48653310051005 -0.36829600470047  1.36293905510551
 1  18.09826076477648 -0.79015556295630 -0.19175251565156
 1  17.89351641614162  0.87168448734874 -1.07356093189319
 1  18.38286907950795  2.10846500420042  1.01509951525153
 1  18.70591775207521  0.68661284228423  1.79096909720972
 1  20.73798871157116  0.17346349454946  0.33417048104810
 1  19.91329543614361  3.09483304520452 -1.04970856425643
 1  21.52448670077008  2.02345899869987 -1.29373073637364
 1  19.95715962036204  1.45567737853785 -1.95300226922692
 1  20.89513548874887  1.64108221732173  2.50641025822582
 1  22.25331703800380  1.71338256795680  1.19247421372137
 1  20.81048077797780  2.98996908020802  1.64239467996800

