%nproc=4
%Mem=2GB
# td=(NStates=1) CAM-B3LYP/6-31G(d,p) 

TD

0 1
12 -7.14184475747575  0.62295104320432  0.13841152855286
 6 -4.87637225522552 -1.85882706110611  0.65319185188519
 6 -4.81347127602760  2.85056350365037  1.19487585248525
 6 -9.47091182668267  3.09226472197220 -0.42374523422342
 6 -9.46305661936194 -1.77204271527153 -0.88285471457146
 7 -5.09796322092209  0.46171598969897  0.62702312061206
 6 -4.27632733883388 -0.73012283428343  0.87038506170617
 6 -2.87144615001500 -0.34813423912391  1.21996235043504
 6 -3.01292473087309  1.08541120942094  1.63806453715372
 6 -4.38711570647065  1.59137988678868  1.21798882878288
 6 -2.93361844394439  1.14909719781978  3.18355976487649
 6 -1.93401686268627 -0.52834809620962  0.10827478577858
 6 -0.47235465806581 -0.30948529572957  0.50570469976998
 6  0.45364650185018 -0.67210072297230 -0.71346672717272
 8  0.10060130023002 -1.05664107170717 -1.73842017371737
 8  1.72874468496850 -0.49717711411141 -0.25430221912191
 7 -7.10435088298830  2.59764535433543  0.39206790229023
 6 -6.13864314331433  3.34447542334233  0.75585911951195
 6 -6.49118637173717  4.74834912431243  0.72733342054205
 6 -7.75962866986699  4.83723435493549  0.28210660196020
 6 -8.16983125472547  3.51004019931993  0.02424497079708
 6 -5.62172012871287  5.89239170507051  1.21797655815582
 6 -8.48783658125813  6.00284131783178  0.05430241564156
 6 -8.42846673797380  7.15559167776778  0.82432868266827
 7 -9.14411668426843  0.69389225032503 -0.52676671037104
 6 -9.96393265296530  1.81271122422242 -0.63188951305131
 6 -11.27128622522252  1.43135147424742 -1.16386810631063
 6 -11.22707511141114  0.06680204430443 -1.27507622162216
 6 -9.91085676637664 -0.44163613791379 -0.81523653975398
 6 -12.35524434813481  2.45089566056606 -1.41591836663666
 6 -12.32057660396040 -0.83500091019102 -1.88437924642464
 6 -12.14100158855886 -1.01140355155516 -3.38901402000200
 7 -7.21563103140314 -1.46857647124712 -0.14965964296430
 6 -8.21482172197220 -2.21377654975498 -0.55807076227623
 6 -7.86330247584758 -3.62399066656666 -0.44632190949095
 6 -6.48990287438744 -3.57733207020702 -0.05290702260226
 6 -6.18454105050505 -2.21213949524953  0.16988979317932
 6 -8.61616908430843 -4.95565840824082 -0.71818029642964
 6 -5.27156162646265 -4.34321820532053  0.29337220982098
 8 -5.19224806270627 -5.53878836223622  0.33663069376938
 6 -4.13516709610961 -3.27422321212121  0.59891975727573
 6 -3.57751838273827 -3.63058828012801  1.96443681658166
 8 -3.91332293289329 -3.20164690089009  3.06057873897390
 8 -2.73679487318732 -4.67617233963396  1.78865744664466
 6 -2.23965455335534 -5.21185541464146  3.00679561506151
 6  2.82829534123412 -0.73926172077208 -1.19445064546455
 6  4.16170825982598 -0.45831400770077 -0.56146629562956
 6  5.08388187258726  0.32715898129813 -1.04895466816682
 6  5.09839826282628  1.09154180348035 -2.28138230353035
 6  6.47517184998500  0.54744659485949 -0.33337982318232
 6  7.57236477437744 -0.18639898679868 -0.99475642614261
 6  8.86911878447845 -0.16098122852285 -0.28231004380438
 6  10.24751537603760 -0.54222129382938 -1.02245321582158
 6  10.14575127532753 -1.98946988308831 -1.45647911291129
 6  11.43872674957496 -0.14881866266627 -0.13298242964296
 6  12.77175208290829 -0.41124517561756 -0.80294031693169
 6  13.94639410781078 -0.02608381118112  0.19304637213721
 6  15.32470859575958 -0.04771850095010 -0.49546778657866
 6  15.78769043794379 -1.56704433823382 -0.86061567926793
 6  16.49222332823282  0.43481784178418  0.50526503370337
 6  17.75231982138214  0.63819521792179 -0.25256107070707
 6  18.83710407990799  1.14526274327433  0.71884231723172
 6  20.25493416261626  1.25154548804880  0.30260502370237
 6  20.45944729852985  2.14228252545255 -0.96328732143214
 6  21.24135506630663  1.71458439473947  1.49462482588259
 1 -4.07235872037204  3.61378690009001  1.52556714361436
 1 -10.26419681238124  3.84681551655165 -0.44497988948895
 1 -10.21558484788479 -2.43213255405541 -0.97451410361036
 1 -2.55323178007801 -1.07504581848185  1.82933362456246
 1 -2.23888749394939  1.79994357695770  1.35791644204420
 1 -1.78718317581758  1.06912736563656  3.48816252975298
 1 -3.17183224322432  2.16089014651465  3.73645581098110
 1 -3.59207264996500  0.58179286328633  3.79487189999000
 1 -1.84240672557256 -1.53120308070807 -0.37986189538954
 1 -2.31671334383438  0.01763901430143 -0.64057409700970
 1 -0.34305782318232  0.82790740464046  0.87257765686569
 1 -0.18731653365337 -1.04248876407641  1.37643159835984
 1 -5.84891366676668  6.89760840494049  0.80275598479848
 1 -5.69227621702170  6.07677104020402  2.32774907200720
 1 -4.60422437843784  5.59144031043104  0.97203037863786
 1 -9.36100815331533  5.86676282438244 -0.61097132533253
 1 -9.21562277817782  7.98134887378738  0.62834245604560
 1 -7.87400686648665  7.43250965046505  1.74213259875988
 1 -11.93840794589459  3.09611993799380 -2.25460846554655
 1 -13.31359102830283  2.06014990619062 -1.82060325182518
 1 -12.65647737883788  3.04385304000400 -0.64156540054005
 1 -12.37003178157816 -1.91479092419242 -1.26560151505151
 1 -13.09604832373237 -0.51360809760976 -1.70961648914892
 1 -13.03217957055706 -1.58087277347735 -3.78197808230823
 1 -12.14472803700370 -0.11420595819582 -3.92196569226923
 1 -10.93959023832383 -1.13985885298530 -3.83597221722172
 1 -9.07173677667767 -4.72874361726173 -1.77245050915092
 1 -7.89664902970297 -5.69377938213821 -0.76384599759976
 1 -9.27116700160016 -5.38656367766777  0.09989816721672
 1 -3.20575127102710 -3.22683593429343 -0.06736200770077
 1 -1.59118728522852 -4.47243368306831  3.47138005330533
 1 -3.13784339293929 -5.64561617921792  3.52363520242024
 1 -1.42140025152515 -5.95615488868887  2.53763771667167
 1  2.71045034913491 -1.86482831873187 -1.45067903290329
 1  2.78735621322132 -0.13638935933593 -1.92953610581058
 1  4.41194209980998 -0.97066928212821  0.43311652765277
 1  4.11576053955396  1.22707141754175 -2.55230360006001
 1  5.25136054775477  2.10531078997900 -1.73274974317432
 1  5.69512682028203  0.64924603210321 -3.11072980398040
 1  6.79812187508751  1.64336833683368 -0.22027938513851
 1  6.33086720612061 -0.12321035843584  0.57372708940894
 1  7.31974935963596 -1.22140137533753 -1.48767009060906
 1  7.62663509940994  0.57250045814581 -2.10426334993499
 1  8.96433848544854  0.68126601160116  0.06270390259026
 1  9.10069855855586 -0.86043154935494  0.62198006170617
 1  10.51868942034203  0.08127066476648 -1.90792568206821
 1  9.41116610211021 -2.28543652015202 -2.13958988378838
 1  10.99588214391439 -2.29936672057206 -2.04743898779878
 1  10.01086397239724 -2.57972991499150 -0.63884332403240
 1  11.33881156205621  0.88361059125913  0.32503399089909
 1  11.26688974237424 -0.96778273957396  0.76051667326733
 1  12.85525884478448 -1.41005916711671 -1.16252391999200
 1  12.76241999449945  0.15146583758376 -1.72952631393139
 1  13.70452188888889  0.96880943694369  0.57108445144514
 1  13.97480023312331 -0.72733233793379  1.04940145664566
 1  15.31566485498550  0.75931541654165 -1.37019137713771
 1  16.20441788468847 -2.23836412851285 -0.04625607950795
 1  14.98905195589559 -2.12803517911791 -1.58862627772777
 1  16.60873050245025 -1.56053157805781 -1.62273374287429
 1  16.04771997269727  1.37239507320732  1.07929447374737
 1  16.58577302450245 -0.14718389348935  1.53469623082308
 1  17.99866080478048 -0.58561510891089 -0.30195353575358
 1  17.58946601110111  1.30503782268227 -1.18119169496950
 1  18.46111690429043  2.15494965266527  0.86971497679768
 1  18.87042420272027  0.58471265226523  1.61368136843684
 1  20.84787970067007  0.26987313551355  0.34725178917892
 1  19.76053015961596  3.01822538443844 -0.80563415681568
 1  21.47025127722772  2.35076172897290 -1.09216057935794
 1  20.19085298969897  1.70064187498750 -1.94988195719572
 1  21.16168214341434  1.08994710381038  2.35068468566857
 1  22.44398610491049  1.54268549824983  1.27475244154415
 1  21.20461019091909  2.70745082838284  1.70267070757076

