%nproc=4
%Mem=2GB
# td=(NStates=1) CAM-B3LYP/6-31G(d,p) 

TD

0 1
12 -7.11562213521352  0.51629037713771  0.13224091149115
 6 -4.85361997999800 -1.98553973237324  0.49398593129313
 6 -4.88077800670067  2.87338578587859  1.26899326422642
 6 -9.34484922042204  3.05163065856586 -0.43782664236424
 6 -9.51471178487849 -1.71492700370037 -0.96410283938394
 7 -5.11056448104810  0.41620143824382  0.78072849114912
 6 -4.34876458255826 -0.68160798279828  0.85400342354235
 6 -2.95273427882788 -0.39558898459846  1.30387074127413
 6 -2.97936137453745  1.11538420672067  1.73345407610761
 6 -4.41812880778078  1.54247499629963  1.15594262416242
 6 -2.96522160426043  1.25962825092509  3.25674708360836
 6 -1.90945440644064 -0.56847210861086  0.10399435773577
 6 -0.40619804240424 -0.19872421962196  0.46436056535654
 6  0.51187232443244 -0.47304081698170 -0.67270265076508
 8  0.14708594869487 -0.90541594919492 -1.78405473717372
 8  1.72288409890989 -0.30097749414941 -0.17136392529253
 7 -7.08104855275528  2.61533712351235  0.22807150265027
 6 -6.06417569656966  3.42498347414741  0.75677921152115
 6 -6.45037229032903  4.78635292469247  0.74827551475148
 6 -7.74667737473747  4.88398903040304  0.28377676897690
 6 -8.13255752735274  3.47755695099510  0.03857640394039
 6 -5.52106006270627  5.97193965986599  1.00364512501250
 6 -8.67864566216622  6.00433146684669  0.16407339273927
 6 -8.67238112941294  7.09179529812981  0.86765301510151
 7 -8.99331160376038  0.67532039313931 -0.54493852755276
 6 -9.84492075177518  1.79019897299730 -0.70168649274927
 6 -11.16762585918592  1.44836317541754 -1.16025774527453
 6 -11.16494889878988  0.06405176927693 -1.29996871087109
 6 -9.82605828652865 -0.35019699399940 -0.94368938503850
 6 -12.27333615731573  2.50232080308031 -1.33790056485649
 6 -12.37664221052105 -0.90800821092109 -1.69381018951895
 6 -12.37030451885188 -1.21151356255626 -3.15484060266027
 7 -7.22871233953395 -1.42909252285229 -0.17622229922992
 6 -8.26805704550455 -2.22982815491549 -0.55230018521852
 6 -7.83597974357436 -3.60776904440444 -0.56833411071107
 6 -6.45078896299630 -3.55498983598360 -0.16895862776278
 6 -6.11196379277928 -2.18646692799280  0.04317712191219
 6 -8.58441590899090 -4.74738758115812 -0.95293377177718
 6 -5.31123559385939 -4.39164304780478  0.14041691429143
 8 -5.05482432033203 -5.53946843024302  0.06023305400540
 6 -4.08565214461446 -3.29516530633063  0.55039490479048
 6 -3.52208283918392 -3.65773099439944  1.93079345224522
 8 -3.67053865446545 -3.02633937013701  2.94883756485649
 8 -2.75294648834883 -4.79164388678868  1.94365294619462
 6 -2.21050163806381 -5.16679090819082  3.18710364586459
 6  2.75223773547355 -0.69682747734773 -1.08630983138314
 6  4.08823091209121 -0.44045222152215 -0.54951510051005
 6  5.13943742814281  0.38328459385939 -0.91030080278028
 6  5.02104052705270  1.18368101740174 -2.24539870517052
 6  6.40355468826883  0.38639048924892 -0.18290477567757
 6  7.63166070397040 -0.22601294819482 -0.92822977347735
 6  8.90232210481048 -0.19442457285729 -0.16807862066207
 6  10.14901552605260 -0.70497756945695 -0.81193216371637
 6  10.11632833303330 -2.21411234733473 -1.26707017201720
 6  11.44473735063506 -0.46954073487349  0.04182505110511
 6  12.75406031373137 -0.43032708380838 -0.74652467536754
 6  13.92800226862686 -0.19984118691869  0.22146921442144
 6  15.32491861676168 -0.10773450255025 -0.49767800760076
 6  15.63713538243824 -1.54219185298530 -1.03673329102910
 6  16.49458356425643  0.28947330733073  0.45757026422642
 6  17.92807739713971  0.46025742414241 -0.26590240484048
 6  18.77546791629163  1.32168038503850  0.70973140614061
 6  20.24356302550255  1.32295262876288  0.22512727592759
 6  20.23035438923893  2.22202049924993 -1.03243423612361
 6  21.17039797059706  1.99011194749475  1.23440880428043
 1 -4.18620010451045  3.53525904730473  1.64656924382438
 1 -10.22306269896990  3.69168000300030 -0.66015140664066
 1 -10.23470676007601 -2.36409575037504 -1.48929558175818
 1 -2.60727718461846 -1.15405371927193  2.14619531073107
 1 -2.24743834903490  1.83747733033303  1.31356200660066
 1 -1.90172462996300  0.80518097099710  3.46503021652165
 1 -3.24704976497650  2.33323738123812  3.77159932533253
 1 -3.51570501320132  0.48578326232623  3.82358477127713
 1 -2.00181266616662 -1.56954691509151 -0.34709861906191
 1 -2.40161183368337  0.13406065646565 -0.60981102070207
 1 -0.35377889528953  0.88415302920292  0.74728512761276
 1 -0.22032983498350 -0.76319083428343  1.35772972817282
 1 -5.88348712411241  7.12487113121312  0.86374208340834
 1 -5.09503649304931  5.82570593369337  2.21929822692269
 1 -4.69830378637864  5.84455562196220  0.20900407600760
 1 -9.40039209170917  5.96852300040004 -0.65871609980998
 1 -9.32427364326433  7.96513725262526  0.76220584238424
 1 -7.93374284008401  7.28818521802180  1.84841322682268
 1 -11.98912301740174  3.08356868286829 -2.24079708440844
 1 -13.20708037723772  2.08529242044204 -1.58749994149415
 1 -12.32207393849385  3.13413206790679 -0.39090033403340
 1 -12.32951773017302 -1.79203864896490 -1.07431238613861
 1 -13.33155187408741 -0.24860159695970 -1.55637116461646
 1 -13.15544189678968 -1.89764445064506 -3.57375726022602
 1 -12.34479804400440 -0.33774831243124 -3.90845434113411
 1 -11.48775505480548 -1.58129299639964 -3.57400602060206
 1 -8.75449505250525 -4.91716245914592 -2.15420868496850
 1 -8.23932329712971 -5.74193419761976 -0.69491910491049
 1 -9.65852573747375 -4.89708472977298 -0.46928875147515
 1 -3.25431612751275 -3.50761401210121 -0.21488676017602
 1 -1.89704787128713 -4.22894933463346  3.84739765506551
 1 -2.99494910351035 -5.54902652025203  3.68373121202120
 1 -1.58042615411541 -6.03055232843284  2.88941289418942
 1  2.58979828392839 -1.75295713161316 -1.38390235523552
 1  2.71829930753075 -0.14673039343934 -2.03110626282628
 1  4.31853275887589 -0.83252546774677  0.44390760676068
 1  4.10927989148915  1.31741045144514 -2.38399676937694
 1  5.59798521022102  2.17700795969597 -2.07976444464446
 1  5.78727603520352  0.69606071357136 -3.06152488348835
 1  6.66641870477048  1.31769576957696  0.05296793959396
 1  6.25813993339334 -0.14642267966797  0.83152286898690
 1  7.41579896459646 -1.44372360756076 -1.14129545314531
 1  7.66459889578958  0.19786299439944 -1.95876880048005
 1  9.18937098869887  1.10334821982198  0.12757038923892
 1  8.65537402610261 -0.78285379157916  0.76195405910591
 1  10.11500905230523 -0.24503196549655 -1.80377526702670
 1  9.31710669616962 -2.64944292079208 -1.91140706550655
 1  11.09820237593759 -2.56764354825483 -1.78688293219322
 1  10.06256914291429 -2.91960390239024 -0.29891933163316
 1  11.31769945084508  0.52579480968097  0.48326981448145
 1  11.44791784518452 -1.43519948124812  0.78542916451645
 1  12.74016733563356 -1.56913507470747 -1.47007467506751
 1  13.04083783628363  0.51095178617862 -1.49910327162716
 1  13.79438087478748  0.64688724472447  0.97953529652965
 1  13.87588034113411 -1.10478008270827  0.83103962046205
 1  15.12154544304430  0.68246773177318 -1.34401875987599
 1  15.73474091699170 -2.28385867796780 -0.37730918481848
 1  14.89820287098710 -1.71624400000000 -1.62574999009901
 1  16.71326095549555 -1.81700722562256 -1.61573304280428
 1  16.11747694839484  1.33300113381338  1.02320886518652
 1  16.75277972517252 -0.28589776487649  1.29630239143914
 1  18.36038697739774 -0.43852039943994 -0.30799413981398
 1  17.71395846034603  0.89349666856686 -1.36306988278828
 1  18.47152794539454  2.35057921562156  0.93945195049505
 1  18.78236539683968  0.49040322132213  1.66261626192619
 1  20.79038395109511  0.31485763396340  0.05733279727973
 1  19.87434154075407  3.34022758465847 -0.90595418881888
 1  21.09112336443645  2.50432708550855 -1.48666002930293
 1  19.69182308670867  1.70635244604460 -1.90988795779578
 1  21.06549252445244  1.40805891499150  2.36171578877888
 1  22.45549725602560  2.08498972867287  1.07708267456746
 1  20.83928365826583  3.06860694399440  1.43699413991399

