%nproc=4
%Mem=3GB
# td=(NStates=1) iop(3/107=0140000000,3/108=0140000000) CAM-B3LYP/6-31G(d,p) 

TD

0 1
12 -7.13684837653765  0.58592697619762  0.10577694769477
 6 -4.84157297379738 -1.90489772037204  0.49926532893289
 6 -4.81100713131313  2.79508822672267  1.15524562976298
 6 -9.40944770927093  3.07631518451845 -0.34699717501750
 6 -9.50480657865787 -1.75246701240124 -0.86751355625563
 7 -5.11680871207121  0.45820191079108  0.66360418441844
 6 -4.31766401370137 -0.68188933213321  0.81881977667767
 6 -2.89432565316532 -0.38082648064806  1.25418108720872
 6 -3.13394662156216  1.08853755535554  1.79042532183218
 6 -4.42559279397940  1.49459411051105  1.17968236213621
 6 -3.01109729052905  1.26027884718472  3.23130844544454
 6 -1.92035776547655 -0.64016000520052  0.10379418971897
 6 -0.47034274347435 -0.37124037203720  0.56641002330233
 6  0.46219814301430 -0.74594121602160 -0.60124991509151
 8  0.18366858365837 -1.06269004670467 -1.73261065416542
 8  1.74750334873487 -0.48044798319832 -0.18163355095510
 7 -7.12584022742274  2.60004321422142  0.36399732383238
 6 -6.10036017981798  3.38081184858486  0.69296517261726
 6 -6.40905581398140  4.80845770937094  0.73323158185819
 6 -7.68254303960396  4.89340114531453  0.27787391379138
 6 -8.15738526602660  3.49644658345835  0.08153615221522
 6 -5.44833686758676  5.96285575927593  1.19875003020302
 6 -8.47429743774377  6.10855112471247  0.17835844834483
 6 -8.39377778777878  7.28504765446545  0.80734479377938
 7 -9.15275431653165  0.62554954935494 -0.43106968086809
 6 -9.83149063536354  1.78545186948695 -0.59243205670567
 6 -11.16121007370737  1.46209565406541 -1.15624048374837
 6 -11.24728421562156  0.05995354115412 -1.20966099439944
 6 -9.99687729132913 -0.43611380478048 -0.85185738703870
 6 -12.22836377407741  2.48779402080208 -1.42311176387639
 6 -12.35220901380138 -0.67841396519652 -1.88923825442544
 6 -12.15386729562956 -1.03353354565457 -3.37040769196920
 7 -7.18340130253025 -1.36029086478648 -0.18038071317132
 6 -8.24574890119012 -2.27557610311031 -0.59887146704670
 6 -7.78216025582558 -3.63037358875888 -0.53301360116012
 6 -6.46827461796180 -3.56966994909491 -0.00962304400440
 6 -6.19723345504550 -2.16979493529353  0.01465330073007
 6 -8.56711905140514 -4.82782888128813 -0.94721810491049
 6 -5.30328579147915 -4.35292885628563  0.26911188528853
 8 -5.12653364566457 -5.54258111511151  0.14684063266327
 6 -4.12532703530353 -3.29047649504950  0.63279160076008
 6 -3.55407958475848 -3.69866780948095  1.86081204970497
 8 -3.66514929832983 -2.98197555545555  2.89179253745375
 8 -2.95381073387339 -4.79627824632463  1.66485552305231
 6 -2.35816477347735 -5.26016122202220  2.92879027942794
 6  2.86612293269327 -0.83857214611461 -1.17332084928493
 6  4.12646353155316 -0.58378364626463 -0.49175173797380
 6  5.09217470877088  0.25948247624762 -0.85452832983298
 6  4.99557328292829  1.10429810511051 -2.08573270827083
 6  6.49058533723372  0.36147676367637 -0.10504102850285
 6  7.65888734133413 -0.29720826882688 -0.86213654235424
 6  8.92499021062106 -0.28332014811481 -0.04364046644664
 6  10.26611207180718 -0.46370803400340 -0.83820954095410
 6  10.12519579617962 -1.95357323722372 -1.30202716871687
 6  11.50123478727873 -0.07837272837284 -0.00583854635464
 6  12.82149988548855 -0.35073510701070 -0.76611411651165
 6  13.90792206400640 -0.04797051135114  0.11957836943694
 6  15.28881487248725 -0.16997608120812 -0.43642929542954
 6  15.67628389938994 -1.60074846314631 -0.88775060136014
 6  16.34728172087209  0.37671418871887  0.46506124082408
 6  17.73117070477048  0.46118984858486 -0.23841036803680
 6  18.79370978957895  1.28834691319132  0.62339559625963
 6  20.21809461386139  1.26828626112611  0.15141184718472
 6  20.41754460026003  2.08013531863186 -1.17783247914791
 6  21.15183025002500  1.87875957585759  1.19602354235424
 1 -3.99161952545255  3.44759801120112  1.48818491429143
 1 -10.03618574187419  3.93757603210321 -0.47876240244024
 1 -10.29017344144414 -2.31438697379738 -1.02570038943894
 1 -2.71455874307431 -1.14327453015302  1.98103459415942
 1 -2.33960742704270  1.89987204830483  1.44170781978198
 1 -2.11592467886789  1.03772287868787  3.72289262666267
 1 -2.97113422252225  2.37703692649265  3.36177419961996
 1 -3.76003880438044  0.65927108140814  3.74618630383038
 1 -1.87733285228523 -1.44381505230523 -0.39803781088109
 1 -2.17115348434843  0.27172479227923 -0.69347608220822
 1 -0.38517394609461  0.61128071537154  0.89543340634063
 1 -0.33251167146715 -1.24784555115512  1.23314677297730
 1 -5.41597577527753  6.97734524652465  0.77813764506451
 1 -5.61118258955896  5.97293017441744  2.22316432893289
 1 -4.46372121672167  5.87647191519152  0.86449718231823
 1 -9.31359161896190  6.20157353935393 -0.52633398609861
 1 -8.91548061176118  8.14720444144414  0.55138491419142
 1 -7.62828076017602  7.35999283568357  1.62481144144414
 1 -11.98876934993499  3.19309845694570 -2.29952578407841
 1 -13.11698899659966  2.08895763816382 -1.84664039223922
 1 -12.61561259395940  3.07758509260926 -0.46603704320432
 1 -12.71909387428743 -1.60482140494049 -1.34981848274827
 1 -13.19760205930593 -0.10591330183018 -2.01760751515152
 1 -13.13418861806181 -1.54752841494149 -3.93287424552455
 1 -12.15578598429843 -0.03398186948695 -3.96863584198420
 1 -11.18086292569257 -1.72528355555556 -3.33548182638264
 1 -9.12243686228623 -4.72276877767777 -1.89517558055806
 1 -8.05686007120712 -5.83703965726573 -1.00187014211421
 1 -9.48156233523352 -5.12824127252725 -0.28292056075608
 1 -3.34978249674967 -3.37889449504950 -0.06226396449645
 1 -1.60925431303130 -4.46535874927493  3.39241095869587
 1 -3.08029446674667 -5.67864738963896  3.55397643534353
 1 -1.73476399689969 -6.26701748654865  2.76974033513351
 1  2.69641769656966 -1.73365998879888 -1.62861431013101
 1  2.78089453075307  0.08861694649465 -1.88417947544754
 1  4.30271075777578 -1.19901831563156  0.37048844904490
 1  4.06671198269827  1.25254079677968 -2.54637512321232
 1  5.34016094829483  2.19275969986999 -1.89310674907491
 1  5.78149771827183  0.87911910281028 -2.77639389628963
 1  6.58070625452545  1.44205418601860 -0.05860624672467
 1  6.36615448754875 -0.06755409210921  0.88321451695169
 1  7.31804392719272 -1.25650632363236 -1.33087784498450
 1  7.83838639713971  0.23986308930893 -1.71229205210521
 1  8.99476552085208  0.84819431693169  0.10830325842584
 1  8.77507062786279 -0.83003135583558  0.94238036143614
 1  10.16393102490249  0.08578472627263 -1.82633779177918
 1  9.31480108920892 -2.23973225672567 -1.68367674957496
 1  11.02614175477548 -2.08631203050305 -2.17992335043504
 1  10.44530672777278 -2.66220033473347 -0.38373576727673
 1  11.45309695129513  1.05499193259326  0.23794156495649
 1  11.41662925842584 -0.62124342194219  1.05651197129713
 1  12.74384233673367 -1.31041846114611 -1.04454672617262
 1  12.93762959285929  0.36817175317532 -1.81190552425243
 1  13.66633805410541  0.94080944424442  0.57663249194919
 1  13.88082639323932 -0.83012939183918  1.15223759775978
 1  15.43007340874087  0.67453085008501 -1.19181044984498
 1  15.74720851765177 -2.30031937313731  0.00687255175518
 1  14.68469011341134 -2.02221674167417 -1.29342071557156
 1  16.48255653525353 -1.70083098009801 -1.56212272557256
 1  16.10030330383038  1.30663899759976  0.76459237553755
 1  16.24492857065707 -0.38538482328233  1.26562505720572
 1  18.15604234193419 -0.46167268126813 -0.42459265486549
 1  17.66297360696069  1.04521341544154 -1.14621036463646
 1  18.36079513641364  2.30539180718072  0.60193214001400
 1  18.79180514301430  0.99319415891589  1.65140838633863
 1  20.67726755905591  0.21611260886089 -0.08758286608661
 1  20.05692251075108  3.37266804330433 -0.92129431413141
 1  21.40484428522852  2.20857199929993 -1.47105508670867
 1  19.77619601720172  1.61350164036404 -2.08831721612161
 1  21.04624847834783  1.47827346824682  2.29836350515052
 1  22.15807370017001  1.98213868456846  1.02192884648465
 1  20.88261834033403  2.88444456165617  1.37664480118012

