%nproc=4
%Mem=2GB
# td=(NStates=1) CAM-B3LYP/6-31G(d,p) 

TD

0 1
12 -7.11356192919292  0.54865361346135  0.04289197659766
 6 -4.89676429442944 -1.96972815121512  0.46505303800380
 6 -4.64290421932193  2.83172161946195  1.05400176507651
 6 -9.34382911841184  3.07023251875187 -0.37525038473847
 6 -9.52577289098910 -1.76823233423342 -0.94711114021402
 7 -5.08409183378338  0.39633945204520  0.74234465276528
 6 -4.36708641474147 -0.71356117811781  0.89963798699870
 6 -2.96368537393739 -0.51858128382838  1.27579793399340
 6 -3.06178961736174  1.04156682498250  1.81577230793079
 6 -4.32300929582958  1.46084683348335  1.05318234813481
 6 -2.91295637773777  1.23605589368937  3.21663307220722
 6 -1.96422988398840 -0.59522478387839  0.14265822412241
 6 -0.56754417701770 -0.48974332153215  0.60319444874487
 6  0.44064520172017 -0.70943445634563 -0.61102648314831
 8  0.16900814091409 -1.03325873347335 -1.69752608430843
 8  1.72140395089509 -0.28140553695370 -0.14957174607461
 7 -6.97347779567957  2.57068265806581  0.32212090759076
 6 -5.96933621262126  3.29721069686969  0.70581411501150
 6 -6.30762801590159  4.70418470787079  0.73066375357536
 6 -7.61789449644964  4.85694632613261  0.27334572587259
 6 -8.05087935953595  3.45103429872987  0.05780832713271
 6 -5.38742669936994  5.81004347024702  1.06191095159516
 6 -8.51617941554155  6.03350438413841 -0.06019903450345
 6 -8.57160105140514  7.13437955655566  0.73807005680568
 7 -9.15596786938694  0.61205406650665 -0.62224625832583
 6 -9.78705496519652  1.76974692779278 -0.64890121422142
 6 -11.16358545514551  1.53604194329433 -1.11143286278628
 6 -11.23117552145214  0.11263662776278 -1.19140785478548
 6 -9.93477915861586 -0.44407638193819 -0.86123113921392
 6 -12.23521234493449  2.59312988398840 -1.44544131893189
 6 -12.44578912521252 -0.72419983008301 -1.63512432093209
 6 -12.35174266266627 -1.16448886008601 -3.06554167276728
 7 -7.19213868216822 -1.38962857645765 -0.33217789478948
 6 -8.28396863666367 -2.22124729682968 -0.64775973117312
 6 -7.81848799439944 -3.56678494599460 -0.54747202450245
 6 -6.50618450255026 -3.59768410541054 -0.09725145704570
 6 -6.24412700910091 -2.22517079837984  0.05572837703770
 6 -8.63852131953195 -4.80837367976798 -0.81395987438744
 6 -5.43691816211621 -4.35683956745675  0.16954982758276
 8 -5.33529236713671 -5.61405588898890  0.14886191689169
 6 -4.25290887028703 -3.32612840264026  0.64255412071207
 6 -3.61753238413841 -3.65030025132513  1.86776714961496
 8 -3.93591519211921 -3.20844758095810  2.93381606270627
 8 -2.67987918161816 -4.74135885828583  1.75160374127413
 6 -2.22107269516952 -5.26814104320432  3.05115005050505
 6  2.76747925962596 -0.51383917851785 -1.24905610601060
 6  4.04741683068307 -0.36107428372837 -0.51126127512751
 6  5.11859534393439  0.41975824122412 -0.86119589228923
 6  5.07226564956496  1.21235388468847 -2.09785395069507
 6  6.38385271807181  0.46972882308231 -0.06844332953295
 6  7.64797233513351 -0.04367471437144 -0.83831078157816
 6  8.91433330593059 -0.00805593599360 -0.13968578137814
 6  10.19225985048505 -0.46307337903790 -0.73250422092209
 6  9.99398609880988 -1.94914585068507 -1.18699216421642
 6  11.46292916981698 -0.26867064786479  0.03456432503250
 6  12.75219012671267 -0.51679573067307 -0.63021304420442
 6  13.98325779417942 -0.03683488628863  0.26225329282928
 6  15.29512563746375 -0.04682841194119 -0.47102534233423
 6  15.74256592549255 -1.63037067086709 -1.01881149884989
 6  16.49336344224422  0.37859221922192  0.37299180638064
 6  17.82579716911691  0.58380977937794 -0.32717853245324
 6  18.87017738723872  1.21552976997700  0.65038547154715
 6  20.33232190139014  1.27164749824982  0.12915767896790
 6  20.38669002280228  2.13760205740574 -1.12361335403540
 6  21.30488141894190  1.83690662696270  1.26301166456646
 1 -3.97903938843884  3.73931945334534  1.39263385028503
 1 -9.99272966566657  3.97893872887289 -0.52887827932793
 1 -10.31539482888289 -2.58970831163116 -1.38955560776078
 1 -2.69876633353335 -1.21362967686769  2.06009670087009
 1 -2.14141774697470  1.57455103770377  1.57608825922592
 1 -2.11374583208321  0.95681613451345  3.52934664816482
 1 -3.12052711271127  2.37051110861086  3.53974614001400
 1 -3.84343778647865  0.90117480148015  3.85672808560856
 1 -1.88281076597660 -1.56019597999800 -0.28878278747875
 1 -2.02321399389939  0.16650390079008 -0.64580462006201
 1 -0.21797531493149  0.44471908580858  1.05129552865287
 1 -0.16376417841784 -1.16620113531353  1.24665862106211
 1 -5.75546432183218  6.74268291239124  0.55851156035604
 1 -5.35341233063306  5.83309667276728  2.26322261936194
 1 -4.32457641364137  5.60054122052205  0.63690686628663
 1 -9.22890494299430  5.79952610071007 -0.68389861806181
 1 -9.30869208510851  8.07833857275727  0.55654527632763
 1 -8.00677014281428  7.22669906940694  1.62212059755976
 1 -11.89673377847785  3.09497982398240 -2.25098810351035
 1 -13.07807747694769  2.03407729892989 -1.86808800030003
 1 -12.42893462456246  3.34573322802280 -0.67070831483148
 1 -12.30829560796080 -1.61586103120312 -1.02205716061606
 1 -13.40816953585358 -0.27395413221322 -1.41041656915692
 1 -13.04861121372137 -1.92751743794379 -3.39054893939394
 1 -12.28934249844984 -0.32297683528353 -3.74356785248525
 1 -11.51730801010101 -1.75675054215422 -3.22790141014101
 1 -9.05772537553755 -4.56813755665567 -1.89178244234423
 1 -8.10708007280728 -5.71186119031903 -0.82647226022602
 1 -9.41479136403640 -5.03856887818782 -0.11559338193819
 1 -3.56371706760676 -3.63783703440344 -0.00907617911791
 1 -1.35415358185819 -4.52773921362136  3.36321923722372
 1 -3.12201180978098 -5.42087370497050  3.62180501940194
 1 -1.70513862536254 -6.38699797299730  2.98206215911591
 1  2.73852315641564 -1.54651648754876 -1.71624558955896
 1  2.62762023962396  0.21756603620362 -1.92359551175117
 1  4.16392729832983 -1.00535275047505  0.33880709670967
 1  4.10601956545655  1.14617332773277 -2.65137350705070
 1  5.15750116181618  2.26079633853385 -1.68850531873187
 1  6.07058436603660  0.94166527402740 -2.70152888388839
 1  6.67466952985299  1.51444544454445  0.33770641344134
 1  6.25296941634163 -0.08251628902890  0.95521523822382
 1  7.53626101080108 -1.08603783898390 -1.17909923352335
 1  7.80227266316632  0.54619782788279 -1.67914083768377
 1  9.30474252585258  0.97269515451545  0.24760239243924
 1  8.61341983068307 -0.54159966616662  0.85038290199020
 1  10.42030958235823  0.07053959165917 -1.72933782328233
 1  8.93429841534153 -2.06762473897390 -1.69037496229623
 1  10.85056761246125 -2.19633641754175 -1.72622686658666
 1  9.78246113211321 -2.76505844784478 -0.36905634533453
 1  11.29391707260726  0.72070430063006  0.11057254475448
 1  11.28404145754576 -1.05250121142114  0.93259388098810
 1  12.91894521342134 -1.44731289248925 -1.13815148274828
 1  12.87628138063806 -0.00494980398040 -1.54123748504851
 1  13.85468690539054  1.07014957095710  0.49825716871687
 1  13.80479323242324 -0.75275488018802  1.11140765726573
 1  15.34122741124112  0.56278576357636 -1.32328668666867
 1  16.00280772367237 -2.33087337943794 -0.06114756865687
 1  14.85273832453245 -1.88232060766077 -1.54668208330833
 1  16.69049867926793 -1.68474399929993 -1.62164363386339
 1  15.96033123382338  1.25065289898990  0.78844538883888
 1  16.67885233243324 -0.20890006510651  1.13175593679368
 1  18.20273121182118 -0.49238578597860 -0.65858919931993
 1  17.92747981248125  1.22020933983398 -1.22170574637464
 1  18.49065985858586  2.36166032373237  1.09525753105311
 1  18.89332649294930  0.50474465546555  1.60975097539754
 1  20.82788770147015  0.29427557575758 -0.14952788878888
 1  20.06633073967397  3.26745030693069 -0.92969656305631
 1  21.37200145224523  2.09790644344434 -1.73588495179518
 1  19.55684958935894  1.87092890369037 -1.84510147914791
 1  21.14291026622662  1.11552966206621  2.05061467866787
 1  22.47790949724972  1.91345257495750  0.96237120342034
 1  20.60478020792079  2.77783786708671  1.60850129062906

