%nproc=4
%Mem=2GB
# td=(NStates=1) CAM-B3LYP/6-31G(d,p) 

TD

0 1
12 -7.13996456945695  0.62185093319332  0.04469215661566
 6 -4.80766538453845 -1.95945712411241  0.55406193889389
 6 -4.79541947084708  2.79207765506551  1.01586795169517
 6 -9.39619435493549  3.15900139563956 -0.41665452515252
 6 -9.48302861656166 -1.74599011001100 -0.98796522562256
 7 -5.16469989458946  0.38141795989599  0.67798821712171
 6 -4.35945565166517 -0.72825264726473  0.77413543674367
 6 -2.83340234563456 -0.42560198589859  1.30745109930993
 6 -3.13593703210321  1.08984165246525  1.63892462316232
 6 -4.37472446734673  1.42890363916392  0.99484651455146
 6 -3.00308539063906  1.27041933003300  3.27392880178018
 6 -1.83126658765877 -0.68254351575158  0.10892485078508
 6 -0.37730515311531 -0.60585493269327  0.65993012231223
 6  0.56433757095710 -0.75044855775578 -0.62061744224422
 8  0.25500674077408 -1.01493690129013 -1.75776210791079
 8  1.82739454995500 -0.42440983738374 -0.11821861076108
 7 -7.10882133003300  2.64353994379438  0.34794348984898
 6 -6.02970224922492  3.38195917171717  0.74220775437544
 6 -6.41458871197120  4.81582587198720  0.79252994019402
 6 -7.82815552255226  4.86294692619262  0.38784717601760
 6 -8.14653892549255  3.49932912821282  0.05261780808081
 6 -5.50641859855986  5.84724719061906  1.13847860836084
 6 -8.62478027562756  6.01976301000100  0.26743372877288
 6 -8.45518941024102  7.14447056565657  0.92400865066507
 7 -9.17703997659766  0.72164502560256 -0.41853588728873
 6 -9.90080634033403  1.83907386048605 -0.64192051615162
 6 -11.11026012261226  1.45779411851185 -1.18049976947695
 6 -11.15507791169117  0.08520388448845 -1.38756747074707
 6 -9.88138381908191 -0.41202317661766 -0.91708672477248
 6 -12.24493331703170  2.42143271427143 -1.67090386518652
 6 -12.29474402070207 -0.83308071817182 -1.83931473997400
 6 -12.27074456285629 -1.08801121232123 -3.29890500910091
 7 -7.20826029432943 -1.39328894249425 -0.20674535153515
 6 -8.21537177697770 -2.19235440754075 -0.52854780998100
 6 -7.85063120872087 -3.64401266876688 -0.52387966526653
 6 -6.42166605070507 -3.56270060706071 -0.22387411931193
 6 -6.08284088048805 -2.15090337163716 -0.00623781958196
 6 -8.58853632103210 -4.85134797719772 -0.77561604000400
 6 -5.29717418771877 -4.38526240974097  0.13367624022402
 8 -5.24025286318632 -5.59546402980298  0.25044207490749
 6 -4.13485706510651 -3.33597938773877  0.56199606490649
 6 -3.61446207710771 -3.74169939123912  2.00452082498250
 8 -3.90977257785779 -3.18421515771577  3.06708939003900
 8 -2.76414760846085 -4.71521624402440  1.90344892579258
 6 -2.03663425132513 -5.23445767486749  3.01672660816082
 6  2.88301081278128 -0.51928972357236 -1.16181738213821
 6  4.18847093609361 -0.32120029632963 -0.53392354135414
 6  5.16991047544754  0.55240150555056 -0.91810158285829
 6  5.04689311231123  1.36609925922592 -2.19235340064006
 6  6.46632096489649  0.56365821602160 -0.12946943214321
 6  7.49994753265327  0.02810246334633 -0.96520347084708
 6  8.87490936353635  0.04229909950995 -0.14467628042804
 6  10.15363598809881 -0.62333940564056 -0.77763873437344
 6  9.98034473467347 -2.03019395549555 -1.05905937093709
 6  11.39129200610061 -0.33072685348535  0.04129499809981
 6  12.73800870857086 -0.47018106920692 -0.70946096899690
 6  13.96670613901390 -0.19612081488149  0.17924499199920
 6  15.32729885478548 -0.17126085518552 -0.45916415621562
 6  15.53246491539154 -1.66126376017602 -0.94625424312431
 6  16.43241734763476  0.43134749474947  0.51200570777078
 6  17.80056464586459  0.34156555495550 -0.18698451305131
 6  18.81402177167717  1.21321953895390  0.69312974597460
 6  20.23327199639964  1.29681001450145  0.03842860606061
 6  20.22674402820282  2.13664196139614 -1.14614560726073
 6  21.31487241804180  1.93031596789679  1.02510787418742
 1 -3.97096858135814  3.59331485288529  1.31426601350135
 1 -10.08020841354135  3.95715655065507 -0.52454784628463
 1 -10.17327061646164 -2.53499284008401 -1.07376402860286
 1 -2.59867632453245 -1.04686300020002  2.19717040824082
 1 -2.31692529772977  1.73792737533753  1.35252590299030
 1 -2.00300475797580  0.82106255915592  3.58806251975198
 1 -3.41661672167217  2.42708676617662  3.45194736013601
 1 -3.78947238993899  0.75697038103810  3.62610502330233
 1 -2.12259474437444 -1.52911287168717 -0.42005591479148
 1 -1.78387005950595  0.13405065546555 -0.62823286288629
 1 -0.33331684908491  0.30639525342534  1.18816921602160
 1 -0.11156895889589 -1.64315883108311  1.14830878607861
 1 -5.91571034643464  6.78819746384638  0.76814252345235
 1 -5.41804879427943  5.94171753485349  2.34908120522052
 1 -4.50968492449245  5.69241040744074  0.66940011561156
 1 -9.61976402890289  5.97562371047105 -0.24455468366837
 1 -8.97690890679068  8.10400113901390  0.69712933473347
 1 -7.54190365616562  7.18040443994400  1.55296368186819
 1 -12.17436154125413  2.80717104310431 -2.59412241694169
 1 -13.33725339453945  1.89474336553655 -1.59976116761676
 1 -12.39073080418042  3.26897555225523 -0.79632087608761
 1 -12.24279905830583 -1.69725917101710 -1.21832678757876
 1 -13.20798951785179 -0.18536527332733 -1.48211373887389
 1 -13.28271462406241 -1.46786147234723 -3.73108299279928
 1 -12.02609617381738 -0.25473001060106 -3.91606510221022
 1 -11.46060233953395 -1.81579644674467 -3.67162578257826
 1 -9.17779738273827 -4.85429617251725 -1.70122338643864
 1 -7.99833919871987 -5.78762876707671 -0.62338195119512
 1 -9.29630951585158 -5.14131915321532  0.17263544094409
 1 -3.49219991589159 -3.58956220692069 -0.11800707220722
 1 -1.58346651315132 -4.29000544024402  3.60678359365937
 1 -2.60855046364636 -5.42319393699370  3.75835867476748
 1 -1.58170628212821 -6.11112038523852  2.60126407930793
 1  2.78835813991399 -1.51493332923292 -1.50856482148215
 1  2.74806228382838  0.14319859945995 -1.98403155535554
 1  4.23023392899290 -1.01480369556956  0.37683089908991
 1  3.99759872337234  1.28145685608561 -2.52435080478048
 1  5.43916932863286  2.37372763166317 -1.98618508670867
 1  5.90702801040104  1.05268637613761 -2.81474020502050
 1  6.72766482938294  1.56760076007601 -0.19160651785179
 1  6.42722684208421  0.15256721932193  0.96761647834784
 1  7.16551393609361 -1.01053028822882 -1.17077840144014
 1  7.69519195509551  0.58786199429943 -1.99507243084308
 1  9.04244629622962  0.94537242224222  0.08328596079608
 1  8.73353184188419 -0.33692919911991  0.85382324602460
 1  10.11368892029203 -0.17633509580958 -1.71934682418242
 1  9.01302628812881 -2.25919389588959 -1.61052697749775
 1  10.84209676537654 -2.48113489738974 -1.60654489838984
 1  10.03698658465847 -2.68937087908791 -0.02504194389439
 1  11.49814749564957  0.68038026822682  0.55944743224323
 1  11.22581563496350 -0.76283224452445  1.01965258685869
 1  12.54835815471547 -1.52702086328633 -1.02086975457546
 1  12.72668642114211  0.16363705470547 -1.52654601590159
 1  13.75820725742574  0.81785434143414  0.33818116111611
 1  13.93936668976898 -1.02786239093909  1.01642815931593
 1  15.17870115861586  0.58360784578458 -1.41135549354936
 1  15.55196263916392 -2.37314760686069 -0.07346880078008
 1  14.84005705640564 -2.06383875947595 -1.54563197829783
 1  16.43609323872387 -1.93420894579458 -1.48740020952095
 1  15.92027722842284  1.40782861656166  0.66198274257426
 1  16.45723017021702 -0.09107828292829  1.42226498769877
 1  18.08955989468947 -0.94033058045805 -0.18787212761276
 1  17.86442350685069  0.72044936383638 -1.21782535833583
 1  18.26233702630263  2.23938809650965  0.82776078137814
 1  18.66497365766577  0.77771195219522  1.62567256755676
 1  20.72521743444344  0.49334548274827 -0.19678261426143
 1  19.86840094669467  3.08122168406841 -0.84847844124412
 1  21.34255850795079  2.26595324812481 -1.56685804910491
 1  19.55930983538354  1.77896970777078 -1.97149411841184
 1  21.38705468066807  1.41503961306131  2.16439605680568
 1  22.22155386168617  1.75259648934893  0.76674164046405
 1  21.09723945384539  2.90231031433143  1.27875831633163

