%nproc=4
%Mem=2GB
# td=(NStates=1) CAM-B3LYP/6-31G(d,p) 

TD

0 1
<<<<<<< HEAD
12 -7.20218079107911  0.60478922702270  0.06419410681068
 6 -4.84252887088709 -1.89482066046605  0.38652518521852
 6 -4.91481141004100  2.94844329162916  1.03353971887189
 6 -9.39776451195119  3.09740523602360 -0.43336619631963
 6 -9.52522283598360 -1.72899841084108 -0.93674010311031
 7 -5.08939236383638  0.48000781888189  0.76364678297830
 6 -4.28929863596360 -0.62663248524852  0.75575359855986
 6 -2.86571557695770 -0.22397182288229  1.15704605880588
 6 -3.06029946834683  1.16094876317632  1.58498922962296
 6 -4.40464745964596  1.61737248604861  1.03613064296430
 6 -2.96055113721372  1.38342063016302  3.10841225012501
 6 -1.88804226522652 -0.52921818321832  0.07078103640364
 6 -0.46870429302930 -0.43105745294529  0.50791492079208
 6  0.53733487068707 -0.66165967886789 -0.51039642014201
 8  0.32569380948095 -1.03387879547955 -1.67015334703470
 8  1.83911572207221 -0.55743313971397 -0.11096788568857
 7 -7.22391283918392  2.66077166696670  0.31526022152215
 6 -6.05252453145315  3.39690066586659  0.72529606320632
 6 -6.56820407350735  4.78182247164716  0.76266695389539
 6 -7.83107581458146  4.86961759325933  0.38538692999300
 6 -8.28647291889189  3.45999519481948  0.14841738803880
 6 -5.58659661636164  5.99614208010801  1.26041080158016
 6 -8.69561735933593  6.03996503020302  0.20629761516152
 6 -8.68059195049505  7.09035515411541  0.97940419021902
 7 -9.16184845744574  0.60989385048505 -0.47792182588259
 6 -9.93143940364036  1.75869582268227 -0.58981530563056
 6 -11.21996109270927  1.47261560066007 -1.16974869436944
 6 -11.36926933083308  0.03831919601960 -1.29633834783478
 6 -10.00391607230723 -0.43729570387039 -0.84498951505151
 6 -12.35323414711471  2.35625619661966 -1.39951672647265
 6 -12.38995354165417 -0.89893730383038 -1.69866067456746
 6 -12.20633812221222 -1.22052446364636 -3.21432655125513
 7 -7.29788925722572 -1.32846245984598 -0.22009668666867
 6 -8.28861910171017 -2.21499667176718 -0.48992394759476
 6 -7.84304044964497 -3.60001826932693 -0.48093537083708
 6 -6.50132401650165 -3.50545488248825 -0.07259899179918
 6 -6.20942353875388 -2.06129441074107  0.07489029322932
 6 -8.55980344774477 -4.88406124852485 -0.62881135953595
 6 -5.25892036233623 -4.23635751925192  0.03737661026103
 8 -5.08508734663466 -5.45298978237824  0.03240027072707
 6 -4.09350292969297 -3.21356714651465  0.50629049434944
 6 -3.48076870777078 -3.49721494279428  1.87302767566757
 8 -3.64453605420542 -2.92653939013901  2.88923160426043
 8 -2.64962615631563 -4.58571329372937  1.74158273917392
 6 -2.07641822972297 -5.17685191429143  2.98572350785079
 6  2.82526503820382 -0.91434922952295 -1.05800700110011
 6  4.15176726572657 -0.75836401270127 -0.46710685968597
 6  5.16983046744674  0.12247851325133 -0.93738351105110
 6  5.11088951195119  1.06774942424242 -2.12482664796480
 6  6.47948228102810  0.17980983118312 -0.15986247144714
 6  7.67922546044604 -0.11344169106911 -1.07964491499150
 6  8.95242711531153 -0.24011914231423 -0.18711052385239
 6  10.27300792529253 -0.63339041074107 -0.83026399689969
 6  10.11099779998000 -2.13985492159216 -1.35267873287329
 6  11.50289316621662 -0.36603038383838 -0.05823495489549
 6  12.79297420512051 -0.52715676677668 -0.80531055395540
 6  13.97238670707071 -0.16277748054805  0.09832690019002
 6  15.41385751065106 -0.16438016711671 -0.51937017681768
 6  15.72073374227423 -1.61465909970997 -0.94617423512351
 6  16.37750185608561  0.40373473347335  0.48098260546055
 6  17.86460104950495  0.57713911231123 -0.09836565116512
 6  18.79524989448945  1.37421563856386  0.77121755475548
 6  20.28889755895590  1.32741307480748  0.26396115931593
 6  20.33367472127213  2.13966226342634 -1.05613660636064
 6  21.27682861366137  1.97567050335033  1.36003136653665
 1 -4.25397688218822  3.71383690509051  1.49220380728073
 1 -10.11091148384839  3.81716255125513 -0.38147353885389
 1 -10.41945523492349 -2.45977531833183 -1.19845649784978
 1 -2.86933339023902 -0.76657497139714  2.03223391459146
 1 -2.22630623582358  1.75691927452745  1.21285193559356
 1 -1.93806826432643  1.13022347524752  3.43486720022002
 1 -3.16971203120312  2.50634469196920  3.25667783318332
 1 -3.62109555225523  0.52859754375437  3.54263667646765
 1 -1.96262874777478 -1.50284024442444 -0.15684959415942
 1 -2.16829850235023  0.07119436983698 -0.70448048764876
 1 -0.17481099849985  0.56963157705771  0.74785518461846
 1 -0.21069887188719 -1.07451196639664  1.25906986218622
 1 -5.85345412081208  6.72965160926093  0.73543925312531
 1 -5.96020300970097  6.10526388948895  2.33401969906991
 1 -4.46487044304430  5.80737190359036  1.30915409100910
 1 -9.60097214971497  5.84992114021402 -0.43950417861786
 1 -9.35830704660466  7.91670240914091  0.97966758855886
 1 -8.00853031883188  7.24482088158816  1.66966535203520
 1 -12.11613571867187  3.11451177717772 -2.29952295699570
 1 -13.35090475967597  1.69824371557156 -1.69157034853485
 1 -12.85297702880288  3.07422607730773 -0.64924616861686
 1 -12.37633241164117 -1.80744018911891 -1.14416937183718
 1 -13.47191591049105 -0.36882361916192 -1.49459498699870
 1 -13.09423577617762 -1.88755344154415 -3.38750863536354
 1 -12.31460502470247 -0.27004154175418 -3.92664616031603
 1 -11.27495377467747 -1.76625149224922 -3.24372299229923
 1 -8.92150175317532 -5.09375011791179 -1.71710497459746
 1 -8.05195456025602 -5.69164916911691 -0.45915552855286
 1 -9.64404428932893 -4.66647166846685 -0.07937976057606
 1 -3.47562825872587 -3.40393364406441 -0.36016128762876
 1 -1.67342550905090 -4.15717215691569  3.39019193449345
 1 -2.79191880048005 -5.53957557515752  3.62372521142114
 1 -1.31963007450745 -5.97926719991999  2.91861581448145
 1  2.49939924402440 -1.93471530743074 -1.58666263126313
 1  2.62514999259926 -0.34621034143414 -1.86882003420342
 1  4.52722362796280 -1.39339155435544  0.39129234523452
 1  4.15426438993899  1.16010472087209 -2.54974334403440
 1  5.44965037673767  1.98486874577458 -1.60011647984798
 1  5.87351465906591  0.78347945544554 -2.88868759975998
 1  6.61675373827383  1.29659365936594  0.22183482628263
 1  6.23659777917792 -0.41115915331533  0.87410712741274
 1  7.59814719941994 -1.10428966416642 -1.42369369296930
 1  7.81564400030003  0.48904211231123 -2.03131605520552
 1  9.15434748634863  0.97812569756976  0.14236186838684
 1  8.78799728842884 -0.90183568976898  0.73392125582558
 1  10.36881443284328 -0.14889235153515 -1.73749863936394
 1  9.55631061656166 -2.24180215671567 -2.36628255305531
 1  11.39542209790979 -2.22022880678068 -1.55840008390839
 1  9.65290817681768 -3.03113505550555 -0.59719915961596
 1  11.50220790169017  0.78218044824482  0.17906939443944
 1  11.52365541894189 -0.90199616091609  0.79037965956596
 1  12.78243156205621 -1.54037219841984 -1.13881154875488
 1  12.70816456895690  0.15322601360136 -1.71182454375438
 1  13.57940937763776  0.66922947894789  0.66120346334633
 1  13.93854660776078 -0.82157176187619  1.03842035853585
 1  15.48928221672167  0.38267775277528 -1.64065842384238
 1  15.75634307720772 -2.15626591869187 -0.03434488838884
 1  14.98990204090409 -2.08011038663866 -1.68472588768877
 1  16.65231486088609 -1.37372289718972 -1.44453592309231
 1  16.10932613331333  1.49781761546155  0.82902944724472
 1  16.49945439263926 -0.40527970307031  1.40535329652965
 1  18.19877081578158 -0.48528507590759 -0.30927426782678
 1  17.65007207170717  0.81301862076208 -1.13242681848185
 1  18.63776456905691  2.38786294399440  1.19485749104911
 1  19.02729989028903  0.68226240724072  1.60757075737574
 1  20.63231814451445  0.38778492669267  0.16723378737874
 1  20.02302640924092  3.21807536943694 -0.91243483688369
 1  21.27923217531753  2.08326497929793 -1.50629199249925
 1  19.72012591699170  1.64935674647465 -1.88128509750975
 1  21.27840381558156  1.28921703080308  2.37046666386639
 1  22.26856856315631  2.17767899759976  0.92318728502850
 1  20.78305803570357  3.02578266156616  1.63904434493449
=======
12 -7.23291386438644  0.63323207130713  0.07952563996400
 6 -4.77593221122112 -1.94568574697470  0.44603113581358
 6 -4.92336226512651  2.80688913621362  1.10166653155316
 6 -9.60086482198220  3.13454895039504 -0.35202806250625
 6 -9.57949826352635 -1.71389690069007 -0.85667209630963
 7 -5.16295972057206  0.45441525962596  0.68403882218222
 6 -4.41530123622362 -0.65717553955396  0.80957898109811
 6 -2.91501050645065 -0.30423984968497  1.14995534973497
 6 -3.10013345174517  1.17004967326733  1.56910764146415
 6 -4.43195018991899  1.54056480528053  1.15100213011301
 6 -3.02471755385539  1.26039832793279  3.11269267816782
 6 -1.93152661366137 -0.55506076747675  0.05817977627763
 6 -0.51456887948795 -0.44182853005301  0.53465759505951
 6  0.51348248544854 -0.58909242214221 -0.64185956645665
 8  0.31809304940494 -1.00707611521152 -1.74725105680568
 8  1.81082289278928 -0.31400879727973 -0.16883367226723
 7 -7.23434388228823  2.63107869766977  0.33037173267327
 6 -6.13815309430943  3.32608358415842  0.77849138273827
 6 -6.47142439553955  4.75066935633563  0.68732942014201
 6 -7.86829953695370  4.77587821932193  0.27759615091509
 6 -8.25210948254826  3.44117331263126  0.03412595889589
 6 -5.53611156785679  5.84728719461946  0.88246300680068
 6 -8.56580437803780  6.01988302200220  0.19866685208521
 6 -8.46539043034304  7.12406852545255  0.84080032983298
 7 -9.18528080068007  0.65493835493549 -0.56807084078408
 6 -10.03524978467847  1.77454740784078 -0.67373369746975
 6 -11.36029512611261  1.43948228732873 -1.12943466296630
 6 -11.39095149904990  0.08195355945595 -1.29169788378838
 6 -10.01359704040404 -0.35261723602360 -0.90154517061706
 6 -12.44370319401940  2.43596416741674 -1.18433520832083
 6 -12.52628717501750 -0.81579898999900 -1.68651946044604
 6 -12.46750423882388 -1.19049146034603 -3.18115323392339
 7 -7.29792926122612 -1.37744735833583 -0.11180585758576
 6 -8.34694493429343 -2.19679485158516 -0.40875583078308
 6 -7.89785593119312 -3.62176044354435 -0.37908518581858
 6 -6.52231611571157 -3.53193753075308  0.00196846494649
 6 -6.25038763516352 -2.16602488378838  0.25165796999700
 6 -8.71376884428443 -4.73922676507651 -0.75848432683268
 6 -5.40852532283228 -4.29458334183418  0.24327720032003
 8 -5.10237907580758 -5.54419890329033  0.18744577527753
 6 -4.12952653205321 -3.31868765856586  0.51218108340834
 6 -3.51921255215522 -3.75568078937894  1.76954732763276
 8 -3.73006460706071 -3.25716245244524  2.86517919901990
 8 -2.55857705140514 -4.66822154455445  1.50580916181618
 6 -1.97320790869087 -5.27943217231723  2.71524646014601
 6  2.89058156985699 -0.61276907150715 -1.11015221562156
 6  4.22846493549355 -0.36181435773577 -0.41021117011701
 6  5.25576906130613  0.26730299569957 -0.89984975767577
 6  5.14740316331633  1.06058870817082 -2.25527969326933
 6  6.52469680248025  0.48296014621462 -0.15539202440244
 6  7.71782932083208 -0.05026537343734 -0.86289323982398
 6  9.10203207580758 -0.07004213461346 -0.08044985778578
 6  10.28288891339134 -0.57739481118112 -0.84901587208721
 6  10.18333503370337 -2.12420335643564 -1.11176464146415
 6  11.61518439533953 -0.31052483328333 -0.02794192559256
 6  12.92822773047305 -0.50577462856286 -0.69078910181018
 6  14.09731920032003 -0.14006520932093  0.31146821432143
 6  15.43893001790179 -0.21494522362236 -0.38949718951895
 6  15.67306897579758 -1.68474610841084 -0.70809042674267
 6  16.58762286818682  0.30004436443644  0.46556106330633
 6  17.87334192359236  0.42918431683168 -0.30028584318432
 6  18.87474784428443  1.23260147714771  0.62917335033503
 6  20.35270393959396  1.31613194669467  0.20645540874087
 6  20.45106646044605  2.13275157235724 -1.17255824852485
 6  21.21933286408641  1.98180111641164  1.27256261966197
 1 -4.18470995549555  3.60419594099410  1.52749733663366
 1 -10.44891528422842  3.89135997099710 -0.33599899139914
 1 -10.31543483288329 -2.41580092089209 -1.11788844104410
 1 -2.63835029192919 -0.80422873677368  2.09731042224222
 1 -2.30615422062206  1.84919850245025  1.16368701910191
 1 -1.92932739023902  0.97948840174017  3.46539025252525
 1 -3.35743080308031  2.21558561606161  3.48814097949795
 1 -3.59631307400740  0.48582326632663  3.53512592539254
 1 -2.08543102800280 -1.69697965836584 -0.33504741394139
 1 -1.98391006350635  0.27192444284428 -0.93409344894489
 1 -0.37880139753975  0.44004861876188  1.00316071517152
 1 -0.08826662866287 -1.11615613081308  1.00063401860186
 1 -5.90075885128513  6.77114575867587  0.42176788598860
 1 -5.47752474187419  6.10166352945295  1.91682797989799
 1 -4.56009996599660  5.47127829422942  0.62977615321532
 1 -9.61837388988899  5.91566771487149 -0.38669889808981
 1 -8.87900911681168  8.03053379227923  0.66388601040104
 1 -7.93115258105811  7.34906130563056  1.73345173067307
 1 -12.24799890499050  3.10346067206721 -1.88435143984398
 1 -13.33773344254425  1.82764665586559 -1.25035622712271
 1 -12.39610134123412  3.20634928962896 -0.39543078707871
 1 -12.46516129452945 -1.82784222932293 -1.27006196109611
 1 -13.33527224612461 -0.11810854765476 -1.63902943044304
 1 -13.11367772037204 -1.92340702690269 -3.65787567206721
 1 -12.30840440464046 -0.37436197379738 -3.89879337503750
 1 -11.53989026832683 -1.89995486258626 -3.31302992299230
 1 -8.75089469246925 -4.85881662456246 -1.96868013211321
 1 -8.08280764556456 -5.66409641384138 -0.34229384238424
 1 -9.64483436833683 -4.45985100640064 -0.29379120172017
 1 -3.35156585248525 -3.54639789048905 -0.30845611711171
 1 -1.56492465896590 -4.49483592329233  3.41898481378138
 1 -2.82138174677468 -5.74310592819282  3.35737857675768
 1 -1.06168427992799 -5.96104537773777  2.56694064696470
 1  2.78896820092009 -1.42510434633463 -1.40764472947295
 1  2.75294277187719  0.11417569716972 -1.95705885808581
 1  4.17491839743974 -0.79709192439244  0.75600881688169
 1  3.99394835833583  0.98646735713571 -2.62309067876788
 1  5.74209962166217  2.10800105900590 -2.35832230043004
 1  5.71235854345434  0.52875398289829 -3.08461719271927
 1  6.76303836673667  1.58762276227623 -0.17559491669167
 1  6.53675779517952  0.28898086068607  0.86829654635464
 1  7.46272365706571 -1.12720195539554 -1.17638896249625
 1  8.02299473537354  0.66703991209121 -1.63071599519952
 1  9.51010306190619  1.05125301030103  0.22662029422942
 1  8.87981647034704 -0.72384789098910  0.95540340404040
 1  10.55745329672967 -0.10791825412541 -1.73731862136214
 1  9.19791477697770 -2.48622659915992 -1.34080000480048
 1  10.91193374907491 -2.37275405930593 -1.76254049794980
 1  10.56791967796780 -2.65754769676968 -0.18880832053205
 1  11.21287896879688  0.81707393759376  0.04902639013901
 1  11.61333438683869 -0.75775173647365  1.06862748434843
 1  13.13933725262526 -1.55898405960596 -1.02441010861086
 1  12.85792954545454 -0.04669397839784 -1.42725608690869
 1  13.91853329002900  0.85517807380738  0.37328467146715
 1  13.84110686378638 -0.76481608630863  1.00946746324632
 1  15.53242653115312  0.36000548554856 -1.27511186918692
 1  15.74036147904791 -2.27011730383038  0.10318886498650
 1  15.14873792449245 -2.06293866946695 -1.43514092919292
 1  16.55992562196220 -1.62232775767577 -1.27715918541854
 1  16.14739994069407  1.28453628732873  0.62741928622862
 1  16.46999144634463 -0.18202737783778  1.36294905610561
 1  18.15193613231323 -0.57376392379238 -0.60904424482448
 1  17.54724178867887  1.01534885378538 -1.25859943574357
 1  18.24220501310131  2.34085824352435  0.64983298859886
 1  18.82785994629463  0.68369255025503  1.67266726702670
 1  20.47627253995400  0.22705885408541 -0.25217815381538
 1  20.05355946254625  3.15346890879088 -0.94831842524252
 1  21.61843609570957  2.16242289508951 -1.36309767306731
 1  19.81525542994300  1.54342615341534 -2.00318728772877
 1  21.24048002320232  1.14910301940194  2.09896951415142
 1  22.28684039033903  2.23246447614762  0.97390235653565
 1  20.74331406130613  2.95867595089509  1.66421686218622
>>>>>>> 8e03b5b5abfc0030b3aa597dc0de36371bfbd096

