%nproc=4
%Mem=3GB
# td=(NStates=1) iop(3/107=0140000000,3/108=0140000000) CAM-B3LYP/6-31G(d,p) 

TD

0 1
12 -7.13031772347235  0.56064444794479  0.16283265326533
 6 -4.87070588708871 -1.89545677627763  0.57573297569757
 6 -4.71020705130513  2.84368308620862  1.12433253845385
 6 -9.37317408190819  3.14668222122212 -0.35608808410841
 6 -9.57619371737174 -1.73711547724773 -0.85917272217222
 7 -5.15154218541854  0.41575766636664  0.85236306030603
 6 -4.33705595289529 -0.67834897809781  0.83179107380738
 6 -2.87337355795580 -0.43807220522052  1.33540921002100
 6 -2.93851707860786  1.02155085668567  1.67956423572357
 6 -4.32002223692369  1.52682733383338  1.10366476037604
 6 -3.02135831663166  1.19198201750175  3.32085740034003
 6 -1.92594832453245 -0.61489747894789  0.21300511081108
 6 -0.52255796499650 -0.29131237923792  0.60391377367737
 6  0.37100902410241 -0.63626024792479 -0.53560335043504
 8  0.17805802260226 -1.06743052075208 -1.64828222132213
 8  1.73032163056306 -0.46357629602960 -0.17360274787479
 7 -7.06092373577358  2.62553576347635  0.44338526262626
 6 -5.93766391019102  3.36745051245125  0.77010288638864
 6 -6.33239814821482  4.75238210181018  0.82282054075408
 6 -7.67513229852985  4.82234403960396  0.38715484188419
 6 -8.08166769426943  3.47766470527053  0.14264226282628
 6 -5.41794382828283  5.93931340504050  1.22182233743374
 6 -8.44780478847885  6.01859212881288  0.06112672517252
 6 -8.44036244624462  7.28562771247125  0.59805386468647
 7 -9.08257729882988  0.76577357175718 -0.47627420132013
 6 -9.83298078437844  1.84933825812581 -0.63900671417142
 6 -11.21183513621362  1.57374681918192 -1.10397525722572
 6 -11.21219070627063  0.17518506430643 -1.24990501880188
 6 -9.89697730133013 -0.30263045644564 -0.84933713501350
 6 -12.29688062576258  2.58478371977198 -1.48597805050505
 6 -12.30107390029003 -0.68490461426143 -1.76795612621262
 6 -12.07647955685569 -1.33592378467847 -3.18324897609761
 7 -7.23420638303830 -1.35217005270527 -0.12664533963396
 6 -8.24519884618462 -2.19456800230023 -0.52551413131313
 6 -7.79083112291229 -3.62969352075208 -0.63714401420142
 6 -6.46978476897690 -3.51694467656766 -0.14442652435244
 6 -6.16649038073807 -2.19187714351435  0.17879971537154
 6 -8.61664400390039 -4.84693079147915 -0.98364174727473
 6 -5.33930939383938 -4.33863742714271  0.23706868096810
 8 -5.24194518681868 -5.52803966096610  0.14298024662466
 6 -4.15451995459546 -3.31548899629963  0.59233755535554
 6 -3.57014119091909 -3.70289823252325  1.85219118761876
 8 -3.67112989638964 -3.20022738063806  2.99599295749575
 8 -2.77424277707771 -4.89259787828783  1.68898793629363
 6 -2.07656661366137 -5.26142134803480  2.82295969636964
 6  2.69364568496850 -0.60395868476848 -1.30693421062106
 6  4.02719360456046 -0.47564283218322 -0.78178074087409
 6  5.07532302360236  0.43611013901390 -1.12185506250625
 6  5.12324605020502  1.23027070237024 -2.40695483048305
 6  6.37596387508751  0.43927454345435 -0.34371489588959
 6  7.61134258685869 -0.26838538653865 -1.02886321502150
 6  8.89107681928193 -0.07432924902490 -0.20881698409841
 6  10.22223768436844 -0.60000166336634 -0.88911463146315
 6  10.03812708930893 -2.04161204110411 -1.31594856085609
 6  11.39008367216722 -0.28605349644964 -0.00437840034003
 6  12.78629636513651 -0.55737577107711 -0.61168867396740
 6  13.95178645044504 -0.27284299859986  0.23487989958996
 6  15.32502849384938 -0.34022310591059 -0.42490814331433
 6  15.64328059905991 -1.77187557585759 -0.79191101740174
 6  16.34790178287829  0.31836835413541  0.48868360306031
 6  17.81514910261026  0.47779150875088 -0.16982350935094
 6  18.77332775137513  1.20854893339334  0.78123137983798
 6  20.16344914931493  1.45770520302030  0.21928863486349
 6  20.19856270207021  2.40734803990399 -1.04487918381838
 6  21.09323439043904  1.99215091499150  1.30231417141714
 1 -3.87816818031803  3.52265551695170  1.46779287508751
 1 -10.10256237953795  3.96642891739174 -0.55183971017102
 1 -10.35868029212921 -2.30683621872187 -1.01210903030303
 1 -2.73874116131613 -1.09621982468247  2.12429892059206
 1 -2.16524999129913  1.52276433753375  1.14032768176818
 1 -1.99663274967497  1.05453455985599  3.82915325272527
 1 -3.56132324142414  2.28084730753075  3.62185020722072
 1 -3.89536233673367  0.46069122342234  3.69072075727573
 1 -2.02503762276228 -1.72345301610161  0.01615360826083
 1 -2.38899526852685 -0.04556693689369 -0.82840957555756
 1 -0.43358878757876  0.94666425372537  0.83411727472747
 1 -0.41227964826483 -0.83445421202120  1.48907236553655
 1 -5.55404958265827  6.76710422242224  0.50673050435043
 1 -5.52587405870587  6.24612749414942  2.09860187268727
 1 -4.38269311391139  5.55194946294629  1.22601333393339
 1 -9.12011227102710  5.97832121412141 -0.94209556225623
 1 -9.21700076377638  8.07601732273227  0.12083185888589
 1 -7.71088902100210  7.63224006040604  1.31991095139514
 1 -11.89417989098910  3.20886003310331 -2.23002883438344
 1 -13.08235553325333  1.89064780718072 -1.75180090829083
 1 -12.32279331203120  3.07136447054706 -0.53412385188519
 1 -12.56422838773877 -1.46366728952895 -1.00340384128413
 1 -13.37592989208921 -0.15124783528353 -1.77604335873587
 1 -12.76331153035304 -2.34233789588959 -3.39561051915192
 1 -12.43457386308631 -0.65241371267127 -3.99470844924492
 1 -11.13613845324532 -1.96837786498650 -3.32070034823482
 1 -8.57911252985298 -4.97985448624862 -2.12653871687169
 1 -7.81656604180418 -5.65150110341034 -0.56455641074107
 1 -9.62426660566057 -4.78993744214421 -0.47490975967597
 1 -3.54978249674967 -3.41250785638564 -0.32164990309031
 1 -1.49971335893589 -4.43220543394339  3.16551826942694
 1 -2.92842928022802 -5.57451697659766  3.51049208690869
 1 -1.37041756225623 -6.10671145594559  2.55382874397440
 1  2.58580663546355 -1.58862548534854 -1.91400284898490
 1  2.64722116341634  0.27909599439944 -2.05238629612961
 1  4.10455094179418 -0.97234564836484  0.00425182538254
 1  4.26594190569057  1.23381892459246 -3.06267675337534
 1  5.32325925812581  2.41685210911091 -2.13094053245324
 1  5.94763433193319  1.10452164306431 -3.07109336623662
 1  6.57267545144514  1.54136411701170 -0.12638302440244
 1  6.19174704680468 -0.10617795449545  0.67598379387939
 1  7.36359848264826 -1.38462913591359 -1.14980973817382
 1  7.71450400890089  0.12552165516552 -1.94902572547255
 1  8.99303534783478  1.03180267776778  0.00714314241424
 1  8.91985510631063 -0.57396574927493  0.89505562896290
 1  10.22813744554455  0.11322747054706 -1.61248640664066
 1  9.28724833393339 -2.18291657515752 -2.15244362626263
 1  10.95928506910691 -2.22449584888489 -1.67667302540254
 1  9.97089928702870 -2.73214732943294 -0.56504389808981
 1  11.35192683428343  0.79888632203220  0.33737150795080
 1  11.23380097559756 -1.01291258885889  0.75283160326033
 1  12.56140409290929 -1.55936335563556 -0.97910018151815
 1  12.89866569646965 -0.18071313531353 -1.56636096979698
 1  13.78872029232923  0.82216758005801  0.57086191489149
 1  13.84753306390639 -0.88529490839084  1.18184055805581
 1  15.15524592599260  0.45804920192019 -1.36368763756376
 1  15.69072286908691 -2.53504284548455  0.03025488998900
 1  14.73819546394639 -2.14452897289729 -1.36276765026503
 1  16.66374465406541 -1.72823372037204 -1.30306681998200
 1  15.86602987648765  1.39664799849985  0.78320423672367
 1  16.55270934873487 -0.12507879267927  1.54841333603360
 1  18.08789552725273 -0.64388090209021 -0.51360155575558
 1  17.48125543514351  0.81324021812181 -1.23323906750675
 1  18.28233729062906  2.27508877687769  0.79484143094309
 1  18.96886284878488  0.79474431393139  1.81026427192719
 1  20.78939877217722  0.34037503510351 -0.14001810961096
 1  19.65425224372437  3.33852462896290 -0.99744192889289
 1  21.20341414221422  2.55384652675268 -1.43678165936594
 1  19.58585698329833  1.99762005220522 -1.91762014641464
 1  21.18909276277628  1.40540618151815  2.12272594139414
 1  22.09910780358036  2.11516198689869  1.05385203880388
 1  20.82448252675267  3.04787090429043  1.66192332903290

