%nproc=4
%Mem=2GB
# td=(NStates=1) CAM-B3LYP/6-31G(d,p) 

TD

0 1
12 -7.12946351935194  0.64426317441744  0.11611929932993
 6 -4.89123374137414 -2.01701287968797  0.59948648134813
 6 -4.80149007790779  2.79504795209521  1.14007037193719
 6 -9.43108784428443  3.13522901840184 -0.32544540424042
 6 -9.59081939563956 -1.71538704970497 -0.81792822192219
 7 -5.05155858045805  0.45474529262926  0.71575199349935
 6 -4.35920562666267 -0.71598142014201  0.78998702190219
 6 -2.85607461286129 -0.41265069076908  1.12066242044204
 6 -2.96585002340234  1.02159482778278  1.66975770647065
 6 -4.35977297219722  1.59683043184318  1.07066409630963
 6 -2.86500158225823  1.31341362946295  3.12982439133913
 6 -1.93389685068507 -0.57621288268827 -0.12311835353535
 6 -0.53771119371937 -0.50780512771277  0.42237636693669
 6  0.55953709090909 -0.85036854975498 -0.66822220272027
 8  0.26156739683968 -1.09870527812781 -1.80363669536954
 8  1.82070388088809 -0.63189058545855 -0.22336912581258
 7 -7.10741118901890  2.74196978677868  0.21623031853185
 6 -6.05926520552055  3.43646462226223  0.65926946054605
 6 -6.35780303340334  4.86443073247325  0.70297098429843
 6 -7.68813152015202  4.90971160266027  0.39048744004400
 6 -8.13904817641764  3.55788498379838  0.06531907820782
 6 -5.33478143484348  5.94056652255226  1.16278103860386
 6 -8.62271006860686  6.02336337003700  0.22325931133113
 6 -8.45410930223022  7.28549466806681  0.80736698649865
 7 -9.17744001660166  0.66248911001100 -0.46441047474747
 6 -9.85262152185219  1.81070102320232 -0.58203452755276
 6 -11.18228732533253  1.48321666076608 -1.08245996549655
 6 -11.23160556445645  0.06405176927693 -1.23193190719072
 6 -9.93144882558256 -0.43695566986699 -0.86643165926593
 6 -12.39387821152115  2.42882345334533 -1.19118589338934
 6 -12.39004355065507 -0.76915432553255 -1.72690349884989
 6 -12.47641512991299 -1.06451886308631 -3.23390850945094
 7 -7.28132760106011 -1.34742435603560 -0.06492116911691
 6 -8.26563680348035 -2.16434160626063 -0.47227218241824
 6 -7.80030617621762 -3.58998726622662 -0.54863214051405
 6 -6.51045492959296 -3.43420775777578 -0.13218495039504
 6 -6.19172176857686 -2.19715799709971  0.14686749094909
 6 -8.64710217761776 -4.82059490189019 -0.70580905930593
 6 -5.44724919521952 -4.40755463896390  0.20097296989699
 8 -5.32354119201920 -5.59968445184518  0.26151318201820
 6 -4.19806338573857 -3.37569335913591  0.56925679097910
 6 -3.62404303520352 -3.69888510981098  1.92370274317432
 8 -3.82549415001500 -3.13990072627263  2.97553023412341
 8 -2.69932112581258 -4.63619834223422  1.68439702060206
 6 -2.13305389328933 -5.28395262436244  2.88630356585659
 6  2.85481799349935 -0.93247104170417 -1.30229142954295
 6  4.15700778977898 -0.67033520982098 -0.60229037803780
 6  5.12137562196220  0.16976324172417 -1.12461223392339
 6  5.04897332033203  0.99438208750875 -2.29530369566957
 6  6.34929926272627  0.30546239643964 -0.29083556875688
 6  7.73792133003300 -0.13386373327333 -1.16149309980998
 6  9.00737260986099 -0.19422455285529 -0.20942275507551
 6  10.24855548004800 -0.54549162086209 -0.93162413291329
 6  10.14708140834083 -2.04813574967497 -1.28336180118012
 6  11.46120899779978 -0.33207698849885 -0.05047417881788
 6  12.85486039373937 -0.49770382148215 -0.71484150705071
 6  13.99612908130813  0.01279007620762  0.11298836633663
 6  15.45150127502750 -0.12940666976698 -0.43531177097710
 6  15.75353702260226 -1.69992762656266 -0.67874749244925
 6  16.40293439933993  0.47047140714071  0.51473598079808
 6  17.77057164656465  0.61573297169717 -0.11035685028503
 6  18.84417478697870  1.32950116711671  0.82400283328333
 6  20.22247091629163  1.47442777627763  0.34256902010201
 6  20.30905225902590  2.27604590179018 -1.02425341804180
 6  21.19519044984499  2.10693362966297  1.43521888528853
 1 -4.13497498199820  3.60597611901190  1.57236182308231
 1 -10.31725211791179  3.82384321932193 -0.23813920542054
 1 -10.17031032043204 -2.34297363816382 -1.47768442064206
 1 -2.61124758165817 -1.32185049894990  1.75223591479148
 1 -2.20697430263026  1.59848343094309  1.02231288168817
 1 -1.87003146064606  0.74294474737474  3.50943465696570
 1 -2.68569362936294  2.54467852535254  3.30849301470147
 1 -3.96191963466347  0.90083476747675  3.61061347414741
 1 -1.93220570547055 -1.64845480588059 -0.33051696089609
 1 -2.02771444394439  0.14426167656766 -0.95141518111811
 1 -0.22960647804780  0.64361897579758  0.73876427552755
 1 -0.53536133813381 -1.15202971817182  1.35960991619162
 1 -5.69152792819282  6.86878552265226  0.68391410061006
 1 -5.17388437783778  5.95278864196420  2.22646894399440
 1 -4.36531048704871  5.51282244864486  0.92383555915591
 1 -9.60979303180318  5.91942809090909 -0.29347957615762
 1 -8.99061027692769  8.26232697159716  0.54175379717972
 1 -7.45800526632663  7.50359675917592  1.38044643014301
 1 -12.25798990409041  3.28872919891989 -1.94146715141514
 1 -13.49663933313331  1.95730962216222 -1.64838603010301
 1 -12.74628635973598  2.84948360306031 -0.20273151715172
 1 -12.52900767916792 -1.63653309840984 -1.14428938383838
 1 -13.22413113201320 -0.09290602740274 -1.39504503200320
 1 -13.37047339993999 -1.78997368356836 -3.32118200270027
 1 -12.56033959815982 -0.06609114671467 -3.80850434613461
 1 -11.58753503280328 -1.67824269136914 -3.37047566756676
 1 -8.94591419441944 -4.76023676657666 -1.68000126422642
 1 -7.93875324012401 -5.72202220642064 -0.72238185118512
 1 -9.35126501140114 -4.76370139143914  0.06348452585259
 1 -3.34123481938194 -3.64259751045104 -0.16184145564556
 1 -1.45625379187919 -4.67408384808481  3.61189410471047
 1 -2.95334494309431 -5.50774239183918  3.54280711961196
 1 -1.52111022252225 -6.31175044824482  2.60161411431143
 1  2.65990529462946 -1.94798663456346 -1.57426139113911
 1  2.72286976457646 -0.24962068246825 -2.14046719891989
 1  4.33337424302430 -1.33991620682068  0.11657487348735
 1  3.98996796029603  0.81594030443044 -3.04422279197920
 1  4.97773318501850  2.03406366526653 -1.96096256445645
 1  6.09288659625963  0.85102621012101 -2.87933666466647
 1  6.65778784168417  1.30292429242924  0.09678232103210
 1  6.46987110651065 -0.59693773117312  0.56661637833783
 1  7.50349773447345 -1.08013724892489 -1.71554287788779
 1  7.82927536343634  0.62420562866287 -1.84008693229323
 1  8.96603865546555  0.88326621162116  0.27471510371037
 1  8.75165365406541 -0.75372087828783  0.56333419711971
 1  10.24727227862786  0.15614815251525 -1.88137302680268
 1  9.34221920742074 -2.48279625612561 -1.90885681048105
 1  11.13019557525753 -2.46600338423842 -1.61372561646165
 1  9.79148203420342 -2.62649459145915 -0.38749818951895
 1  11.28310599149915  0.79090132033203  0.14274576207621
 1  11.39965301870187 -0.92188815011501  0.93792441404140
 1  12.95969928882888 -1.63926208740874 -1.02012968056806
 1  12.73584733723372  0.09581027202720 -1.71676503780378
 1  13.71170260696070  0.98402095809581  0.38420576357636
 1  13.90870362346235 -0.50829043374337  1.04810132663266
 1  15.47970125862586  0.56132561756176 -1.46060041804180
 1  15.89251669456946 -2.17986827892789  0.19481802790279
 1  15.15858890959096 -2.15432780838084 -1.48325574067407
 1  16.90097972737274 -1.60737626252625 -1.16512798229823
 1  15.97734293499350  1.39222705640564  0.88695523982398
 1  16.35530997819782 -0.12531170627063  1.41069383058306
 1  18.29513045174517 -0.26034258165817 -0.40759409980998
 1  17.43582064656466  1.20661798069807 -0.92119569536954
 1  18.29153994659466  2.33512767046705  1.15622362766277
 1  18.87790495079508  1.01975615661566  1.79809981028103
 1  20.58104301700170  0.53853000120012  0.06192325632563
 1  19.88727283388339  3.22697625952595 -0.74586818021802
 1  21.30818507060706  2.41005765856586 -1.25931729502950
 1  19.84054795919592  1.81969378017802 -1.92354932393239
 1  21.20465644084409  1.58487659675968  2.19108872607261
 1  22.08623032933293  1.91428265796580  0.98508347464747
 1  21.00734046394640  3.11617170047005  1.77773821432143

