%nproc=4
%Mem=2GB
# td=(NStates=1) CAM-B3LYP/6-31G(d,p) 

TD

0 1
12 -7.10965153815382  0.57080582868287  0.07451513891389
 6 -4.86915153315331 -1.93004418281828  0.58783531623162
 6 -4.88523845274528  2.80517896519652  1.18058442334233
 6 -9.48035277077708  3.17881337683768 -0.30158301800180
 6 -9.51545185888589 -1.71526703770377 -0.95590201930193
 7 -5.13117654225423  0.45819563766377  0.82625304360436
 6 -4.39444915101510 -0.66790661266127  0.87546556975698
 6 -2.84326333173317 -0.37376680238024  1.39267962216222
 6 -3.09357279567957  1.06814948324832  1.78739947064706
 6 -4.39115611051105  1.52313306210621  1.15355238513851
 6 -3.15450053215322  1.08335062316232  3.35217662656266
 6 -1.91392485348535 -0.49674493589359  0.18374233253325
 6 -0.53370079267927 -0.23387773497350  0.59963409270927
 6  0.47070820802080 -0.53868738163816 -0.52873825432543
 8  0.24519575967597 -0.91961736933693 -1.62503883558356
 8  1.91697350785079 -0.55938333473347 -0.07692448134813
 7 -7.14832528042804  2.55702129192919  0.38570726622662
 6 -6.11268054705471  3.36987796359636  0.77818135173517
 6 -6.44363161626163  4.71001529092909  0.77477816501650
 6 -7.78293100010001  4.89236986848685  0.35606399769977
 6 -8.26419069066907  3.49974917021702  0.11933447974797
 6 -5.52373032973297  5.85128759465947  1.07052181268127
 6 -8.57304510211021  6.08285931963196  0.01709869526953
 6 -8.48929282058206  7.20865698429843  0.65420166996700
 7 -9.07570984358436  0.75767862896290 -0.62663669736974
 6 -9.94461072077208  1.81353130623062 -0.56779310341034
 6 -11.19136823342334  1.46039437853785 -1.09708142764276
 6 -11.13198560246025  0.08287365146515 -1.40031874587459
 6 -9.82344802550255 -0.35744771907191 -0.96897191329133
 6 -12.36684550825082  2.41934250525053 -1.37485426022602
 6 -12.25951049734974 -0.86370378047805 -1.87628843734373
 6 -12.08467595599560 -1.22966537773777 -3.43101822042204
 7 -7.25725519381938 -1.46958657225723 -0.08033271027103
 6 -8.32169240904090 -2.24611978407841 -0.58845380058006
 6 -7.88102424802480 -3.58426669416942 -0.50446772407241
 6 -6.53890777487749 -3.52970730773077 -0.18474020592059
 6 -6.19303189958996 -2.22071035233523  0.11240404460446
 6 -8.72726019341934 -4.77949079147915 -0.79619809820982
 6 -5.39901437173717 -4.30950483398340  0.21385425802580
 8 -5.20245908380838 -5.56763124652465  0.32128915961596
 6 -4.15779935933593 -3.30717650745074  0.62069193449345
 6 -3.48786941784178 -3.76043126442644  1.89187956085609
 8 -3.62754435503550 -3.19463619981998  3.03061574267427
 8 -2.68210940464046 -4.73383810621062  1.71402998389839
 6 -2.21137172507251 -5.34441867096710  2.87937287278728
 6  2.78350086178618 -0.57027482208221 -1.15930713111311
 6  4.21641373037304 -0.30347852415242 -0.60371052005201
 6  5.11219470387039  0.42976924232423 -1.08006777947795
 6  5.04763318631863  1.17381003030303 -2.37777194249425
 6  6.51410574337434  0.48871072127213 -0.31427791299130
 6  7.60855839373937 -0.11773212011201 -1.03378032853285
 6  9.00362223482348 -0.17597272767277 -0.16636844964496
 6  10.23162378687869 -0.70104717641764 -0.98348931943194
 6  10.14355105530553 -2.07762869896990 -1.28314177917792
 6  11.38080095699570 -0.31739552035204 -0.11235036643664
 6  12.78028293599360 -0.55826987808781 -0.75294531743174
 6  13.89824929332933  0.04401319851985  0.12461952945295
 6  15.28614473937394 -0.17794152325233 -0.49572781258126
 6  15.62456412531253 -1.64112174597460 -0.69898951665167
 6  16.45927003290329  0.36040040004000  0.39917442464246
 6  17.82802739213921  0.51928332673267 -0.24840065466547
 6  18.84197456695670  1.25655387238724  0.65567600060006
 6  20.28239690889089  1.30200053355336  0.20742550575057
 6  20.47984933873387  2.16013431063106 -1.06385737843784
 6  21.14254518531853  1.86304924122412  1.30916628002800
 1 -4.18194967946795  3.56258177957796  1.54272885978598
 1 -10.15698609130913  4.12808364336434 -0.40129552105211
 1 -10.16631992139214 -2.41977131793179 -1.42406905910591
 1 -2.50601705860586 -0.78889720362036  2.24941563276328
 1 -2.37452105730573  1.87574115671567  1.46549720012001
 1 -1.97848230573057  1.04153460636064  3.65375908940894
 1 -3.39418447844784  2.07620167766777  3.86205837123712
 1 -4.01085452815282  0.47573225722572  3.74995740854085
 1 -1.91839432433243 -1.48651861226123 -0.34670858005801
 1 -2.04114578707871  0.25697294769477 -0.55983602320232
 1 -0.30853437083708  0.98934354825483  1.00047044614461
 1 -0.11997979998000 -0.78874338953895  1.56967092229223
 1 -5.79237801320132  6.97862650675067  0.62799850905091
 1 -5.51558854825482  6.25521888498850  2.11897819491949
 1 -4.56160011601160  5.58929009540954  0.94739791539154
 1 -9.40593264576458  6.05582173027303 -0.71524175237524
 1 -9.27840905680568  7.87884862376238  0.44725434723472
 1 -7.86966643244324  7.40653705320532  1.58130651615162
 1 -12.08818292339234  3.09943026902690 -2.25326833153315
 1 -13.27958762796280  1.88856274747475 -1.72825401690169
 1 -12.49954168526853  3.09423807850785 -0.38125936993699
 1 -12.18556333473347 -1.71668111321132 -1.13502845774577
 1 -13.18647736663666 -0.43526026282628 -1.69454498199820
 1 -12.79261561416142 -2.07573225942594 -4.01362124662466
 1 -12.30067363156316 -0.22309684728473 -3.90057355305531
 1 -10.93804008330833 -1.75109997709771 -3.49104772477248
 1 -9.09785938893890 -4.92706344924493 -1.75126839093909
 1 -8.20199956475648 -5.74428443264326 -0.52839245224522
 1 -9.47997788268827 -4.89624464576458 -0.09567138973897
 1 -3.36663735963596 -3.42607585828583 -0.36851212271227
 1 -1.79719788628863 -4.74232067176718  3.45941885718572
 1 -2.90126973557356 -5.78595021262126  3.59566240514051
 1 -1.48128624012401 -6.15076434963496  2.70059401230123
 1  2.79902920702070 -1.56997883378338 -1.41429539453945
 1  2.61687916551655 -0.03367908830883 -2.09606275847585
 1  4.54536544214421 -1.03325554075408  0.31899511551155
 1  3.94744370787079  1.08360707110711 -2.39790816051605
 1  5.54352976467647  2.22572283118312 -2.43262973117312
 1  5.56776408400840  0.54627573507351 -3.27187591859186
 1  6.81860392329233  1.62857685768577 -0.09586694389439
 1  6.41035515491549 -0.04520255765577  0.57170688738874
 1  7.45506289098910 -1.20989022422242 -1.37071839543954
 1  7.93297573347335  0.33024623272327 -1.99663258685869
 1  9.38922097369737  0.87454533953395  0.15922355455546
 1  8.76799528822882 -0.67166267246725  0.82339020272027
 1  10.27200475187519  0.04753729142914 -1.74081897139714
 1  9.19389437493749 -2.55653362986299 -1.71436736153615
 1  10.92425498119812 -2.52312909680968 -1.97289153305331
 1  10.31071395739574 -2.63850579257926 -0.28674811451145
 1  11.14754243514351  0.93878610881088  0.23423491099110
 1  11.20242329572957 -1.01735769706971  0.83164378597860
 1  13.06750006890689 -1.70889905110511 -0.74499216681668
 1  12.78057180968097 -0.08155746474647 -1.70615397669767
 1  13.67437887458746  1.00737329332933  0.41882922592259
 1  13.99543229632963 -0.52937254195420  1.07385390189019
 1  15.35491878037804  0.31518100310031 -1.29451380938094
 1  15.63343078597860 -2.13922421452145  0.27805635173517
 1  14.81193424412441 -2.01928430403040 -1.32993040814081
 1  16.50238986838684 -1.70219574447445 -1.14705617511751
 1  16.15559075977598  1.43044087778778  0.53784032833283
 1  16.61904635183518 -0.13551272637264  1.28537129832983
 1  18.34513545224522 -0.47579412681268 -0.44975831623162
 1  17.98873593809381  1.17020433933393 -1.21697527332733
 1  18.58222901550155  2.28897305500550  0.72626063136314
 1  19.05859301960196  0.76952113311331  1.54769476977698
 1  20.76605151785179  0.25509165736574  0.01862892689269
 1  20.03501760836084  3.30791435333533 -0.85197879127913
 1  21.63240749284929  2.31876852965296 -1.06407777107711
 1  19.94784868926893  1.72443425422542 -1.92780974997500
 1  21.19206518171817  1.30053816291629  2.34662427962796
 1  22.24123582988299  1.97470870057006  0.86423138943894
 1  20.74361409130913  2.82083216651665  1.67786822732273

