%nproc=4
%Mem=2GB
# td=(NStates=1) CAM-B3LYP/6-31G(d,p) 

TD

0 1
12 -7.20447102010201  0.61404015211521  0.08014570197020
 6 -4.80986560456046 -2.04680585898590  0.64390092279228
 6 -4.77523745264527  2.81110955825583  1.07251361626163
 6 -9.32520725622562  3.08456395189519 -0.33919677937794
 6 -9.45578589228923 -1.75071058205821 -0.96619304840484
 7 -5.04375780038004  0.46564638273827  0.72243266156616
 6 -4.34504421052105 -0.72260208220822  0.88388641184118
 6 -2.91995100050005 -0.42499192489249  1.27824817901790
 6 -3.03413685208521  1.07769043734373  1.65144587528753
 6 -4.31379837473747  1.48964971377138  1.10635766566657
 6 -3.19908499059906  1.27686997509751  3.27061847074707
 6 -1.89740320132013 -0.63554881628163  0.22458641694169
 6 -0.39710713331333 -0.50010435763576  0.53669779907991
 6  0.52595373257326 -0.74129764266427 -0.63886926742674
 8  0.28475971607161 -1.19661506910691 -1.67901423312331
 8  1.78217002750275 -0.28876627302730 -0.22506929582958
 7 -7.14585503340334  2.48662425222522  0.36297499299930
 6 -6.06742602160216  3.27860883668367  0.71935546914691
 6 -6.39883713681368  4.77163145254525  0.79659034623462
 6 -7.73717642464246  4.75788642014201  0.37690608190819
 6 -8.13179745134514  3.50510970627063  0.14987753405341
 6 -5.49424738143814  5.91377384328433  1.16153091359136
 6 -8.54708250585058  6.00280131383138  0.14408139353935
 6 -8.57185107640764  7.16082220082008  0.78987523732373
 7 -9.16007828042804  0.70229309040904 -0.53360739443944
 6 -9.85191145084508  1.76098605170517 -0.68896522062206
 6 -11.20425952255225  1.45752409150915 -1.20149186868687
 6 -11.24752715661566  0.17006237033703 -1.32710142414241
 6 -9.93034871557156 -0.41996397069707 -0.97952296839684
 6 -12.15006383008301  2.61401197219722 -1.68257503230323
 6 -12.45478002430243 -0.71981939203920 -1.84474528302830
 6 -12.43635112351235 -1.13104551575158 -3.44446956555656
 7 -7.18580804910491 -1.33226283988399 -0.12627730473047
 6 -8.23440368016802 -2.23405857795780 -0.62977793299330
 6 -7.76147229282928 -3.58412668016802 -0.61870914821482
 6 -6.50841472557256 -3.52227656465647 -0.16451818371837
 6 -6.15525812221222 -2.18064634593459  0.18504130833083
 6 -8.65195266266627 -4.81454429682968 -0.84096257465747
 6 -5.37081155145515 -4.33796768026803  0.13901677427743
 8 -5.23889272717272 -5.65412989638964  0.17984501520152
 6 -4.24038761816182 -3.41698748854885  0.62674253955396
 6 -3.61242187308731 -3.68059328062806  1.97015738863886
 8 -3.84443604420442 -3.09327606380638  3.05498817991799
 8 -2.82789398309831 -4.80548527092709  1.85619420032003
 6 -2.30246083398340 -5.24966919601960  3.09543447894790
 6  2.83125563726373 -0.57924571917192 -1.13123432383238
 6  4.12103419241924 -0.28525670197020 -0.41446159515952
 6  5.17093057745774  0.38157442284228 -0.85752552525253
 6  5.11287971097110  1.25621827112711 -2.08764292959296
 6  6.42088642144214  0.42595444564456 -0.06562304750475
 6  7.71884942284228  0.05517517061706 -0.84173112361236
 6  8.96387826042604 -0.27562269266927  0.00941912911291
 6  10.19886051055106 -0.58663573527353 -0.82216318681868
 6  10.07939463966397 -2.06325726182618 -1.27091055605561
 6  11.50010288718872 -0.20048382918292  0.03512438103810
 6  12.85553046074607 -0.44932898399840 -0.69784980788079
 6  13.95072454085408  0.00331912911291  0.15374244174417
 6  15.27741386628663 -0.11098482758276 -0.53633187298730
 6  15.63589525842584 -1.52910054385439 -0.99746936463646
 6  16.46419052495250  0.38625298529853  0.43545805300530
 6  17.85170976037604  0.53752515091509 -0.32461827642764
 6  18.78200857035704  1.24271248824882  0.64822525552555
 6  20.27982665186519  1.33315364886489  0.09749451265127
 6  20.45272662646265  2.07398569576958 -1.25112610531053
 6  21.32627355815582  1.90333326962696  1.14718008140814
 1 -3.99828131263126  3.69817533893389  1.36902148904890
 1 -9.97539793249325  4.07022785778578 -0.52408780028003
 1 -10.33682697209721 -2.39144848564856 -1.24770142234224
 1 -2.54603106000600 -1.04938325222522  2.15407609880988
 1 -2.10005361056106  1.82503608620862  1.54628527892789
 1 -1.89174363186319  1.19391984488449  3.43660737423742
 1 -3.51708676867687  2.22383644114411  3.56002816821682
 1 -3.87277071977198  0.48539322332233  3.78779119191919
 1 -1.93818630353035 -1.65285524592459 -0.21880578977898
 1 -2.21544321682168  0.00091734213421 -0.69783982358236
 1 -0.19396291369137  0.66267088098810  0.90884128322832
 1 -0.01064886688669 -1.04239875507551  1.36382033723372
 1 -5.86381515691569  6.98094673877388  0.94516022522252
 1 -5.40316730613061  5.85634899799980  2.33811010811081
 1 -4.43588754475448  5.89321048744874  0.70195337093709
 1 -9.06334838733873  6.04610075817582 -0.77719794799480
 1 -9.19499071497150  7.85001574047405  0.52813243504350
 1 -8.07533699949995  7.19085548504851  1.72002038753875
 1 -11.87148125322532  2.84266459245925 -2.56255926062606
 1 -13.10404007320732  1.94136802800280 -1.86127731923192
 1 -12.37431916301630  3.37514616931693 -0.91522276627663
 1 -12.38747352575258 -1.69544898999900 -1.31135609050905
 1 -13.27365608450845 -0.33086982378238 -1.65730125762576
 1 -13.27839419201920 -1.71559624582458 -3.88808869336934
 1 -12.45045861006101 -0.34483902150215 -4.03889738543854
 1 -11.53711999129913 -1.82013688078808 -3.60599921992199
 1 -9.10010961396140 -4.86849759265927 -1.76700996509651
 1 -8.13721308610861 -5.78970897509751 -0.86722633563356
 1 -9.51753163806381 -5.04670969226923 -0.32948477107711
 1 -3.40020071597160 -3.54547779847985 -0.25657092859286
 1 -1.78984715121512 -4.46147258695870  3.58703161846185
 1 -3.25345495409541 -5.43238485608561  3.74015685458546
 1 -1.62464057555756 -6.15675494869487  2.81915586848685
 1  2.67436674077408 -1.67475931183118 -1.33144710971097
 1  2.64919239683968  0.08095237483748 -1.99657280948095
 1  4.25816672227223 -0.85554776997700  0.48939215521552
 1  4.00400936443644  1.18860757115712 -2.45889425912591
 1  5.51447685938594  2.22636289518952 -1.96853332153215
 1  5.72866017361736  0.81299240674067 -3.00902963396340
 1  6.48047010991099  1.47234123412341  0.47339998279828
 1  6.26379049844985 -0.43407144454445  0.69341905860586
 1  7.55964334903490 -0.90235947114711 -1.32637396099610
 1  7.94068650455046  0.65547875597560 -1.70371329492949
 1  8.97189924152415  0.58774665966597  0.50196782898290
 1  8.82247073577358 -0.97361286748675  0.68808667236724
 1  10.02449000040004  0.32754529222922 -1.69940482998300
 1  9.21302628812881 -2.61792976947695 -1.88757468226823
 1  10.87174973067307 -2.49374615851585 -1.94548879277928
 1  10.25462834883488 -2.53568551055106 -0.16347578727873
 1  11.43718139903990  0.74680691089109  0.54525601310131
 1  11.49435248864887 -1.07371333263326  0.94778540014001
 1  13.05193851275128 -1.47192535373537 -1.04209187678768
 1  12.57660141264126  0.09251994299430 -1.71472483378338
 1  13.76541797849785  0.98716127212721  0.64864220722072
 1  13.98205095819582 -0.57688729342934  1.04972148864887
 1  15.35031832033203  0.49559904490449 -1.39706406440644
 1  15.55193263616362 -2.28225851795180 -0.05194664856486
 1  14.84621767246725 -1.81080345594559 -1.60134754985499
 1  16.60971060046005 -1.65596112101210 -1.66842831233123
 1  16.31803700440044  1.23923175687569  1.01204774907491
 1  16.60225467266726 -0.51698087318732  1.11715447664766
 1  18.26282722142214 -0.51228777617762 -0.66735007540754
 1  17.87653471797180  1.09075639453945 -1.38955253105311
 1  18.32507329992999  2.19393355105511  0.96327433273327
 1  18.77357451775178  0.95942012301230  1.74098409870987
 1  20.62428734143414  0.32578872707271 -0.03066600260026
 1  20.25460956755676  2.87263082498250 -1.15256885028503
 1  21.54027827992799  2.15380203300330 -1.70794215751575
 1  19.94467837223722  1.56434824562456 -2.03824079307931
 1  21.36878285348535  1.38779688878888  2.17627724492449
 1  22.41884359065907  2.09577080678068  0.99947491379138
 1  20.92539226912691  2.84653473677368  1.40949138963896

