%nproc=4
%Mem=2GB
# td=(NStates=1) CAM-B3LYP/6-31G(d,p) 

TD

0 1
12 -7.12198277127713  0.58609735783578  0.16759444684468
 6 -4.82726734473447 -1.99599077747775  0.59381591429143
 6 -4.80043997289729  2.83664211151115  1.16623298819882
 6 -9.35906064156416  3.13177867336734 -0.47026988668867
 6 -9.45932624632463 -1.65717122812281 -0.90694712381238
 7 -5.13512693729373  0.48231804990499  0.79503992229223
 6 -4.41252095819582 -0.70794061606161  0.77381540474047
 6 -2.95308431383138 -0.34904433013301  1.06738709290929
 6 -3.04509794819482  1.13221588988899  1.68861959265927
 6 -4.37498449334933  1.56652740154015  1.10646767666767
 6 -2.84151923402340  1.30336262436244  3.19230063896390
 6 -2.04174763576358 -0.68079334073407  0.03932789108911
 6 -0.48918634123412 -0.56148049524952  0.54217834713471
 6  0.44959609680968 -0.75162867576758 -0.68310369086909
 8  0.15095633573357 -1.20389579717972 -1.77922425412541
 8  1.72472428292829 -0.49423682008201 -0.22363915281528
 7 -7.05352580048005  2.69341493129313  0.30893958945895
 6 -6.07490676967697  3.35762673847385  0.85735926952695
 6 -6.38863611671167  4.78655294469447  0.80616130333033
 6 -7.63647635463546  4.89800043154315  0.30302869416942
 6 -8.03875814741474  3.50785998129813  0.04415696199620
 6 -5.39143710041004  5.92230469636964  1.17705246574657
 6 -8.42379017661766  6.01440247394739  0.07709469486949
 6 -8.43537742904291  7.17907402600260  0.74268051785179
 7 -9.01287355995600  0.71527438853885 -0.68056208990899
 6 -9.77595385508551  1.84785473857386 -0.68295461956196
 6 -11.18959805640564  1.40426876597660 -1.05616733623362
 6 -11.16873927782778  0.04228959305931 -1.25236395039504
 6 -9.81101678237824 -0.40788276257626 -1.01010602670267
 6 -12.29920874457446  2.43370394139414 -1.32377915271527
 6 -12.30927547384739 -0.78647605770577 -1.61664247274727
 6 -12.22240972937294 -1.16690910211021 -3.10214533313331
 7 -7.11369083738374 -1.34086369997000 -0.14857953495350
 6 -8.19961020082008 -2.23610878297830 -0.50163511871187
 6 -7.82690883648365 -3.54224249174918 -0.58214549184918
 6 -6.50052393649365 -3.51121545854586 -0.07276900880088
 6 -6.12113470987099 -2.22457073837384  0.08120092429243
 6 -8.56992445984598 -4.71064390679068 -0.92061053945395
 6 -5.33502797309731 -4.36336021952195  0.28257112971297
 8 -5.06599543744374 -5.49005348874887  0.12745977667767
 6 -4.21466504590459 -3.25841163096310  0.61366123142314
 6 -3.55479611051105 -3.69495471677168  1.92267264016402
 8 -3.61368296889689 -3.09057579377938  2.94521720282028
 8 -2.69236042974297 -4.80956567896790  1.72507108800880
 6 -2.22078266616662 -5.22251648074807  2.91062599809981
 6  2.76526903860386 -0.82046984158416 -1.18585978637864
 6  4.02578466746675 -0.47099527582758 -0.61014116311631
 6  5.04786827122712  0.39934620002000 -0.91652142484248
 6  4.90093851685169  1.20160280958096 -2.25221938723872
 6  6.35615994879488  0.35432728292829 -0.16743322852285
 6  7.57464500240024 -0.17188753565357 -1.04891184168417
 6  8.76057793039304 -0.21738686908691 -0.19576138893889
 6  10.21720234473447 -0.61945901760176 -0.91752272277228
 6  10.05282198239824 -2.11313224932493 -1.33202666766677
 6  11.31288416531653 -0.42276605740574  0.07558842744274
 6  12.77765267296730 -0.40777482858286 -0.74343436633663
 6  13.81901136953695 -0.01163236603660  0.19815688318832
 6  15.25642176707671 -0.06806053515352 -0.40868910871087
 6  15.62419408830883 -1.49946758055806 -0.86174579227923
 6  16.40905501140114  0.42991735173517  0.46945145234523
 6  17.79892448184818  0.56653805220522 -0.21339715431543
 6  18.79766013551355  1.45856407340734  0.80347078007801
 6  20.19989865906591  1.41693202670267  0.22679744294429
 6  20.34684603840384  1.95660395759576 -1.08961995469547
 6  21.17126805760576  2.01718465476548  1.35598096149615
 1 -4.18815029952995  3.54018954035404  1.71947653455346
 1 -10.06621701440144  3.97036787178718 -0.55023041454145
 1 -10.03509679907991 -2.38883822462246 -1.21467812001200
 1 -2.86392284918492 -1.05241355525553  2.07401809300930
 1 -2.24826843204320  1.75098868146815  1.10813146354635
 1 -1.80533499099910  0.91947240014001  3.62406612011201
 1 -3.16262132213221  2.28882293979398  3.65658782418242
 1 -3.62484592729273  0.47027171117112  3.82871528432843
 1 -2.17922040694069 -1.73747370777078 -0.25180909010901
 1 -2.18869054155416 -0.00490323992399 -0.66157619721972
 1 -0.34102762016202  0.43793840774077  0.95525592469247
 1 -0.41154895689569 -1.31055557075708  1.38623257845785
 1 -5.70982975837584  6.76859550365037  0.55023073227323
 1 -5.57575456485649  6.36074943804380  2.19175547264726
 1 -4.45179913591359  5.54133529992999  0.97390056565657
 1 -9.13552560506051  5.86769291739174 -0.78722895109511
 1 -9.32490370627063  7.85001574047405  0.67294691649165
 1 -7.76004547034703  7.42703910341034  1.61234962046205
 1 -11.98592269736974  3.00916124212421 -2.05394839953995
 1 -13.17167683688369  1.90491438263826 -1.55487667916792
 1 -12.59791152225223  3.02620127482748 -0.27463870787079
 1 -12.31908668706871 -1.62404184928493 -1.01540649554955
 1 -13.36673539243924 -0.38533527032703 -1.28166369386939
 1 -12.95390174277428 -2.02507719391939 -3.21178106260626
 1 -12.18971253545355 -0.32766730433043 -3.83620711641164
 1 -11.24976125542554 -1.59577444454445 -3.29163778377838
 1 -8.75139474247425 -4.76539728262826 -1.84818808290829
 1 -8.38374773957396 -5.90501050525052 -0.57027664066407
 1 -9.66314619951995 -4.61518653995400 -0.29879170177018
 1 -3.34625532143214 -3.29220247094709 -0.13120839233923
 1 -1.66634480098010 -4.40622706240624  3.52057497279728
 1 -3.10229983858386 -5.79892150975098  3.39841268016802
 1 -1.39794790629063 -5.83555282848285  2.72426637953795
 1  2.79202850695070 -1.87244908080808 -1.45424938993899
 1  2.61314879247925 -0.28518423882388 -2.11696484868487
 1  4.21083198879888 -1.05478769396940  0.33719693569357
 1  3.77012597609761  1.22778148854885 -2.60432880258026
 1  5.30595600730073  2.25698595749575 -2.34932140034003
 1  5.54351165876588  0.86140724822482 -3.14363309430943
 1  6.49425148804880  1.61798579857986  0.00248289108911
 1  6.27382150155016  0.00308227082708  0.83019273597360
 1  7.03369075377538 -1.22375161036104 -1.40813213681368
 1  7.89857229312931  0.49001220932093 -1.99578250185019
 1  9.02892494409441  0.69930781578158  0.10917855005501
 1  8.54116260496050 -0.96922242844284  0.65157302100210
 1  10.21259881128113 -0.01658912121212 -1.70733562306231
 1  9.16394137963796 -2.23717169366937 -1.93399932473247
 1  11.08770132583258 -2.50661744564456 -1.96360060396040
 1  9.86955984198420 -2.78093003500350 -0.40809024872487
 1  11.39365704660466  0.64594682488249  0.27428891639164
 1  11.48411146454646 -0.94234019531953  0.82412303390339
 1  12.75049836873687 -1.41872003320332 -0.83134080168017
 1  12.63545729822982  0.29960065106511 -1.57087044834483
 1  13.65036647334733  0.90964352035204  0.72865020802080
 1  13.56148890199020 -0.85240484518452  1.06571308780878
 1  15.06615990449045  0.59711919691969 -1.31561591959196
 1  15.48323576647665 -2.30281057315732 -0.03055450935093
 1  14.89518256895690 -1.76698907450745 -1.75760317541754
 1  16.64563419281928 -1.59481500640064 -1.20282175167517
 1  15.98915411611161  1.41684951865187  0.77840438473847
 1  16.51518596579658 -0.16693586868687  1.34675743694369
 1  18.05595653435343 -0.26087263466347 -0.62367570797080
 1  17.72732979747975  1.16810412931293 -1.17872144794479
 1  18.33837463006300  2.47705186288629  0.60664867016702
 1  19.03652081238124  0.92409659065907  1.75963596389639
 1  20.53848876157616  0.34963111131113  0.31188825282528
 1  19.93056716331633  2.94860842274227 -1.10519411281128
 1  21.47984223632363  2.07905455825583 -1.24300566386639
 1  20.15722962736274  1.22663447424742 -1.90434740374037
 1  20.92861883708371  1.67189529862986  2.45998561576158
 1  22.34189589588959  1.74304553425343  1.18575354165417
 1  20.96704643454346  3.04133421672167  1.41713215371537

