%nproc=4
%Mem=2GB
# td=(NStates=1) CAM-B3LYP/6-31G(d,p) 

TD

0 1
12 -7.14227480048005  0.53108185628563  0.19451713911391
 6 -4.78248286628663 -1.94642582098210  0.47707424012401
 6 -4.80359028792879  2.81934038133813  1.23768013291329
 6 -9.37974270977098  3.12320781628163 -0.46296915661566
 6 -9.51653196689669 -1.71305681668167 -1.00119654875488
 7 -5.11617504210421  0.38942876097610  0.71828224652465
 6 -4.34189389548955 -0.70868069006901  0.74646266946695
 6 -2.92675168056806 -0.42641206690669  1.25565591979198
 6 -3.03927736613661  1.05494816311631  1.77892862356236
 6 -4.40467746264626  1.53937468626863  1.14577160706071
 6 -2.99154423652365  1.21377366546655  3.28989039793979
 6 -1.80016347734773 -0.60818608000800  0.15669962826283
 6 -0.35284270687069 -0.64660900810081  0.50537466676668
 6  0.56123726092609 -0.86239975287529 -0.51899728022802
 8  0.20654189428943 -1.13328873647365 -1.69131546324632
 8  1.83140495099510 -0.56590398679868 -0.14532132103210
 7 -7.17952840074007  2.57552314211421  0.30688938443844
 6 -6.14239351835184  3.31399237503750  0.77931146474647
 6 -6.41753900700070  4.80022431183118  0.70996168336834
 6 -7.75299800680068  4.84312494399440  0.32282067336734
 6 -8.10162443404340  3.47387658295830  0.03221576787679
 6 -5.48268622532253  5.86848931483148  1.25557031753175
 6 -8.47000479807981  6.10296132983298  0.08793577897790
 6 -8.43312720402040  7.26120223882388  0.75335158495850
 7 -9.15827810041004  0.67896075717572 -0.54702873657366
 6 -9.85779203890389  1.81160111321132 -0.68646497059706
 6 -11.14425352195219  1.44482282138214 -1.23126484598460
 6 -11.24345674957496  0.10879624372437 -1.26596531053105
 6 -9.88116379707971 -0.38961093539354 -0.90485550165016
 6 -12.16480530423042  2.52254282528253 -1.45527230203020
 6 -12.38854340064006 -0.66910432053205 -1.86091690019002
 6 -12.34273176157616 -1.02167457865787 -3.35137025562556
 7 -7.19306877517752 -1.44724433803380 -0.14746942394239
 6 -8.26982722252225 -2.27159233133313 -0.56639159435944
 6 -7.83972011761176 -3.58826709420942 -0.49262653995400
 6 -6.50167405150515 -3.55787012401240 -0.08019975187519
 6 -6.13225582198220 -2.21559984128413  0.12500530473047
 6 -8.72105957335734 -4.83141598399840 -0.81943042144214
 6 -5.37504197449745 -4.34697858135814  0.22627550015001
 8 -5.13565240314031 -5.53249773317332  0.25057208790879
 6 -4.14353793319332 -3.27374316411641  0.53732359765977
 6 -3.46716734763476 -3.67415263656366  1.86040641354135
 8 -3.66358795939594 -3.15135187138714  3.00845352645265
 8 -2.61174236793679 -4.70521524392439  1.70480906180618
 6 -2.12959354725473 -5.31861609070907  3.00151508700870
 6  2.78626113781378 -0.80030782538254 -1.25237643804380
 6  4.09247133613361 -0.45930410671067 -0.59418956795680
 6  5.07570105450545  0.38108437383738 -0.94662443514351
 6  4.94753317631763  1.24946759605961 -2.22785695099510
 6  6.34320865366537  0.43855570577058 -0.19775626082608
 6  7.59997753565357  0.02788244134413 -0.94582153265327
 6  8.84073594619462 -0.02445757615762 -0.11306311911191
 6  10.21800242474247 -0.41529860156016 -0.86387735823582
 6  10.09577627782778 -1.95733666976698 -1.19644310931093
 6  11.43040591749175 -0.10650443124312 -0.00837996939694
 6  12.71537644534453 -0.26756080718072 -0.69878990189019
 6  13.90474994339434  0.05612440964096  0.17132419991999
 6  15.37069319421942 -0.06735046414641 -0.51456969676968
 6  15.60243191209121 -1.61511914571457 -0.76815643334333
 6  16.36488059395939  0.53693805380538  0.44651915911591
 6  17.72561715111511  0.43563496189619 -0.18288410301030
 6  18.78350872037204  1.20713893089309  0.76550698369837
 6  20.33644231343134  1.22372270577058  0.13956872007201
 6  20.26674802860286  1.87337563476348 -1.18076906960696
 6  21.19671060186019  1.81686462276228  1.12977834123412
 1 -4.03353483798380  3.65668118951895  1.41503609050905
 1 -9.95684607730773  4.00380121512151 -0.65120051155116
 1 -10.38080136953695 -2.46024536533653 -1.12979963216322
 1 -2.67083354025403 -1.15014332823282  1.98791948314831
 1 -2.44173777897790  1.96490007260726  1.54553520392039
 1 -2.16302075957596  0.79001945484548  3.73995770927093
 1 -3.18102316231623  2.26551060856086  3.48367053245325
 1 -3.82684612731273  0.76353103710371  3.75504791759176
 1 -1.74621710661066 -1.72041200160016 -0.17169107830783
 1 -1.85490716321632  0.04957220762076 -0.83593363296330
 1 -0.22506602400240  0.34349896379638  0.94527492659266
 1 -0.19451725372537 -1.33026754195420  1.47973192839284
 1 -5.45852462786279  6.83155179927993  0.53426913611361
 1 -6.02293928332833  6.33718708180818  2.16102239933993
 1 -4.46223017901790  5.43914508090809  1.32620579617962
 1 -9.40145219771977  6.17222337043704 -0.69433966216622
 1 -9.11902311821182  8.13726446534653  0.36186580838084
 1 -7.50653011881188  7.41836823632363  1.48924731023102
 1 -11.97685179027903  3.13238356435644 -2.24257726242624
 1 -13.14875454465446  1.99306319751975 -1.88563975547555
 1 -12.32575430653065  3.04053270797080 -0.81592283628363
 1 -12.71751653005301 -1.44886433153315 -1.29331428632863
 1 -13.32574129302930 -0.09613635043504 -1.65270079757976
 1 -13.25018137073707 -1.40618530473047 -3.77687757225723
 1 -12.04158772297230 -0.07575211281128 -3.75682917861786
 1 -11.51602788208821 -1.64072893999400 -3.72496111611161
 1 -9.24586418941894 -5.04500524342434 -1.81495475957596
 1 -8.14010337513751 -5.59233923812381 -0.37541715471547
 1 -9.57988787368737 -4.71549657095710 -0.07335915851585
 1 -3.29696039193919 -3.56082933363336 -0.20482575407541
 1 -1.61240940744074 -4.46624306400640  3.70204311961196
 1 -2.86199580818082 -5.88943056065607  3.35089792869287
 1 -1.05436354785479 -5.83122239543954  2.78182213511351
 1  2.66982628672867 -1.90810264616462 -1.25981994699470
 1  2.49775725332533 -0.23976969736974 -2.09955310751075
 1  4.30901180678068 -1.08233044824482  0.14364758075808
 1  3.91585054855486  1.08624733513351 -2.65634400410041
 1  5.15317072877288  2.43699395829583 -1.81767823602360
 1  5.80251755935593  0.78433954145415 -2.97387611861186
 1  6.65853791669167  1.63980798079808  0.25419806260626
 1  6.18340245964596 -0.19097713511351  0.65892560926093
 1  7.47621500620062 -1.02744197939794 -1.44379570317032
 1  7.74257669356936  0.51184439253925 -1.83812673627363
 1  8.78728077967797  1.00296818181818  0.27911554375438
 1  8.68254674337434 -0.53033854005401  0.89679754345435
 1  10.12300985238524  0.03694623232323 -1.84363925342534
 1  9.32664765026503 -2.20919889638964 -1.81015694049405
 1  10.95206776247625 -2.42866965086509 -1.71880612451245
 1  10.09587247324733 -2.53717565956596 -0.23847328702870
 1  11.28959664056406  0.82486471667167  0.33228471597160
 1  11.22237529092909 -0.73751971327133  0.85649627122712
 1  12.87773109200920 -1.19576773797380 -0.95745341294129
 1  12.80483423592359  0.33682437343734 -1.74962832413241
 1  13.85342677937794  1.11889444544454  0.51526886988699
 1  13.78629138223822 -0.56621622632263  1.14865138163816
 1  15.14035732423242  0.37707719271927 -1.53377773577358
 1  15.77296473937394 -2.11672196429643  0.19473801990199
 1  14.78165121582158 -1.99430180578058 -1.42334975007501
 1  16.56068569796980 -1.60218574347435 -1.44054552405241
 1  16.08206340704070  1.66117395109511  0.76217276157616
 1  16.28655310251025 -0.32658183328333  1.30772353355336
 1  18.10922186088609 -0.56668321572157 -0.16939027942794
 1  17.69533659815982  1.00512783168317 -1.06536011181118
 1  18.69189998259826  2.23639779747975  0.94518252355236
 1  18.82792995329533  0.62572675367537  1.71524152445245
 1  20.46539145184519  0.18561470967097 -0.02296523252325
 1  19.62460656725672  2.83525708760876 -1.42880647404740
 1  21.33992824492449  2.23764041684168 -1.54006536983698
 1  19.83979788418842  1.41111292209221 -2.00968793779378
 1  21.00908688388839  1.57919602870287  2.45037465466547
 1  22.28561026732673  1.68420965066507  0.88917388368837
 1  21.15788551845185  3.04010409370937  1.02662310281028

