%nproc=4
%Mem=3GB
# td=(NStates=1) iop(3/107=0140000000,3/108=0140000000) CAM-B3LYP/6-31G(d,p) 

TD

0 1
12 -7.17711240294029  0.61293967746775  0.03232960296030
 6 -4.84526334283428 -1.97418464906491  0.47865326772677
 6 -4.80266629722972  2.74564328222822  1.08538864406441
 6 -9.39375614011401  3.12426997999800 -0.31584405970597
 6 -9.57017311531153 -1.66284805050505 -0.76519332423242
 7 -5.08888591979198  0.34427051765177  0.70878870287029
 6 -4.35540778807881 -0.73897504070407  0.74456235093509
 6 -2.96740296089609 -0.45442384038404  1.25235090419042
 6 -3.06239946684668  0.98170687228723  1.70849712901290
 6 -4.40021025572557  1.39020367146715  1.12383677757776
 6 -3.00584676547655  1.11484430373037  3.15163047764776
 6 -2.00371610131013 -0.62128811801180 -0.06024221392139
 6 -0.52114782398240 -0.46315956395640  0.45613899619962
 6  0.49013093629363 -0.59402602450245 -0.73068285838584
 8  0.27897811461146 -0.78799257695770 -1.86455384848485
 8  1.83922252065207 -0.43520345874587 -0.21539692729273
 7 -7.13939158255826  2.59045225512551  0.31478240234023
 6 -6.05791593539354  3.29682344974497  0.80274615071507
 6 -6.30170507890789  4.75865272887289  0.69047730643064
 6 -7.68531331663166  4.83502530773077  0.30933706010601
 6 -8.05139466696670  3.49082602140214  0.03082108070807
 6 -5.31743377727773  5.88488796249625  1.00063021822182
 6 -8.54339434743474  6.05986625622562  0.17335794829483
 6 -8.37590600060006  7.29237838753875  0.72071613091309
 7 -9.18759780088009  0.68256525092509 -0.42838941284128
 6 -9.96704419071907  1.84698802310231 -0.50099291279128
 6 -11.27684163686369  1.52634207870787 -0.97517237693769
 6 -11.33050253745374  0.15756330213021 -1.14818484678468
 6 -10.06684428802880 -0.35416560996100 -0.72103430473047
 6 -12.27505844354435  2.59707494889489 -1.43636308900890
 6 -12.54134792769277 -0.70597672147215 -1.63463279387939
 6 -12.44933684258426 -1.05795598789879 -3.16646729792979
 7 -7.23497646004600 -1.36350118581858 -0.20050272537254
 6 -8.27314164046405 -2.13099164466447 -0.43632521242124
 6 -7.87606964676468 -3.59949050045005 -0.44826512631263
 6 -6.54928271877188 -3.60344332643264 -0.01590367206721
 6 -6.24210794249425 -2.23570152595260  0.09482131753175
 6 -8.89378171767177 -4.60710680908091 -0.86067945104510
 6 -5.39816527942794 -4.40367393079308  0.25632060616062
 8 -5.21671266356636 -5.58556541354135  0.30017596619662
 6 -4.23768827142714 -3.33050049744975  0.56923524512451
 6 -3.53189736653665 -3.69202714541454  1.80643661216122
 8 -3.64783756715672 -3.17048440634063  2.93498685688569
 8 -2.70217557035704 -4.73783240174017  1.64760379787979
 6 -2.02697165416542 -5.28491369726973  2.84020142054205
 6  2.91880820122012 -0.75893418231823 -1.24262777997800
 6  4.31293217841784 -0.55272053995400 -0.57362992579258
 6  5.24236972827283  0.25257178517852 -0.97627050405041
 6  5.19303302890289  1.09359703500350 -2.25134926992699
 6  6.46821310001000  0.25082569856986 -0.22115263966397
 6  7.74039549214921 -0.23415196319632 -1.02553288198820
 6  8.95399311091109 -0.05899771587159 -0.16893299569957
 6  10.22862832343234 -0.56725838903890 -0.99630535053505
 6  10.24414769136914 -2.16178405830583 -1.22803976997700
 6  11.43410807460746 -0.30286517761776 -0.02526048854885
 6  12.84418215371537 -0.53357339083908 -0.79183668876888
 6  14.01971324312431 -0.16594230853085  0.16034244584458
 6  15.28188417941794 -0.10597968156816 -0.45735138763876
 6  15.81935820682068 -1.57245563386339 -0.84937676397640
 6  16.42789978267827  0.47638415571557  0.51686642134213
 6  17.75262284998500  0.54332806240624 -0.11471799879988
 6  18.74850526912691  1.34913299179918  0.80769402610261
 6  20.16065887028703  1.31925135763576  0.32088879487949
 6  20.39322216801680  2.18804610971097 -0.98952364826483
 6  21.12184725172517  2.07688938883888  1.35877981798180
 1 -4.00305066856686  3.50607385878588  1.68727482328233
 1 -10.20861298459846  3.82644491899190 -0.42734726092609
 1 -10.21932635673567 -2.47451298639864 -1.17392521192119
 1 -2.67705499269927 -1.12859306200620  2.07069356005601
 1 -2.23569703600360  1.74588664976498  1.04215786478648
 1 -1.93136622302230  0.87944705110511  3.67961829922992
 1 -3.33384049314932  2.11659088188819  3.59399742194219
 1 -3.65075787628763  0.43527868216822  3.74752643784378
 1 -2.17907302630263 -1.53890456125613 -0.50874888198820
 1 -2.31765813481348  0.04029164896490 -0.84292102670267
 1 -0.21642707140714  0.44604419171917  0.91836569956996
 1 -0.38766718701870 -1.27419818641864  1.12062552085209
 1 -5.62270644834483  6.71612912491249  0.33442327362736
 1 -5.52254372567257  6.24186706810681  2.04649666216622
 1 -4.23322816741674  5.69663393139314  0.75101583418342
 1 -9.27920818061806  6.02574595659566 -0.66577793049305
 1 -9.07865692939294  8.06518623962396  0.34394417011701
 1 -7.49601753385338  7.73195003140314  1.37317627792779
 1 -11.92881335433543  2.99724887198720 -2.40510634213421
 1 -13.18961625932593  2.04894363676368 -1.56300202840284
 1 -12.44831586428643  3.59217655175518 -0.81509194869487
 1 -12.49074103900390 -1.59776069886989 -1.15862936383638
 1 -13.31609390849085  0.17290457995800 -1.47817357175718
 1 -13.36379157835784 -1.89253291539154 -3.28023898199820
 1 -12.16967737343734 -0.04138260956096 -3.73481245964597
 1 -11.45247008640864 -1.75063609080908 -3.24860313851385
 1 -9.06955157375737 -4.56100260106011 -1.98041410441044
 1 -8.45514990019002 -5.48679463276328 -0.55604555965597
 1 -10.03770794979498 -4.50516896529653 -0.39888215691569
 1 -3.63913143164316 -3.47407401300130 -0.36112385048505
 1 -1.28071145874587 -4.67988020142014  3.43512523012301
 1 -2.73245968326833 -5.65824534943494  3.70599163686369
 1 -1.45801632213221 -6.27897868266827  2.47320068116812
 1  2.68835689048905 -1.63911053385339 -1.58495994469447
 1  2.70300674197420 -0.19800171537154 -2.08915997349735
 1  4.22094258095810 -1.13281169496950  0.31931333153315
 1  4.13060837233723  1.10659620232023 -2.56380686638664
 1  5.60371730393039  2.22662308620862 -2.13468090649065
 1  5.87911748024803  0.66747793869387 -3.05940219711971
 1  6.50570875477548  1.18710869146915  0.12098171207121
 1  6.50603847594759 -0.48596593329333  0.55447164266427
 1  7.56547867066707 -1.32485315831583 -1.15114987218722
 1  7.83401596009601  0.23180228322832 -2.11767259015902
 1  9.11203724802480  0.86814631213121  0.35701812991299
 1  9.00143326412641 -0.61967031973197  0.78340446384638
 1  10.05680031183118 -0.14305815801580 -1.82849800780078
 1  9.31574118321832 -2.39172745624562 -1.73240162206221
 1  11.10984012461246 -2.43670707000700 -2.01151650975098
 1  10.42809500660066 -2.68378249294930 -0.29715710941094
 1  11.51950359195919  0.69145557895790  0.29687745854586
 1  11.24167176267627 -0.88053935153515  1.01952827292729
 1  12.85874382688269 -1.56102352165216 -1.09533180468047
 1  12.96848267816782  0.13461839783978 -1.66136046974697
 1  13.70795221552155  0.90144550785079  0.82124695339534
 1  14.06406471707171 -0.71210758965897  1.08530090409041
 1  15.36637703910391  0.44486788378838 -1.32289355815582
 1  15.66789058585859 -2.34817415861586 -0.12840097559756
 1  14.98360000440044 -1.80357487748775 -1.57789916341634
 1  16.70423870347035 -1.47868876587659 -1.52988950225023
 1  15.90244351785178  1.35519385308531  1.04791070737074
 1  16.42877695549555 -0.13463974877488  1.26218471317132
 1  17.85462219991999 -0.57680419441944 -0.07967816341634
 1  17.72579988958896  1.17298619271927 -1.09572531613161
 1  18.32547160406041  2.40244151215122  1.01065301210121
 1  18.53462942544255  0.87331217071707  1.70814405990599
 1  20.46130596289629  0.47344834243424  0.22865875807581
 1  20.12922974147415  3.18502927942794 -0.77580976567657
 1  21.40698449924993  2.14466560866087 -1.07932591379138
 1  19.76498489608961  1.76301659185919 -1.82034041844184
 1  21.18637249074908  1.63177881878188  2.35352902170217
 1  22.22552044484448  1.87994846554655  0.72834948854885
 1  20.94483456195620  2.91301741894189  1.71384852155215

