%nproc=4
%Mem=2GB
# td=(NStates=1) CAM-B3LYP/6-31G(d,p) 

TD

0 1
<<<<<<< HEAD
12 -7.15352592559256  0.54753350145015  0.12594028142814
 6 -4.88041265926593 -1.94441561996200  0.59524605730573
 6 -4.85158508740874  2.82787123442344  1.24686105100510
 6 -9.32049678517852  3.08252374787479 -0.40389324902490
 6 -9.54776509020902 -1.87005251625163 -0.89628605770577
 7 -5.11828525312531  0.39309912801280  0.69383980228023
 6 -4.28445815191519 -0.67573739573957  0.79107713091309
 6 -2.91999100450045 -0.33639306500650  1.22917327152715
 6 -3.06940037843784  1.11463413171317  1.68257898859886
 6 -4.37893488838884  1.49700044884488  1.21265829572957
 6 -2.77283236533653  1.30664295239524  3.26424783368337
 6 -2.00050351135114 -0.50730599199920 -0.01474751645165
 6 -0.46157357995800 -0.46828117531753  0.38550267956796
 6  0.54712584978498 -0.59766327922792 -0.70879626012601
 8  0.16632787288729 -0.99810521812181 -1.82134846654665
 8  1.78278008850885 -0.39752714911491 -0.27522431133113
 7 -7.06666711461146  2.58918450825082  0.26591528702870
 6 -6.02951223022302  3.39872084788479  0.77866139973997
 6 -6.37302455555556  4.74742903230323  0.79320000720072
 6 -7.71331403840384  4.84780541204120  0.44283267456746
 6 -8.11716598819882  3.46087528282828  0.08880142644264
 6 -5.54705266196620  5.90750321622162  1.32353711421142
 6 -8.56585438303830  6.04811584528453  0.24961194659466
 6 -8.63287717901790  7.10564668326833  1.02663891369137
 7 -9.08050032263226  0.60416327742774 -0.60008404210421
 6 -9.73943020272027  1.80963091619162 -0.72893921802180
 6 -11.13983307990799  1.49650798989899 -1.15883760326033
 6 -11.18851125502550  0.01297666176618 -1.31097981198120
 6 -9.83872955365536 -0.41427340164016 -0.87204222032203
 6 -12.29561838553855  2.43713428442844 -1.48745552035204
 6 -12.31034558085809 -0.78458586868687 -1.86457726622662
 6 -12.15604309270927 -1.17656006720672 -3.25131024962496
 7 -7.23750321862186 -1.39083869746975 -0.13876855385539
 6 -8.24152439223922 -2.21876704880488 -0.47836279147915
 6 -7.80070621622162 -3.72549081658166 -0.49835711301130
 6 -6.50531441554155 -3.56081041804180 -0.08229996189619
 6 -6.17233983038304 -2.12066034733473  0.14109691389139
 6 -8.64505197259726 -4.91798464086409 -0.72098057645765
 6 -5.27202167246725 -4.32860674417442  0.29359223182318
 8 -5.15790462836284 -5.55552003540354  0.39064609530953
 6 -4.13854743414341 -3.30313610341034  0.55022488778878
 6 -3.55981661256126 -3.57430265156516  2.01606197909791
 8 -3.74109571017102 -2.97869460566057  3.05591827292729
 8 -2.74805599929993 -4.61606632903290  1.79518809970997
 6 -2.30118070597060 -5.16407063616362  3.12181711721172
 6  2.79225173687369 -0.65077287188719 -1.25441664206421
 6  4.14686677567757 -0.46253442974297 -0.69629977897790
 6  5.12353583798380  0.38179444484448 -1.11060083278328
 6  5.05673409640964  1.13864651395140 -2.52611677697770
 6  6.44033836663666  0.47925977617762 -0.46302278747875
 6  7.64357189508951 -0.19592993989399 -1.14809175967597
 6  8.94976684928493  0.03098796839684 -0.32572438523852
 6  10.21164178867887 -0.59363643534353 -0.92597356785679
 6  9.91988868906891 -1.98649958605861 -1.34013747874787
 6  11.39839271617162 -0.31310509130913 -0.08430756215622
 6  12.72476738443844 -0.51169522062206 -0.78578860176018
 6  13.91133060146015 -0.15210641344134  0.12312938043804
 6  15.37223334823482 -0.18076180528053 -0.50250849064906
 6  15.68162983188319 -1.62406003980398 -0.82021163886389
 6  16.55340944684469  0.37012137213721  0.49206371357136
 6  17.86543113251325  0.53835523392339 -0.18063387798780
 6  18.76693706320632  1.27179539653965  0.79768020102010
 6  20.20240891009101  1.34110444394439  0.39057382058206
 6  20.38073942774277  2.03693199039904 -0.92866385908591
 6  20.95916684748475  1.88531146744674  1.53979934333433
 1 -4.10242172667267  3.44880040144014  1.56879146604660
 1 -10.02929332203220  3.83963479847985 -0.41255664716472
 1 -10.26105939533953 -2.64139348014802 -1.36854350655066
 1 -2.48025448234823 -1.11518983288329  1.87411810301030
 1 -2.13022662786279  1.61943552615262  1.19124977537754
 1 -1.77687214471447  1.06320677357736  3.65482919641964
 1 -2.88786384638464  2.39886394389439  3.39467163256326
 1 -3.74910835353535  0.93320800480048  3.74256666946695
 1 -2.43349583448345 -1.41733169356936 -0.41481539073907
 1 -2.28906057855786  0.41648889928993 -0.64166420602060
 1 -0.10299381678168  0.33813842774277  0.86107650675067
 1 -0.31723952595260 -1.31910642584258  1.09291324652465
 1 -6.01230000540054  6.81344998909891  0.82265797499750
 1 -5.55961295069507  5.93498686178618  2.45720201730173
 1 -4.35897985398540  5.58007917431743  0.98964213981398
 1 -9.06145819831983  6.20926707480748 -0.89947017521752
 1 -9.47771898779878  7.64941568046805  0.83683330513051
 1 -8.18723818961896  7.11426782628263  1.95380376587659
 1 -11.91635574067407  3.17370769676968 -2.27824082878288
 1 -13.10417008620862  1.90886477767777 -2.03142433393339
 1 -12.60157188828883  2.94903355805581 -0.51992323632363
 1 -12.11303608200820 -1.64751419651965 -1.15899085398540
 1 -13.17090580948095  0.06383964716472 -1.97139266676668
 1 -12.99180553315331 -1.78119280548055 -3.38347823232323
 1 -12.43747731193119 -0.19744428202820 -3.87097059275928
 1 -11.22384866416642 -1.69032389948995 -3.59330795079508
 1 -9.01715131813181 -4.95438618151815 -1.85806907100710
 1 -7.91764112891289 -5.83366337053705 -0.61631124412441
 1 -9.43748363326333 -5.27712273357336 -0.02555437803780
 1 -3.44264496039604 -3.54723797449745 -0.18990426192619
 1 -1.72627079357936 -4.58237467716772  3.59380229552955
 1 -3.16331594019402 -5.39241085868587  3.75063790269027
 1 -1.65081319281928 -5.92080135333533  2.85862981588159
 1  2.67546685078508 -1.63927576347635 -1.76116008100810
 1  2.58217569516952 -0.21059678007801 -2.36229938213821
 1  4.34128503410341 -1.03173538873887  0.09439265526553
 1  3.95821478497850  1.50717942834283 -2.79705807550755
 1  5.54463987568757  1.99333959285929 -2.57793426162616
 1  5.50521782938294  0.42703381088109 -3.22117084808481
 1  6.77564962786279  1.58500250025002 -0.19981733893389
 1  6.43836795619562  0.16435839843984  0.49965968266827
 1  7.37748513321332 -1.23371260646065 -1.28143946754675
 1  7.73679611551155  0.25095830393039 -1.99521244484448
 1  8.98869092069207  1.10358824382438 -0.18140050785078
 1  8.83078156685669 -0.48166367256726  0.58442630633063
 1  10.39573712511251 -0.04364182648265 -1.96769165866587
 1  8.98856384188419 -2.08863684018402 -1.91181710651065
 1  10.54313686938694 -2.34508129202920 -2.18467271117112
 1  10.06801968796880 -2.61329327132713 -0.52122156185619
 1  11.32970065096510  0.68405063526353  0.19034052155216
 1  11.36325937933793 -1.00714667596760  0.71970259185919
 1  13.02006532543254 -1.68273643484348 -0.79840750835084
 1  12.69397314981498  0.31321201220122 -1.60145350665067
 1  13.70385182188219  0.95406796279628  0.47512485548555
 1  13.82977573067307 -0.78889849454946  0.93992050855085
 1  15.39362265076508  0.46406589158916 -1.36115047304730
 1  15.95760320322032 -2.23295358745875  0.08874742084208
 1  14.83116616731673 -2.24824720032003 -1.24390180528053
 1  16.65237486688669 -1.85566109100910 -1.42309377887789
 1  16.01660686138614  1.28656649034904  0.78074461876188
 1  16.56818126532653 -0.19326850195020  1.48853161436144
 1  18.24891583028303 -0.38466501390139 -0.50103344374437
 1  17.64058112261226  1.18960627952795 -1.09202277807781
 1  18.46480727332733  2.23676783448345  0.90161816711671
 1  18.69362652295230  0.84350853185319  1.83337333763376
 1  20.54083899659966  0.37840398859886  0.23357042104210
 1  20.00324443104310  3.21400496239624 -0.77663125652565
 1  21.38452270437044  2.01811846464647 -1.27871923522352
 1  19.62476638103811  1.70125193599360 -1.68697566656666
 1  20.92990896609661  1.13264137323732  2.42028164536454
 1  22.14393609990999  2.07765899559956  1.26430139643964
 1  20.65001473137314  2.79739982328233  1.91154159465947
=======
12 -7.14801537453745  0.60661941004100  0.13339102650265
 6 -4.88352297029703 -1.94700587898790  0.49886641934193
 6 -4.78851878077808  2.82440088738874  1.11156752165217
 6 -9.35106984248425  3.19187468296830 -0.46484934463446
 6 -9.51660197389739 -1.69571508250825 -0.89190561966197
 7 -5.03787721232123  0.43094291239124  0.71036145444544
 6 -4.33803350945095 -0.73363318531853  0.84961298449845
 6 -2.83012201760176 -0.39417884358436  1.28935929012901
 6 -3.08417185558556  1.00614328262826  1.72824355505551
 6 -4.31631862676268  1.53714446324632  1.15738276817682
 6 -2.85972105420542  1.16649893799380  3.27071848074807
 6 -1.89488294929493 -0.65002026342634  0.12712667096710
 6 -0.38474589718972 -0.43382772997300  0.60081421072107
 6  0.51601273847385 -0.76038955185519 -0.55642102260226
 8  0.22037327742774 -1.20030543814381 -1.59817614931493
 8  1.83605541604160 -0.38373576997700 -0.19129591849185
 7 -7.13643409130913  2.56475206500650  0.28155685118512
 6 -6.09706898589859  3.28734971077108  0.77798133173317
 6 -6.42642989608961  4.78179246864686  0.81239192639264
 6 -7.69336204320432  4.83011364286429  0.35004339563956
 6 -8.14782905450545  3.49158835413541  0.07206975327533
 6 -5.37296525322532  5.79661212711271  1.25873063356336
 6 -8.52949074667467  6.05617665136514  0.17845483088309
 6 -8.50691458275828  7.19790590919092  0.85165141494149
 7 -9.07229950255025  0.74941780288029 -0.55181921562156
 6 -9.88333459315932  1.85985593869387 -0.76744306840684
 6 -11.21851094769477  1.50379871897190 -1.29862158165817
 6 -11.17043944784478  0.16738210231023 -1.40525923992399
 6 -9.96553223392339 -0.35092706700670 -0.90959597569757
 6 -12.24655347904790  2.48627919891989 -1.44833160796080
 6 -12.30675522182218 -0.71532894299430 -1.78303911241124
 6 -12.18676616501650 -1.17662007320732 -3.35828094669467
 7 -7.20088955725573 -1.34525413901390 -0.18632330933093
 6 -8.29736997679768 -2.21159633173317 -0.53329828502850
 6 -7.81469761536154 -3.59292756025603 -0.47432470977098
 6 -6.53657754185419 -3.56522085908591 -0.04901663356336
 6 -6.11660425682568 -2.20286856815682  0.03963676787679
 6 -8.60401786918692 -4.83735657805781 -0.84709318771877
 6 -5.35785025532553 -4.34022790629063  0.19606247884788
 8 -5.15858469636964 -5.57443192659266  0.07980501120112
 6 -4.24545812521252 -3.38592438223822  0.61320118541854
 6 -3.61098172907291 -3.75666088738874  1.97989836273627
 8 -3.88557015761576 -3.24337107330733  3.10957363846385
 8 -2.78266946064606 -4.68789351175117  1.87778635953595
 6 -2.11382197009701 -5.03582781188119  3.11360629612961
 6  2.82784529622962 -0.79278707330733 -1.23190439083908
 6  4.16388847784778 -0.43971214751475 -0.59634978397840
 6  5.06436992139214  0.38620488588859 -1.08093786648665
 6  4.85767419041904  1.22399504880488 -2.36892105740574
 6  6.36474080688069  0.48608045824582 -0.34903138833883
 6  7.55113265116512 -0.24241458835884 -1.07551450195019
 6  8.82277415001500 -0.09288441884188 -0.22954476727673
 6  10.19118974347435 -0.53926099779978 -0.86858782928293
 6  10.08635533573357 -2.03126406250625 -1.45891935693569
 6  11.42033491039104 -0.34810859165917  0.02356322492249
 6  12.78273318101810 -0.46568061916192 -0.71492151505151
 6  13.90922039043904 -0.10155135793579  0.29066613411341
 6  15.32171829672967 -0.09956368546855 -0.40760900070007
 6  15.63032470137014 -1.52648028182818 -0.91534115181518
 6  16.41385549144914  0.37486184618462  0.53688819601960
 6  17.83528811821182  0.51357275567557 -0.10013582818282
 6  18.79821019051905  1.35075329232923  0.76660709370937
 6  20.27569623882388  1.42401273477348  0.17337210041004
 6  20.33202455625563  2.16636493369337 -1.10963195589559
 6  21.17743867466747  1.86515945224522  1.17080244364436
 1 -4.03923540804080  3.50325584698470  1.52110669756976
 1 -10.13674406710671  3.93757459245925 -0.59411480298030
 1 -10.35662895229523 -2.34511385218522 -1.03732038423842
 1 -2.61666812371237 -0.92598091199120  2.26043673487349
 1 -2.26338994419442  1.59102268486849  1.11040169056906
 1 -2.01024548204820  0.68792924582458  3.71215492899290
 1 -2.84703976397640  2.18753281078108  3.55061722712271
 1 -3.64395783848385  0.69877456145615  3.84201661446145
 1 -1.80145263016302 -1.59583954435444 -0.36848075727573
 1 -2.15725739823982  0.10304755515552 -0.82010204980498
 1 -0.36544006140614  0.63452806670667  0.80856125522552
 1 -0.19252705470547 -0.93660817601760  1.69348330353035
 1 -5.39267804320432  7.03073171727173  0.84323003220322
 1 -5.30059704910491  6.19067243034303  2.36786308340834
 1 -4.39274323032303  5.42053321972197  0.75626880248025
 1 -9.32016406890689  5.77162331043104 -0.63575380358036
 1 -9.12212342824282  7.97342808170817  0.60820044184419
 1 -7.82477194299430  7.39772617211721  1.64707309280928
 1 -12.24405851095110  3.35827615361536 -2.26970997569757
 1 -13.21983165236524  1.92531642284228 -1.61966315781578
 1 -12.36113784488449  3.29711836653665 -0.62254349834984
 1 -12.43028780718072 -1.59297874297430 -1.23860881578158
 1 -13.29620833973397 -0.31244798159816 -1.71072660016002
 1 -12.91310766336634 -1.93572825902590 -3.66690657515752
 1 -11.94624818901890 -0.46145068266827 -3.94176767246725
 1 -11.22217849714971 -1.59001386848685 -3.32126074607461
 1 -9.18755835883588 -4.80147088998900 -1.71041430553055
 1 -7.67867723252325 -5.63573357755775 -1.15617523052305
 1 -9.21732161706171 -5.16637165846585 -0.00899272187219
 1 -3.63159385528553 -3.46000925162516 -0.15371064256426
 1 -1.27395556205621 -4.31188762846285  3.51837475277528
 1 -2.74901451005100 -5.18244986258626  3.89956279517952
 1 -1.62903101460146 -6.16412568576858  2.91755570847085
 1  2.67724702880288 -1.84952678857886 -1.60273423842384
 1  2.44134161176118 -0.24212993339334 -2.14122727492749
 1  4.40885179077908 -0.95015723092309  0.44588780478048
 1  3.91239020252025  1.01427013741374 -2.68349671937194
 1  4.98261367306731  2.21756201510151 -1.94484095229523
 1  5.49701700930093  0.93998510601060 -3.14779351035104
 1  6.71526358925893  1.47162116211621 -0.03247060426043
 1  6.31492561196120  0.22218418101810  0.73492320902090
 1  7.57417480218022 -1.31272050725073 -1.22328365196520
 1  7.65172760866087  0.21148435653565 -2.02501542514251
 1  8.96356840844084  0.94188207320732 -0.02283465126513
 1  8.57681617031703 -0.52286779297930  0.84880274397440
 1  10.18170572197220 -0.02109957225723 -1.76244113361336
 1  9.25841082658266 -2.11677965446545 -2.25760168496850
 1  11.01358391409141 -2.34135091899190 -1.76734097799780
 1  9.96336922292229 -2.48504044604460 -0.44299373907391
 1  11.35849353025302  0.72008423862386  0.37370885838584
 1  11.23353640704070 -1.00538649994999  0.89303992559256
 1  12.96739005790579 -1.45880404160416 -1.31947961556156
 1  13.16922067456746  0.23266395739574 -1.61870523182318
 1  13.85758719541954  0.92756531253125  0.74155149814982
 1  13.93598635173517 -0.59591919661966  1.26366288278828
 1  15.25117840634063  0.55841532653265 -1.28077243524352
 1  15.43077051995200 -2.15516580868087  0.03153169926993
 1  14.76925997669767 -1.74896727232723 -1.51272868796880
 1  16.63490311971197 -1.69843536843684 -1.26225769526953
 1  16.15426062676267  1.31042887658766  0.96592313661366
 1  16.60292473967397 -0.21552072717272  1.33605636683668
 1  18.13787472617262 -0.60261680908091 -0.16188952935294
 1  17.72621968646865  0.86766408530853 -1.15082865866587
 1  18.57891868446845  2.46521067876788  0.62921092639264
 1  18.65351251155116  0.87015119611961  1.79797979827983
 1  20.54082899559956  0.32615876407641 -0.23029596559656
 1  20.00696480308031  3.18757231913191 -1.05681927532753
 1  21.33985823792379  2.17896454925493 -1.41961332463246
 1  19.66076998139814  1.72828463926393 -1.87635460446045
 1  21.35857183238324  1.22740084918492  1.99487910511051
 1  22.21666337263726  2.08625985568557  0.89711467776778
 1  20.70462019191919  2.81786186948695  1.72929336983698
>>>>>>> 8e03b5b5abfc0030b3aa597dc0de36371bfbd096

