%nproc=4
%Mem=3GB
# td=(NStates=1) iop(3/107=0140000000,3/108=0140000000) CAM-B3LYP/6-31G(d,p) 

TD

0 1
12 -7.17979267096710  0.57869625312531  0.02145851585159
 6 -4.93970278677868 -2.04783201380138  0.58516391879188
 6 -4.69265529612961  2.83540225812581  1.23912401760176
 6 -9.29965673017302  3.11971952495250 -0.48829130443044
 6 -9.57468356635664 -1.69453121882188 -0.93421022592259
 7 -5.16358338953895  0.33037912851285  0.71464928892889
 6 -4.41903415071507 -0.75342648584858  0.79183707840784
 6 -2.97665388598860 -0.52671106910691  1.17961363046305
 6 -3.09526275317532  0.95640434203420  1.69667594689469
 6 -4.46011624632463  1.45436008710871  1.14859925382538
 6 -3.19875605640564  0.97414023332333  3.27914322892289
 6 -1.97861359105911 -0.66336232543254  0.03227703800380
 6 -0.52502821202120 -0.49360260826083  0.53307668996900
 6  0.55145706890689 -0.71244786668667 -0.56553634373437
 8  0.35655587238724 -0.93348712641264 -1.75894328742874
 8  1.79740833923392 -0.48248818721872 -0.02467785538554
 7 -7.00007765116512  2.65339854975498  0.36081700580058
 6 -5.99986012981298  3.38194196159616  0.69741561766177
 6 -6.40501540994099  4.82303916751675  0.85021328002800
 6 -7.73832861816182  4.89646145134513  0.39763588998900
 6 -8.05303483098310  3.49049598839884  0.06397439603960
 6 -5.46282831673167  5.90381985568557  1.30783093829383
 6 -8.48747875587559  6.13648391799180  0.04457507000700
 6 -8.32049045904590  7.32726187588759  0.68710276957696
 7 -9.00788983008301  0.73643063746375 -0.59071564546455
 6 -9.80081756805681  1.86212953725373 -0.72848566206621
 6 -11.14131808450845  1.62312175667567 -1.22571743144314
 6 -11.18269775697570  0.23254079987999 -1.29692972127213
 6 -9.91714931853185 -0.24865505890589 -0.86682888418842
 6 -12.21846278397840  2.63202844424442 -1.49357881058106
 6 -12.35440923382338 -0.61262738653865 -1.73490282088209
 6 -12.22792470137014 -0.94402459475948 -3.30152080328033
 7 -7.26434939733973 -1.41820665636564 -0.17078975407541
 6 -8.32506683298330 -2.22088063356336 -0.52797437733773
 6 -7.90326236603660 -3.62777332873287 -0.52413271307131
 6 -6.56589437993799 -3.58232121422142 -0.12929501120112
 6 -6.28195192689269 -2.28164612041204  0.10088192359236
 6 -8.70734307380738 -4.86937303570357 -0.89156253935394
 6 -5.44964042694269 -4.42853641704170  0.21349632373237
 8 -5.21203219551955 -5.63277013401340  0.11132708130813
 6 -4.33138764136414 -3.40778822622262  0.68719704130413
 6 -3.59230340714071 -3.89148709140914  1.95630159865987
 8 -3.72317510091009 -3.19986734463446  3.02923628182818
 8 -2.85962131493149 -4.88788740724072  1.86849588708871
 6 -2.26417537453745 -5.33367857375738  3.16276367676768
 6  2.80371669206921 -0.80705899479948 -1.13018653585359
 6  4.12658354355436 -0.54392966086609 -0.50626318911891
 6  4.98519401070107  0.35106163416342 -0.84315719271927
 6  4.97709143474347  1.11056873217322 -2.20654478947895
 6  6.38718499719972  0.36135675167517 -0.17602812721272
 6  7.62472392499250 -0.17127567556756 -0.97388771747175
 6  8.89254696629663 -0.00181199729973 -0.06599270167017
 6  10.20497595819582 -0.45199686288629 -0.80222594259426
 6  10.10397367396740 -1.87493537343734 -1.31365833183318
 6  11.42803746754675 -0.23145803690369 -0.01480944344434
 6  12.84471220672067 -0.39469950345034 -0.69795730083008
 6  14.00084135593559  0.04690897659766  0.18804521612161
 6  15.35146113711371 -0.10032911651165 -0.51897755025503
 6  15.67688395939594 -1.58750713901390 -0.75857768406841
 6  16.51965895859586  0.35860237753775  0.43184791949195
 6  17.88723631133113  0.50647437703770 -0.32171869886989
 6  18.88109852845284  1.36014409290929  0.55976923362336
 6  20.30671347574757  1.27926735923592  0.15046175217522
 6  20.52721556735674  2.17440474557456 -1.15532022792279
 6  21.19547461446145  1.87407910781078  1.17152109210921
 1 -4.08702906640664  3.65647889928993  1.47182327812781
 1 -10.12453457675768  3.89375164966497 -0.66056058225823
 1 -10.17983240734073 -2.31179671477148 -1.45335315471547
 1 -2.79566685388539 -1.16835703840384  1.99135562626263
 1 -2.30315378167817  1.45573763486349  1.48673232223222
 1 -2.22065515191519  0.52649175557556  3.55454579197920
 1 -3.44374148324833  1.88397762056206  3.55822384458446
 1 -4.09422222272227  0.27714286858686  3.74002568776878
 1 -2.11601672067207 -1.80769143994399 -0.15027303440344
 1 -2.11462783178318  0.04717233703370 -0.83255999059906
 1 -0.39364479317932  0.50193978127813  0.85275913891389
 1 -0.37186560686069 -1.14312507910791  1.43332679097910
 1 -5.72655683338334  6.88507601960196  0.75029486078608
 1 -5.62255372667267  6.11704458585859  2.23497551005100
 1 -4.33766861146115  5.59166343434343  1.08614934753475
 1 -9.18675893569357  6.02694607660766 -0.81329268196820
 1 -8.93883294699470  8.20243996499650  0.35891566726673
 1 -7.52638057015702  7.20579741614161  1.51791075137514
 1 -11.88510898389839  3.48224737183718 -2.12977880938094
 1 -12.99503680138014  2.20263900630063 -2.02523825202520
 1 -12.69987101980198  2.92714004810481 -0.46439687918792
 1 -12.33075504040404 -1.57475839863986 -1.08693219411941
 1 -13.08872117121712  0.05201249074908 -1.59510526492649
 1 -13.17911311051105 -1.43830749284929 -3.69645060316032
 1 -12.12186259195919 -0.04204267556756 -3.78196717511751
 1 -11.31295613501350 -1.57010803800380 -3.61985026322632
 1 -9.15461007960796 -4.83070957175718 -1.95238130113011
 1 -7.88158254345434 -5.65522147544754 -0.75421537663766
 1 -9.62615679467947 -5.05693414181418 -0.17427969666967
 1 -3.44405192369237 -3.55372197779778 -0.20491822992299
 1 -1.74180756835684 -4.51418363176318  3.76274799239924
 1 -3.15355179247925 -5.72055158005801  3.76477751545155
 1 -1.64902542304230 -6.24137492229223  2.85773913501350
 1  2.81532958775878 -1.91569819261926 -1.36049749844985
 1  2.54451089238924 -0.18907082228223 -2.23948500600060
 1  4.45306579327933 -0.85916433023302  0.49491089128913
 1  4.02960827232723  1.11456699939994 -2.84612509820982
 1  5.34402133433343  2.23122354625463 -2.01624906330633
 1  5.80055962446245  0.67113830473047 -2.98873513041304
 1  6.54845302920292  1.43784376497650  0.06164577847785
 1  6.12015988808881 -0.17754509120912  0.81049724522452
 1  7.43438556135614 -1.11572224522452 -1.25110986818682
 1  7.75377793629363  0.49082818581858 -1.95963678657866
 1  9.04757080138014  1.15919541704170  0.03577600570057
 1  8.81688480928093 -0.44134248694870  0.88819494289429
 1  10.16760139193920  0.22220836863686 -1.67352251025103
 1  9.21727133623362 -2.10734901840184 -1.92110049194920
 1  11.01171031163116 -2.16831023032303 -2.04265962406241
 1  9.94063626072607 -2.72553666836684 -0.39576697039704
 1  11.45511715331533  0.84302073547355  0.33565133593359
 1  11.49064666016602 -0.96019731733173  0.76481280138014
 1  12.93333128562856 -1.42093951325133 -1.00990326182618
 1  12.83213904380438  0.21315625162516 -1.59877421112111
 1  14.02184360466047  1.12568793209321  0.53696852555256
 1  14.03874218481848 -0.66820319921992  1.12924529852985
 1  15.28753915531553  0.49304270127013 -1.26884815361536
 1  15.87939173597360 -2.03798313951395  0.20224208870887
 1  15.07739938433843 -1.91566608660866 -1.39507088058806
 1  16.69911819141914 -1.64187508450845 -1.25959247254725
 1  16.08662193569357  1.40774910861086  0.91631754805481
 1  16.70425450325033 -0.14850113491349  1.32101059575958
 1  18.30877761546155 -0.42723923792379 -0.76579677527753
 1  17.78382569216922  0.95650454455446 -1.43621936553655
 1  18.30435949284928  2.39093036103610  0.68236018281828
 1  18.84148011051105  0.96742158165817  1.68187143264326
 1  20.80323015531553  0.33757475507551 -0.16310041784178
 1  20.26008282678268  3.20486126262626 -0.77848003270327
 1  21.65244904570457  2.28722986508651 -1.33511149234923
 1  20.14584298189819  1.83170346054605 -2.14115249964997
 1  21.38343219671967  1.11468710961096  2.08221188998900
 1  22.13802169496950  1.95842631333133  0.76211286488649
 1  20.98901898039804  2.99579569676968  1.41491862856286

