%nproc=4
%Mem=2GB
# td=(NStates=1) CAM-B3LYP/6-31G(d,p) 

TD

0 1
<<<<<<< HEAD
12 -7.08241881488149  0.63426217431743 -0.03934624722472
 6 -4.76124074207421 -1.89378055645565  0.37956448914891
 6 -4.88637856675668  2.82219066636664  1.10559692459246
 6 -9.33500823632363  3.11298679417942 -0.47459031873187
 6 -9.43029334303430 -1.68029354035404 -0.89976640574057
 7 -5.12604602920292  0.48103792189219  0.75017543584358
 6 -4.24762446854685 -0.69804962696270  0.79021704490449
 6 -2.91430043544354 -0.35733515921592  1.26477683188319
 6 -2.96993043144314  1.09469213751375  1.71775250595059
 6 -4.37941493639364  1.59560030883088  1.20081711161116
 6 -2.92794787688769  1.22510479857986  3.27462887178718
 6 -1.86010947194719 -0.59444470587059  0.10283424172417
 6 -0.43617103970397 -0.44909925712571  0.61065519481948
 6  0.48556969416942 -0.80598411131113 -0.56528190869087
 8  0.14997623772377 -1.22652806040604 -1.52068840054005
 8  1.81460327082708 -0.37623501990199 -0.19604639353935
 7 -7.08815926382638  2.64908049784979  0.25868456395640
 6 -6.07909718871887  3.38201917771777  0.68300183378338
 6 -6.33740099319932  4.78301259065907  0.75795648284828
 6 -7.68399110611061  4.87324795629563  0.30201859315932
 6 -8.10459473107311  3.48720791609161  0.01758430473047
 6 -5.44011196789679  5.98276074197420  1.15817057755776
 6 -8.46162395999600  5.99901093479348  0.24638162356236
 6 -8.50875476677668  7.16500261886189  0.86779302910291
 7 -9.05825809840984  0.68852171327133 -0.64279831353135
 6 -9.72645890559056  1.80059001210121 -0.74140046414641
 6 -11.11847094369437  1.40065840494049 -1.28828054755476
 6 -11.16500890479048  0.08503386748675 -1.25787450145015
 6 -9.83802948364836 -0.33244521882188 -0.92891790789079
 6 -12.29307813151315  2.40848141914191 -1.54627140194019
 6 -12.28661320762076 -0.77263467356736 -1.79332014051405
 6 -12.20236772517252 -1.21322373357336 -3.22223734233423
 7 -7.16331579987999 -1.32238185178518 -0.20888556555656
 6 -8.21265150495049 -2.20782595469547 -0.65806076127613
 6 -7.76141228682868 -3.60943921142114 -0.59673695099510
 6 -6.48247213131313 -3.60878521552155 -0.10003173507351
 6 -6.16780937733773 -2.16793507480748  0.07723052725273
 6 -8.63004047144714 -4.88855169756976 -0.78317679607961
 6 -5.30313478377838 -4.40642452595259  0.33978685128513
 8 -5.17970680858086 -5.57272175557556  0.11545857655766
 6 -4.14791837123712 -3.30758654845485  0.66316618191819
 6 -3.60344097499750 -3.73518874017402  2.03240361326133
 8 -3.84841644224422 -3.18577531373137  3.02735541664166
 8 -2.63970516421642 -4.69951467386739  1.77277585848585
 6 -2.27895848374837 -5.22383661276128  3.05576051155116
 6  2.74333684538454 -0.78323611821182 -1.17824902530253
 6  4.06463855285529 -0.64216239253925 -0.51643179217922
 6  5.02831631603160  0.32960922632263 -0.74942471517152
 6  4.87912633563356  1.43741639093909 -1.79190335563556
 6  6.31377571037104  0.27226907710771  0.04463797859786
 6  7.56691422932293 -0.02476282318232 -0.83491044154415
 6  8.83279515211521 -0.12134726512651 -0.08641045384538
 6  10.11255187968797 -0.53095016671667 -0.83876484698470
 6  9.99724642484248 -1.87722865896590 -1.52966643164316
 6  11.36721959885989 -0.30689447024702 -0.02197132853285
 6  12.65253016071607 -0.35076912801280 -0.72922294519452
 6  13.88876834523452 -0.08203940674067  0.16610367786779
 6  15.29885601050105 -0.00494422352235 -0.57645588538854
 6  15.66604827372737 -1.50787842164216 -1.12640225792579
 6  16.36028013391339  0.52047640764076  0.37917242444244
 6  17.82557714711471  0.52579397779778 -0.18129394399440
 6  18.77740811031103  1.21194941194119  0.67153758675868
 6  20.25110377957796  1.26957729122912  0.17138190139014
 6  20.30912226602660  1.92078037523752 -1.18635962866287
 6  21.16583751455146  1.88006094239424  1.19284464786479
 1 -4.26187767226723  3.48783430483048  1.67081166806681
 1 -9.94584497719772  3.91517235223522 -1.01181657315731
 1 -10.15654894429443 -2.46231557235724 -1.06239289148915
 1 -2.45453191009101 -1.05706402030203  2.17185787698770
 1 -2.11254485968597  1.88114169676968  1.34147479787979
 1 -2.05102956045605  0.95487594049405  3.68130184368437
 1 -2.90981604160416  2.18231228872887  3.55901806720672
 1 -3.74721816451645  0.54838952295230  3.56188860166017
 1 -2.28732121702170 -1.60338029842984 -0.37237114631463
 1 -2.03989566206621  0.14249149954995 -0.69197923752375
 1 -0.33344686208621  0.65763037693769  0.64767516661666
 1 -0.16149395139514 -1.11748626382638  1.44297825302530
 1 -5.61442021742174  6.89039768386839  0.59800550975098
 1 -5.75508249764976  6.08142150525053  2.16409270637064
 1 -4.32038599459946  5.79461062746275  1.21611478707871
 1 -9.38906095859586  5.81259740784078 -0.21935216341634
 1 -9.28818003390339  7.90882162106211  0.75614523632363
 1 -7.51200066586659  7.30882728222822  1.39450783628363
 1 -11.97723182828283  2.93866419241924 -2.51735474017402
 1 -13.19009867906791  1.92387627882788 -1.84578577007701
 1 -12.64793652475248  3.16225488018802 -0.63932517651765
 1 -12.28199297769777 -1.64229367446745 -1.16284123902390
 1 -13.43277199609961 -0.43397013381338 -1.72943847134713
 1 -13.01957831043104 -1.91571625782578 -3.45952583708371
 1 -12.43863742794279 -0.44549908750875 -3.96551004670467
 1 -11.18775505480548 -1.49497436453645 -3.46844546454645
 1 -9.43953355635564 -4.71721246414642 -1.67382064616462
 1 -7.98435780058006 -5.77606761096110 -0.70078969196920
 1 -9.35698558345835 -4.83010803210321 -0.02434425702570
 1 -3.46235693159316 -3.50025327602760 -0.12615788728873
 1 -1.74093225972597 -4.56542298199820  3.79023193849385
 1 -3.21658126672667 -5.75060667826783  3.63254609350935
 1 -1.47274538603860 -5.93532280548055  3.01619557245725
 1  2.44350365446545 -1.81793362926293 -1.45301926692669
 1  2.76156363396340 -0.17543326372637 -2.09894304650465
 1  4.21940284588459 -1.31090330553055  0.13259647564756
 1  3.86512547604760  1.53592230263026 -2.36615498519852
 1  5.15804121582158  2.35594585348535 -1.33671013921392
 1  5.70179748734873  1.20578168566857 -2.63960269126913
 1  6.37376943984398  1.22820682068207  0.60265290809081
 1  6.32370649004901 -0.36138417581758  1.03658337503750
 1  7.30334771947195 -1.06073530873087 -1.22074339793979
 1  7.85805824172417  0.72368557665767 -1.64338726232623
 1  8.88825087668767  0.82521040604060  0.28871650385039
 1  8.92960144884488 -0.78648415461546  1.02606046974697
 1  10.22069962136213  0.18754129182918 -1.66933182268227
 1  9.16618160366037 -1.97412538903890 -2.19455538033803
 1  10.96937949364936 -2.21873865776578 -1.99876412031203
 1  9.87884077007701 -2.71231317331733 -0.48509794949495
 1  11.24743242414241  0.59423165336534  0.59072055955596
 1  11.34389744314431 -0.89297525882588  0.76828745034503
 1  13.05004832373237 -1.42481064226423 -1.24368203580358
 1  12.79944369686969  0.61482217321732 -1.27020038133813
 1  13.65528696539654  0.93799635563556  0.70804814781478
 1  13.96346910001000 -0.71518112281228  1.03480999749975
 1  15.21332462096210  0.45125461046105 -1.55517987598760
 1  15.70937838073807 -2.07037732983298 -0.20279173307331
 1  15.01400445114511 -1.84825720132013 -1.90530794589459
 1  16.65446507590759 -1.37525305020502 -1.74721619111911
 1  16.01835703640364  1.55585341904190  0.73521006530653
 1  16.19232367956796 -0.38833800890089  1.28624138533853
 1  18.17808874757476 -0.63808035543554 -0.31261460186019
 1  17.81458852335234  0.93170048894890 -1.22863643944394
 1  18.32154294689469  2.14709886758676  1.14860286558656
 1  18.93005016531653  0.41138531953195  1.69282928322832
 1  20.45628054075408  0.17202335053505 -0.03048598459846
 1  19.90459456605661  2.98985254715472 -1.26443003640364
 1  21.37162141424142  1.76613326612661 -1.57085844914491
 1  19.65116902130213  1.48286009680968 -1.84841181018102
 1  21.14767074227423  1.51015912501250  2.19917953515352
 1  22.08921062736274  1.91374260396040  0.80346531283128
 1  20.92949267916792  3.00032011531153  1.30312075257526
=======
12 -7.16240681368137  0.52504125222522  0.06560424782478
 6 -4.84610922892289 -1.93094427282728  0.53539007170717
 6 -4.83449337823782  2.81558000530053  1.11238760366037
 6 -9.44054879037904  3.22240773627363 -0.29803266296630
 6 -9.43555386908691 -1.68797430843084 -0.88078450755076
 7 -5.06305973057306  0.46000581868187  0.76277669596960
 6 -4.35467517361736 -0.73672349434943  0.87774579777978
 6 -2.97937694309431 -0.42667209290929  1.28690904510451
 6 -3.04367780618062  1.05187785608561  1.71371210191019
 6 -4.30953794869487  1.48187893669367  1.16504353425343
 6 -2.91747682978298  1.23725601370137  3.21917332623262
 6 -1.97158061906191 -0.59124438583858  0.12846680498050
 6 -0.50737816041604 -0.47406175337534  0.71544567386739
 6  0.50860199739974 -0.78795230813081 -0.40156553705371
 8  0.18998023812381 -0.91376678427843 -1.55714204590459
 8  1.72811462196220 -0.48437583398340 -0.01375816471647
 7 -7.15468591649165  2.61868745854585  0.30101879737974
 6 -6.00695997499750  3.36202717851785  0.73239677327733
 6 -6.36996424952495  4.75254954435444  0.77251793899390
 6 -7.72393510051005  4.77285791729173  0.39995838713871
 6 -8.18253252485249  3.45756495179518  0.15280782708271
 6 -5.39957791449145  5.79593205910591  1.10826558705871
 6 -8.52466026362636  6.04336537023702  0.17121410681068
 6 -8.32964685598560  7.25465158375838  0.72552880268027
 7 -9.10821309390939  0.72792565366537 -0.62807684138414
 6 -9.86352261196120  1.85468542164216 -0.67317364146415
 6 -11.19010810741074  1.50504884398440 -1.31376309580958
 6 -11.16864926882688  0.16143150725073 -1.42706142014201
 6 -9.90080576127613 -0.32015398969897 -1.06853186928693
 6 -12.22186100980098  2.53627419841984 -1.46884365916592
 6 -12.30243478977898 -0.74528193829383 -2.00794160266027
 6 -12.24380186858686 -1.00809322052205 -3.53918903750375
 7 -7.20042951125113 -1.35780539413941 -0.12455713271327
 6 -8.20220045984598 -2.14639981208121 -0.49823477867787
 6 -7.86204234983498 -3.59094736223622 -0.48772604990499
 6 -6.57388127222722 -3.55694003100310 -0.12615434733473
 6 -6.17007960436044 -2.26080436173617  0.14627743194319
 6 -8.54689215661566 -4.88420126252625 -1.02244072247225
 6 -5.26177064736474 -4.36085996949695  0.25720859345935
 8 -5.19901873977398 -5.63211769516952  0.25768279897990
 6 -4.16512009140914 -3.36562235203520  0.56711657695770
 6 -3.52558318921892 -3.68455367666767  1.96768714161416
 8 -3.80786238683868 -3.20552728892889  3.05078775987599
 8 -2.76906810051005 -4.73589831223122  1.80635921682168
 6 -2.03198378627863 -5.20449467856786  2.92340727622762
 6  2.79581209290929 -0.62601039563956 -1.07010821122112
 6  4.14532662166217 -0.50282845914591 -0.39321947094709
 6  5.06790027442744  0.38734499989999 -0.74828460116012
 6  5.00430885388539  1.31502415171517 -2.02034619991999
 6  6.38347268006801  0.34790664086409 -0.09165565076508
 6  7.56866440434043 -0.16818716561656 -0.96998394889489
 6  8.86037791039104 -0.18289341974197 -0.18311012381238
 6  10.17058768326833 -0.63361043274327 -0.91774274477448
 6  9.91541824202420 -2.20436137223722 -1.15557902290229
 6  11.39537241414141 -0.35842962376238 -0.09760889228923
 6  12.78057296499650 -0.53270732183218 -0.76497652055206
 6  13.95228469686969 -0.14103530633063  0.18346541404140
 6  15.36835296019602 -0.24694842394239 -0.54778301810181
 6  15.90291196009601 -1.76711434523452 -0.78336795449545
 6  16.39668377427743  0.54151851185119  0.26932143934393
 6  17.78722331173117  0.61968336673667 -0.31662747734773
 6  18.75590596009601  1.39241745874587  0.57241767476748
 6  20.17236590579058  1.44183451695170  0.07118188138814
 6  20.32481383518352  2.28926722392239 -1.17203819651965
 6  21.13605453625363  2.01667460376038  1.11368673207321
 1 -4.20839232373237  3.57955347674767  1.59569415631563
 1 -10.03253364606461  3.88659949494949 -0.42572796429643
 1 -10.21694498389839 -2.38925826662666 -1.43626027822782
 1 -2.82304876177618 -1.16241455535554  2.05905659685969
 1 -2.34360796599660  1.53388697129713  1.26933758415842
 1 -1.90420487798780  0.84157461036104  3.54266798029803
 1 -3.13380844084408  2.30595465296530  3.56869903530353
 1 -3.57454089678968  0.56791147514751  3.79194160696070
 1 -2.18828131303130 -1.60889084948495 -0.32370627982798
 1 -2.08660033253325  0.11587883828383 -0.83226326592659
 1 -0.50192370977098  0.54310892479248  1.10654105320532
 1 -0.47335513751375 -1.14456897209721  1.67256121132113
 1 -5.82299107450745  6.78505714981498  0.72625833503350
 1 -5.21318830823082  5.88153151625162  2.21531782888289
 1 -4.44829878587859  5.53171433783378  0.60816399199920
 1 -9.55204725722572  5.78941508960896 -0.46901712991299
 1 -9.01011222712271  7.91506224512451  0.55921554335434
 1 -7.61636110191019  7.48117451695169  1.47348573407341
 1 -12.07026113121312  3.21802212821282 -2.27388039273927
 1 -13.00114978417842  1.87525141634163 -1.95844703620362
 1 -12.49176090719072  2.90942959765977 -0.41827307130713
 1 -12.24503928232823 -1.70430987608761 -1.53264821972197
 1 -13.25283400230023 -0.52655939273927 -1.76007153465347
 1 -12.88553490609061 -1.87841252745274 -3.81562144664466
 1 -12.43502706690669 -0.12903744134413 -4.21226472217222
 1 -11.11626790609061 -1.37933280038004 -3.68568718871887
 1 -9.24396399939994 -4.56692743564356 -1.87761102520252
 1 -7.61896126092609 -5.68294829902990 -1.16815642864286
 1 -9.34568445334533 -5.42435745704570 -0.15603742634263
 1 -3.17669836573657 -3.42193544424442 -0.18801407290729
 1 -1.24173233973397 -4.45122156185619  3.17203011831183
 1 -2.82606221482148 -5.46592821042104  3.70032287118712
 1 -1.44883299479948 -6.06360563376338  2.68961291419142
 1  2.56667597169717 -1.76220805670567 -1.35082904790479
 1  2.37155463306331 -0.17478319871987 -1.96886003820382
 1  4.05722662826283 -1.06343855905591  0.51908512451245
 1  4.04573353685369  1.19195790619062 -2.47517588728873
 1  5.14559997169717  2.49945020392039 -1.64159062726273
 1  5.99777708530853  1.08130923842384 -2.60203893489349
 1  6.91669373227323  1.37893189318932  0.22159480228023
 1  6.21696581598160 -0.21636967436744  0.83983370007001
 1  7.28203558825883 -1.11600083528353 -1.40410173377338
 1  7.68147058295830  0.39982319041904 -1.86515943954395
 1  8.94501655325532  0.74714259925993  0.37178481068107
 1  8.89937842654265 -0.72492799899990  0.88836670037004
 1  10.11257880928093 -0.38643610591059 -1.87216210571057
 1  9.13057804330433 -2.42701067756776 -1.79105503030303
 1  10.73650620632063 -2.83388017191719 -1.68075231913191
 1  9.64592747874788 -2.65927786978698 -0.21539097879788
 1  11.32114979587959  0.77349958015802  0.23709519701970
 1  11.27519057245725 -0.91716767806781  0.74604522612261
 1  12.70148346724672 -1.58101626282628 -1.13340100770077
 1  12.77768152065206  0.18054874587459 -1.63436679797980
 1  13.86376781348135  0.92025458145815  0.49340668366837
 1  14.02375512861286 -0.77915752045204  0.96248276477648
 1  15.23873716221622  0.27461694669467 -1.53141749974998
 1  16.02435987888789 -2.23925421752175  0.27125567166717
 1  15.13899695039504 -2.10124249984999 -1.37144455955596
 1  16.83170279967997 -1.90552607750775 -1.20851232073207
 1  15.98007320802080  1.54962279597960  0.55649219351935
 1  16.54943939113911 -0.04893406850685  1.31106386758676
 1  18.05019595829583 -0.57542408980898 -0.58610195059506
 1  17.55689275377538  1.17339465836584 -1.20461403720372
 1  18.27383817641764  2.51329548724872  0.72264026932693
 1  18.61855901620162  0.91002518351835  1.60129012931293
 1  20.59566447914791  0.40844699289929 -0.21745468146815
 1  19.87917202380238  3.23856741864186 -1.13334692809281
 1  21.51765601770177  2.41616826962696 -1.31487285058506
 1  19.92925683008301  1.71693350415042 -1.89173614261426
 1  20.91769774497450  1.34821293039304  1.99809942714271
 1  22.05568727502750  2.02442367206721  0.79180414671467
 1  20.72260199009901  2.92188227152715  1.54720516101610
>>>>>>> 8e03b5b5abfc0030b3aa597dc0de36371bfbd096

