%nproc=4
%Mem=2GB
# td=(NStates=1) CAM-B3LYP/6-31G(d,p) 

TD

0 1
<<<<<<< HEAD
12 -7.10061063406341  0.58740748884888  0.10132782018202
 6 -4.79958457645765 -1.94432561096110  0.55775230793079
 6 -4.84229415831583  2.88534698199820  1.24126049094909
 6 -9.47838257375738  3.06464195969597 -0.35166802650265
 6 -9.46874718841884 -1.72325783678368 -0.83269969906991
 7 -5.06295972057206  0.47601741984198  0.79731014931493
 6 -4.35889559565957 -0.62847266926693  0.83007103030303
 6 -2.87670667606761 -0.29731915761576  1.24647500170017
 6 -3.02465590399040  1.15835850415042  1.66902763346335
 6 -4.38901589648965  1.52210295909591  1.24466149604960
 6 -3.16520160226023  1.23713600170017  3.27732914181418
 6 -2.03702716371637 -0.41924718611861 -0.01361740344034
 6 -0.50861828442844 -0.35130947814781  0.46514064336434
 6  0.45287642484248 -0.57522103500350 -0.56351173167317
 8  0.24235547564756 -1.00895630323032 -1.74137046874687
 8  1.79098090859086 -0.47232462886289 -0.11525831473147
 7 -7.14294474237424  2.63548913871387  0.29837853335334
 6 -6.08133741274127  3.39966094189419  0.72980651425143
 6 -6.47721497459746  4.72907719711971  0.76478716591659
 6 -7.75245795279528  4.90484111561156  0.29445783708371
 6 -8.23911818341834  3.53591278657866  0.08498104440444
 6 -5.51691964866487  5.86021848774878  1.16754151465147
 6 -8.65345314291429  5.99413044674468  0.04552153755376
 6 -8.41373526482648  7.16901301990199  0.72032828262826
 7 -9.02042431503150  0.70120298139814 -0.60014404810481
 6 -9.81062732243224  1.81214116721672 -0.71350767486749
 6 -11.13924302090209  1.46924526362636 -0.97932965246525
 6 -11.19929233313331  0.09494485858586 -1.17836655065507
 6 -9.85990167086709 -0.37895987028703 -0.86711172727273
 6 -12.33012183588359  2.43580415141514 -1.29335611041104
 6 -12.34861940824082 -0.76971438153815 -1.69559036753675
 6 -12.15667315571557 -1.09234164536454 -3.16442156075608
 7 -7.13573304160416 -1.44689430303030 -0.19114379137914
 6 -8.21753199299930 -2.23787895999600 -0.56424137933793
 6 -7.76647279287929 -3.62523079057906 -0.57558483578358
 6 -6.42149603370337 -3.56293063006301 -0.15973770567057
 6 -6.11547414381438 -2.21428971027103  0.04794759895990
 6 -8.60217768516852 -4.73198604100410 -0.91325980438044
 6 -5.28565303560356 -4.34615849934993  0.08228110071007
 8 -5.18466730463046 -5.55893037643764  0.16281331203120
 6 -4.14396797619762 -3.32159794959496  0.49919978527853
 6 -3.54674530543054 -3.74287950925093  1.86128650155015
 8 -3.82832443304330 -3.20148688488849  2.83548622972297
 8 -2.66624781848185 -4.74138886128613  1.75644422532253
 6 -2.17768835673567 -5.18270249934993  3.09253418891889
 6  2.79360187188719 -0.72521031563156 -1.17068826922692
 6  4.13042513151315 -0.52206038233823 -0.55573572257226
 6  5.15692917731773  0.13830009540954 -1.07329710241024
 6  5.02402082508251  0.97070972027203 -2.32887705300530
 6  6.40609494229423  0.23654550475048 -0.24743122832283
 6  7.68412595049505 -0.19095944284428 -1.01972892339234
 6  8.86416828942894 -0.16514164456446 -0.12657447024702
 6  10.19101972647265 -0.51700877257726 -0.84828579907991
 6  10.16312301250125 -1.98254919101910 -1.31784524952495
 6  11.27632050895090 -0.19571335213521  0.07787865646565
 6  12.75473038073807 -0.44000805190519 -0.61520154305431
 6  13.98528799719972 -0.08285948874887  0.32064913241324
 6  15.29617574247425 -0.16716044514451 -0.54592283208321
 6  15.47436910581058 -1.68188582238224 -0.72656227392739
 6  16.45300940684069  0.47611197119712  0.35567007420742
 6  17.87577216661666  0.55830722912291 -0.17536335093509
 6  18.88641901140114  1.26023424042404  0.76314674767477
 6  20.28109677887789  1.34565489898990  0.13905866906691
 6  20.37909926372637  2.16288458565857 -1.10163115581558
 6  21.16993792459246  1.96287922422242  1.24891025442544
 1 -4.17869935443544  3.57152267366737  1.80293488038804
 1 -10.25491588428843  3.71356219121912 -0.47492288378838
 1 -10.23507679707971 -2.33211255205521 -1.30120677287729
 1 -2.34995145204520 -0.99504781868187  1.91955264646465
 1 -2.23871747694769  1.87273085568557  1.36787743814381
 1 -2.17602205970597  1.08436888978898  3.64621833533353
 1 -3.53569862986299  2.13643770127013  3.64252641804180
 1 -3.78629207190719  0.29702438643864  3.47496990979098
 1 -2.36810929582958 -1.44540450085009 -0.22932684188419
 1 -2.22994466696670  0.37801505190519 -0.81624166376638
 1 -0.25663918131813  0.60307492139214  0.80564096319632
 1 -0.42299010101010 -0.95207972317232  1.31249520472047
 1 -5.76342511791179  6.79250789488949  0.50483619281928
 1 -5.37824481388139  6.22747611071107  2.21380767786779
 1 -4.44058801480148  5.62270343674367  0.85039821542154
 1 -9.10853290579058  5.76876302440244 -0.73657388558856
 1 -9.15393660956096  8.06162690159016  0.40645026682668
 1 -7.58982844864486  7.22237863736374  1.42424080958096
 1 -12.27215132023202  2.90641096709671 -2.41920492519252
 1 -13.29007867706771  1.80135402660266 -1.30081127262726
 1 -12.12638436953696  3.32409106380638 -0.53662490649065
 1 -12.32520729912991 -1.73497294239424 -1.05271022592259
 1 -13.45198391729173 -0.38435517231723 -1.48563409090909
 1 -13.15168152075208 -1.45407009320932 -3.61975185968597
 1 -11.87602116631663 -0.19384392199220 -3.94874837053705
 1 -11.22662894219422 -1.88372323942394 -3.09964858485849
 1 -9.13203280628063 -4.63923466636664 -1.86860012411241
 1 -7.99130849564956 -5.51377138133813 -0.93706331933193
 1 -9.32415230013001 -4.88421344264427 -0.06685850845084
 1 -3.24113480938094 -3.51884513521352 -0.11662693419342
 1 -1.96771493799380 -4.36748318801880  3.87032994829483
 1 -3.21914152275228 -5.54059567716772  3.56772961186119
 1 -1.43657176867687 -5.85334460766077  3.00127408030803
 1  2.58847815191519 -1.80345218111811 -1.41468543354335
 1  2.58185566316632 -0.12325804620462 -2.14078723092309
 1  4.54488539413941 -1.08277049224922  0.40157337333733
 1  4.13337230073007  1.02320103050305 -2.63959232893289
 1  5.49314472617262  2.03684394329433 -2.11533800200020
 1  5.65968327592759  0.52902400990099 -3.14684341534153
 1  6.56511857475747  1.38000200020002 -0.07505486268627
 1  6.30689480888089 -0.29180721812181  0.72011172787279
 1  7.34116150085008 -1.14268350355035 -1.60074139773977
 1  7.89077151305130  0.59912312041204 -1.83171609520952
 1  8.95814786638664  0.78120600560056  0.32820045224522
 1  8.72036052475248 -0.89443494969497  0.74836269997000
 1  10.07080463186318  0.12000453815382 -1.91754664416442
 1  9.20322530803080 -2.16161413791379 -1.72918884368437
 1  10.96872942864286 -2.32373915781578 -1.92853709760976
 1  10.21058394439444 -2.85635757775778 -0.35378481818182
 1  11.32463014391439  0.90053228342834  0.49741122862286
 1  11.24586764016402 -0.87024298559856  0.98105872747275
 1  12.84415773467347 -1.36982514371437 -0.90407807540754
 1  12.65377913041304  0.18059875087509 -1.50931429272927
 1  13.88301973867387  1.06236879287929  0.72705004800480
 1  14.06249900300030 -0.96314591929193  1.02340885738574
 1  15.17894118261826  0.43420290529053 -1.58614297229723
 1  15.59124656755676 -2.24108440054005  0.17130567666767
 1  14.86086913761376 -2.21716409200920 -1.39057647274727
 1  16.45792542194220 -1.87640316521652 -1.29584105360536
 1  16.04538973967396  1.28993682738274  0.59294583888389
 1  16.34608905610561 -0.10125930103010  1.24212697389739
 1  18.23457439613961 -0.46542308970897 -0.53217655805581
 1  17.86082314681468  1.06915423432343 -1.25960953675368
 1  18.36842763536354  2.24139829752975  1.16132413771377
 1  18.94964212451245  0.55988016901690  1.63870387068707
 1  20.45888080078008  0.30403655185519 -0.17080001600160
 1  19.97401150775077  3.13906746864686 -0.97451104450445
 1  21.26865111721172  2.21650830363036 -1.64552591589159
 1  19.82276618101810  1.64793660446045 -1.91327829682968
 1  21.38281425662566  1.35917402650265  2.20821043824382
 1  21.99362106840684  2.15712694239424  0.61188615491549
 1  20.56535626552655  3.04259434273427  1.39088952945295
=======
12 -7.10632120512051  0.57411615971597  0.05581326872687
 6 -4.83814843284328 -1.96279745814581  0.51936846954695
 6 -4.73928385728573  2.81359980728073  1.24057042194219
 6 -9.30682541804180  3.05425092059206 -0.42498535823582
 6 -9.51406171987199 -1.77415292629263 -0.95195162426243
 7 -5.10605403000300  0.42932275037504  0.76969738803880
 6 -4.33217292339234 -0.73120294229423  0.86028405160516
 6 -2.85164416981698 -0.39333875957596  1.18195855005501
 6 -2.91113455185519  1.01708437673767  1.68096882758276
 6 -4.33315030993099  1.53953470227023  1.17839486938694
 6 -2.92535761786179  1.11880416851685  3.24340574947495
 6 -1.91027448844884 -0.65150041144114  0.04951891019102
 6 -0.44996241884188 -0.42235658285829  0.53378750805080
 6  0.49484062126213 -0.69466297919792 -0.62463784428443
 8  0.16776801690169 -1.20220562816282 -1.72070840254025
 8  1.66726853735374 -0.29770716711671 -0.23192998189819
 7 -7.05366581448145  2.50889647944794  0.40530922642264
 6 -6.10501978097810  3.33771474727473  0.79470300390039
 6 -6.31471872497250  4.76057034643464  0.72047273447345
 6 -7.60420312731273  4.77684831633163  0.36021441274127
 6 -8.11849612121212  3.44127332263226  0.06252879917992
 6 -5.38164612131213  5.71406387228723  1.12049681018102
 6 -8.47018481608161  5.95963699739974  0.24127111251125
 6 -8.37446133743374  7.08868498709871  0.93439968976898
 7 -9.12110438303830  0.65981884298430 -0.57963199689969
 6 -9.83030929062906  1.75805575867587 -0.68753507760776
 6 -11.19267836443644  1.50638897799780 -1.25625734523452
 6 -11.20637304120412  0.13647901200120 -1.36847556155616
 6 -9.96806248694869 -0.40815278957896 -0.93880889698970
 6 -12.25025384908491  2.56640721172117 -1.63842061686169
 6 -12.24606915321532 -0.67794520462046 -1.86574738323832
 6 -12.20964845324533 -0.99367177837784 -3.36082120072007
 7 -7.18068753705371 -1.42767238083808 -0.19544422142214
 6 -8.34807504730473 -2.18337350945095 -0.52798775397540
 6 -7.90846699229923 -3.63334160166017 -0.42036931423142
 6 -6.57575145924593 -3.56122045904590 -0.08513024492449
 6 -6.26847944434443 -2.21955023632363  0.04648745294529
 6 -8.55177264466447 -4.89246208860886 -0.77613609200920
 6 -5.40113458375838 -4.37079096259626  0.24523739633963
 8 -5.28786762466247 -5.56235071847185  0.35063209390939
 6 -4.27582116151615 -3.32536832663266  0.59887975327533
 6 -3.58984961586159 -3.66029125042504  1.94846521942194
 8 -3.76310791139114 -3.11173790999100  3.04614729582958
 8 -2.81003219691969 -4.72379710211021  1.88332691359136
 6 -2.00388097599760 -4.99863409250925  3.04066900240024
 6  2.78250076177618 -0.40496829142914 -1.25227642804280
 6  4.14073616261626 -0.33416159245925 -0.49286943594359
 6  5.14003748814881  0.45740200560056 -0.96047582028203
 6  5.05900432343234  1.19916256555656 -2.35343950925092
 6  6.47982231503150  0.53714556475648 -0.29378586378638
 6  7.59980751865187  0.01953160626063 -1.02817976847685
 6  8.87071894449445 -0.08081321172117 -0.16131794459446
 6  10.17687831233123 -0.63369044074407 -0.82765373587359
 6  10.00170687088709 -2.09674061016102 -1.31397486248625
 6  11.37671054795480 -0.34134791559156  0.03480434903490
 6  12.72196710441044 -0.50876492759276 -0.60108013091309
 6  13.92488195659566 -0.28196939973997  0.38188525602560
 6  15.25209133403340 -0.25039876897690 -0.40503874367437
 6  15.73733540244024 -1.65049268306831 -0.79050866856686
 6  16.32257636353635  0.48874323432343  0.47806231343134
 6  17.75242983238324  0.52576397479748 -0.20545636023602
 6  18.73891426092609  1.30571878887889  0.55739617261726
 6  20.18981765096510  1.38745907940794  0.04791955515552
 6  20.24462581638164  2.33295159235924 -1.12937393009301
 6  21.12711364216422  1.85206814311431  1.27302266566657
 1 -4.06539802430243  3.65867138853885  1.37762234913491
 1 -9.89720011271127  3.92609344434443 -0.44428982048205
 1 -10.22865615501550 -2.57250659145915 -1.13551020322032
 1 -2.54250070697070 -1.00818913281328  2.10564125532553
 1 -2.05484909010901  1.72561614421442  1.40244089448945
 1 -1.77513197069707  1.02591304420442  3.55491920542054
 1 -3.41675673567357  2.14969902740274  3.60771293669367
 1 -3.51218466116612  0.23411809580958  3.70929334213421
 1 -1.97640012491249 -1.54734469486949 -0.36901081028103
 1 -2.03111478397840 -0.10972372197220 -0.89366940654065
 1 -0.37301081848185  0.50719533343334  1.03777417651765
 1 -0.07936573857386 -1.19526404160416  1.22246620182018
 1 -5.81643041844184  6.64114275837584  0.67282299149915
 1 -5.42364935433543  5.92871623472347  2.26018231533153
 1 -4.34458841484148  5.79796096249625  0.67911108670867
 1 -9.46326837933793  5.82279842794279 -0.34007423562356
 1 -8.97726894279428  7.89230996989699  0.77917753955396
 1 -7.43540300610061  7.15291169066907  1.66450483598360
 1 -12.10977508260826  3.30192051805180 -2.36269927462746
 1 -13.17542721192119  1.90509440064006 -1.81066225772577
 1 -12.54468619971997  3.00537919261926 -0.71406265026503
 1 -12.30194497289729 -1.71497094219422 -1.45992094699470
 1 -13.28263698259826 -0.37014375117512 -1.72841836933693
 1 -13.13914026662666 -1.46914160036004 -3.65867575207521
 1 -12.24411797599760 -0.03594813241324 -3.69960345604560
 1 -11.13175945524552 -1.29236410351035 -3.64404302430243
 1 -9.25030463346335 -4.86500724362436 -1.77387065116512
 1 -7.94969433423342 -5.81470147434744 -0.68815842884288
 1 -9.15652553745375 -5.20190521182118 -0.04222604520452
 1 -3.52111280718072 -3.44481773247325  0.04194892339234
 1 -1.53529169566957 -4.21283772347235  3.46461937723772
 1 -2.71119072767277 -5.14177579517952  3.83101594049405
 1 -1.38193630513051 -5.88603787698770  2.74675862876288
 1  2.55793509760976 -1.32749458535854 -1.57927189218922
 1  2.71665914351435  0.51552583218322 -1.92269542174217
 1  4.41391229682968 -0.87516973217322  0.46914013001300
 1  3.92850181368137  1.29420813121312 -2.60450882058206
 1  5.48946435813581  2.27552781168117 -2.37914438263826
 1  5.70022733033303  0.75346645414541 -3.15401413241324
 1  6.64635669856986  1.56684068406841  0.15109775257526
 1  6.27098121752175  0.11905386798680  0.76451616831683
 1  7.29587697239724 -1.02967220242024 -1.38211953555356
 1  7.99742217811781  0.75701890999100 -1.71708463206321
 1  9.23712576417642  0.83527141214121  0.40398803100310
 1  8.68185667436744 -0.80807631383138  0.60128799249925
 1  10.29135668706871 -0.15438290059006 -1.66900178967897
 1  9.05760074557456 -1.94230220672067 -2.01443736853685
 1  11.00109266496650 -2.28369515341534 -2.09712395629563
 1  9.81236412241224 -2.84160610261026 -0.42793223292329
 1  11.38994667556756  0.73764599479948  0.40736222372237
 1  11.10742379577958 -1.12464842614261  0.85413603520352
 1  12.68587190609061 -1.54963312451245 -0.81740940854085
 1  12.93055680818082  0.09133982498250 -1.64440780208021
 1  13.80422185888589  0.80924348034803  0.90596793979398
 1  13.83845659875988 -0.95611521622162  1.27156367286729
 1  15.15669895839584  0.10195968096810 -1.50659501750175
 1  15.81329877277728 -2.52128242034203 -0.05540699459946
 1  15.08425147584759 -2.22304468006801 -1.56515393049305
 1  16.64109373877388 -1.74928045294529 -1.39786125562556
 1  16.04913011371137  1.58388622232223  0.70704724902490
 1  16.46422086928693 -0.15952512761276  1.38149091029103
 1  18.11085202390239 -0.50146669406941 -0.47291063146315
 1  17.45681274577458  0.92699001790179 -1.28785236103610
 1  18.37849864246425  2.42430658835884  0.81558956425643
 1  18.75251241154115  0.80905508650865  1.41110111041104
 1  20.45708062076208  0.46175232343234 -0.29306224222422
 1  19.89290339693969  3.47411097299730 -0.68566215961596
 1  21.40990524262426  2.63922057485749 -1.54718608190819
 1  19.69389329372937  2.11944375517552 -2.10189715871587
 1  20.98040401560156  1.02811092019202  1.87697731493149
 1  22.21732343864386  1.70294152385239  0.99386435273527
 1  20.81582131203120  2.80760084338434  1.77734817531753
>>>>>>> 8e03b5b5abfc0030b3aa597dc0de36371bfbd096

