%nproc=4
%Mem=2GB
# td=(NStates=1) CAM-B3LYP/6-31G(d,p) 

TD

0 1
12 -7.13816438943894  0.62444119221922 -0.00503281588159
 6 -4.77726234423442 -1.93046422482248  0.50885741844184
 6 -4.82999292819282  2.84939338663866  1.19913627852785
 6 -9.32091682718272  3.10354585008501 -0.46208906860686
 6 -9.54847516121612 -1.74296980798080 -0.84756118521852
 7 -5.14426785138514  0.41934175227523  0.80047046534653
 6 -4.37924763086309 -0.73512333433343  0.94779280248025
 6 -2.97297630303030 -0.40233965966597  1.27173752795280
 6 -3.11096453485349  1.04786745504550  1.71808253895390
 6 -4.50334732963296  1.46956770557056  1.19786681658166
 6 -2.93533861596160  1.20177246534653  3.23635504440444
 6 -2.01754521552155 -0.52503776517652  0.08396235453545
 6 -0.48275569816982 -0.36628097529753  0.54749887918792
 6  0.47580871807181 -0.70491400430043 -0.51648702920292
 8  0.32730397049705 -1.23236864446445 -1.64536086778678
 8  1.79672148264826 -0.33016041244124 -0.14814160306031
 7 -7.15868631653165  2.64525011481148  0.36074476997700
 6 -6.06070534953495  3.37749872567257  0.81312484608461
 6 -6.42457971107111  4.78818310771077  0.80618130533053
 6 -7.60558326532653  4.87038767026703  0.23679207050705
 6 -8.09414368596860  3.43284247954795  0.07051959825983
 6 -5.45848380508051  5.88492095799580  1.16490125062506
 6 -8.48504630223022  6.04291532523252  0.00057704310431
 6 -8.65111900320032  7.20314643324332  0.75005125492549
 7 -9.09484175677568  0.72499536063606 -0.74329836353635
 6 -9.82380864056406  1.78915886898690 -0.88828515261526
 6 -11.11957105370537  1.49534787388739 -1.25013673317332
 6 -11.28820122402240  0.13291865596560 -1.24125283928393
 6 -9.91485716641664 -0.39256123042304 -1.01595661176118
 6 -12.30566939063906  2.47528809980998 -1.35196197099710
 6 -12.38030257655766 -0.74190160026003 -1.73335414391439
 6 -12.29678716711671 -0.99001141234123 -3.10783590219022
 7 -7.20563003130313 -1.40058967256726 -0.00895557255726
 6 -8.24632487228723 -2.24863003510351 -0.41335629082908
 6 -7.85638178377838 -3.52655092259226 -0.41935921322132
 6 -6.51305518961896 -3.60409474647465 -0.04474620652065
 6 -6.19289188558856 -2.20483876517652  0.16966977117712
 6 -8.71158862626262 -4.74983782618262 -0.71570004840484
 6 -5.37665213551355 -4.34441832533253  0.16311918451845
 8 -5.16123496139614 -5.53475795919592  0.07800483118312
 6 -4.18851243064306 -3.32621841164116  0.61418128342834
 6 -3.44711534243424 -3.66571179247925  1.83582395529553
 8 -3.69472107270727 -3.16073280948095  2.93851653275328
 8 -2.69135032873287 -4.68254297669767  1.61943052395240
 6 -2.14200478837884 -5.33952818191819  2.78618355385539
 6  2.78121063276328 -0.81882967756776 -1.09168036843684
 6  4.13753584258426 -0.46159433573357 -0.46521667066707
 6  5.21833531793179  0.18879514491449 -0.97728750145014
 6  5.10110853385339  1.12872552185219 -2.20767493279328
 6  6.46658099089909  0.31841369156916 -0.17929441464146
 6  7.66251378927893 -0.27156750365036 -0.90359731023102
 6  8.95187706030603 -0.10711584198420 -0.24180599339934
 6  10.27137776227623 -0.62055912761276 -0.90313128362836
 6  10.14899159935993 -2.01910284638464 -1.36207967296730
 6  11.42568544544454 -0.41344512531253  0.16817768636864
 6  12.79087399509951 -0.58075212631263 -0.59049907280728
 6  13.96932640104010 -0.22424362716272  0.26217328482848
 6  15.31796792169217 -0.15630936003600 -0.44155239503950
 6  15.83979564846485 -1.51414904870487 -0.97374699239924
 6  16.33363746964697  0.56294065406541  0.35209971717172
 6  17.78816340574057  0.67314871327133 -0.19002481708171
 6  18.67311768126813  1.39053727072707  0.63744417741774
 6  20.20748941814181  1.41038137163716  0.24863962716272
 6  20.48528988278828  1.99853815101510 -1.20530152285229
 6  20.94610554135414  2.07995093139314  1.24910027342734
 1 -4.05673715821582  3.26678219961996  1.81741632853285
 1 -9.98309870257026  3.97628846384639 -0.67605299679968
 1 -10.41203449284929 -2.34260360116012 -1.18550520272027
 1 -2.87807426432643 -1.12385069896990  2.16476716791679
 1 -2.29365297049705  1.46588017061706  1.19915056545655
 1 -2.02896735423542  0.91893234613461  3.80749446294629
 1 -3.14075913591359  2.14697875537554  3.45672783818382
 1 -3.70421386408641  0.29846453045305  3.67396980978098
 1 -2.21262374727473 -1.31599155955596 -0.50183409260926
 1 -2.34284595709571  0.23889113951395 -0.65477551715172
 1 -0.46335985338534  0.51036565046505  0.97286768586859
 1 -0.25591339333933 -1.10263477867787  1.41014496969697
 1 -5.93392216761676  6.81042968706871  0.92289799899990
 1 -5.16834382378238  5.93679704280428  2.23584988208821
 1 -4.43340729672967  5.62197336373637  0.53957713331333
 1 -9.05971802430243  6.07509365746575 -0.81966219441944
 1 -9.58955017091709  7.87593833273327  0.66750637243724
 1 -8.09713917971797  7.23684008350835  1.69695808130813
 1 -12.24475858095810  3.26248657465747 -1.95433843854385
 1 -13.34007367656766  1.94702859405941 -1.62382357385739
 1 -12.77856958805881  3.09033768846885 -0.37580882488249
 1 -12.43480825922592 -1.54579402450245 -1.07642259715972
 1 -13.41584030293029 -0.30460719751975 -1.26398192569257
 1 -13.12660901350135 -1.59811449764977 -3.37620750525052
 1 -12.56130969516952 -0.18390292789279 -3.80957445314531
 1 -11.44656093539354 -1.54716958405841 -3.47577619761976
 1 -8.81830143314331 -4.58126886978698 -1.84467773187319
 1 -8.12310167496750 -5.70997100130013 -0.65274488748875
 1 -9.74614449934993 -4.72741776307631 -0.32556437903790
 1 -3.46726742264226 -3.33418666936694 -0.17032230373037
 1 -1.32180034653465 -4.78330477017702  3.18824173947395
 1 -2.84606421502150 -5.62980459805981  3.65729856875688
 1 -1.54577268876888 -6.11076034923492  2.31831578447845
 1  2.63407271137114 -1.88015985188519 -1.40262422742274
 1  2.69418689628963 -0.14110983138314 -1.97295044724472
 1  4.48088899449945 -1.16083829902990  0.32039525552555
 1  4.18352731623162  1.15383409380938 -2.91206957665767
 1  5.01175658735874  2.09202946184618 -1.94768123632363
 1  5.95245255285529  0.89821092859286 -2.79336806780678
 1  6.86550861376138  1.33749774977498 -0.06775413261326
 1  6.27011113051305 -0.15514355175518  0.66364608130813
 1  7.63920130483048 -1.37555679087909 -1.22997432103210
 1  7.61942437833783  0.10559376747675 -1.92100502410241
 1  9.09496154775477  0.88124600960096 -0.06786915471547
 1  9.05281377007701 -0.46683218941894  0.81061892559256
 1  10.44027157855786  0.08435097279728 -1.72053694319432
 1  9.38054303980398 -2.17830580708071 -1.87946387118712
 1  10.92953550925093 -2.39954673857386 -1.99150339423942
 1  10.03990687668767 -2.70207214921492 -0.41360079977998
 1  11.54420210111011  0.53126535673567  0.46428791629163
 1  11.22331538493849 -1.03747970927093  0.96842746434643
 1  12.94219753865386 -1.61898005920592 -0.96534420202020
 1  12.74720847334733 -0.04743405240524 -1.51707506880688
 1  13.67159859655966  0.90573312931293  0.77928527152715
 1  14.23781653475348 -0.90765036973697  1.18393490999100
 1  15.22623591209121  0.32559204420442 -1.36942130013001
 1  16.01248869176918 -2.46143643574357 -0.12512396629663
 1  15.18245129582958 -1.98374074967497 -1.71547896299630
 1  16.74251388078808 -1.44480000490049 -1.50835230473047
 1  16.08726392709271  1.64606243994399  0.38785532983298
 1  16.41287573477348  0.25154597949795  1.43674643584358
 1  18.16512745144514 -0.45335188258826 -0.46873021342134
 1  17.66326339083909  1.19788710761076 -1.08728230403040
 1  18.35589638223822  2.37555171287129  0.94035204050405
 1  18.64094125442545  0.81572575357536  1.58412841314131
 1  20.67874278697870  0.35489163736374  0.26551361536154
 1  20.32163627022702  3.16007956985699 -1.10227382078208
 1  21.51335558765876  1.98835548834884 -1.68028939223922
 1  19.44588849324933  1.80344215501550 -1.84953192219222
 1  20.94757073227323  1.63563167226723  2.40882049924992
 1  22.01765347164716  2.01796302600260  1.08333329962996
 1  20.74716444634463  3.11065114841484  1.57516795729573

