%nproc=4
%Mem=2GB
# td=(NStates=1) CAM-B3LYP/6-31G(d,p) 

TD

0 1
12 -7.18273884688469  0.59623837193719  0.07400508790879
 6 -4.82580719871987 -1.97379855825583  0.51713824652465
 6 -4.77572750165016  2.78023647094709  1.17660402530253
 6 -9.44950968646865  3.08666416191619 -0.49769262896290
 6 -9.49929024272427 -1.80106561756176 -0.86722315141514
 7 -5.16480990559056  0.48037785588559  0.74845526382638
 6 -4.35488519461946 -0.67954777677768  0.84066208940894
 6 -2.94915392079208 -0.40799022472247  1.31454180838084
 6 -3.06584002240224  1.09199186748675  1.62714344504450
 6 -4.43160015491549  1.46392714151415  1.19225625552555
 6 -2.88588367046705  1.45575786388639  3.02613402230223
 6 -1.89420288128813 -0.67181244264426  0.07105106340634
 6 -0.43223064566457 -0.41691603880388  0.53859798909891
 6  0.50465160236024 -0.55380889378938 -0.55515089558956
 8  0.26396763686369 -0.88821422902290 -1.72984931663166
 8  1.81637344784478 -0.38497589398940 -0.13029981888189
 7 -7.02323277117712  2.59454504430443  0.24215291079108
 6 -6.00454973397340  3.36023699949995  0.66548008160816
 6 -6.38582583568357  4.74702899229923  0.83190387758776
 6 -7.69348205520552  4.82779341084108  0.33740213151315
 6 -8.08016228782878  3.46815601090109  0.02919546584658
 6 -5.42549050575058  5.79045151105111  1.21300606110611
 6 -8.56279407700770  6.04941597529753  0.19116610201020
 6 -8.46973086438644  7.25056117471747  0.78359460926093
 7 -9.07720999359936  0.58854171527153 -0.50487452115212
 6 -9.83866012571257  1.70134008710871 -0.68455477957796
 6 -11.20816991359136  1.36343468256826 -1.16209792929293
 6 -11.30327273117312  0.00319568366837 -1.21583029702970
 6 -9.92645832653265 -0.37432940724072 -0.80855587168717
 6 -12.22093091679168  2.42795336633663 -1.41020779557956
 6 -12.36242078837884 -0.77928533863386 -1.76869767826783
 6 -12.29424691309131 -0.96929934113411 -3.33088820742074
 7 -7.17715718401840 -1.46215582918292 -0.08783346034603
 6 -8.25991623142314 -2.31420659275928 -0.57697265246525
 6 -7.75684182978298 -3.62763103060306 -0.59424670197020
 6 -6.39958384248425 -3.57434177117712 -0.07664939683968
 6 -6.15048764516452 -2.26224450575058  0.13512631683168
 6 -8.54607207460746 -4.85220806320632 -0.91691016941694
 6 -5.24743921422142 -4.36636051955195  0.17395026762676
 8 -5.07176601450145 -5.58256273967397  0.14861189188919
 6 -4.16219979937994 -3.29074486428643  0.55787565286529
 6 -3.65402603350335 -3.70168538983898  1.96421679457946
 8 -3.85233683428343 -3.10522725892589  2.98680136123612
 8 -2.80641183488349 -4.80842556495650  1.86413499439944
 6 -2.31388197609761 -5.35871010011001  3.10814575007501
 6  2.85348786048605 -0.58729652425243 -1.17072827322732
 6  4.12140422942294 -0.39415759205921 -0.51770191919192
 6  5.10763424782478  0.50996726212621 -0.91465123782378
 6  5.16290471347135  1.38446109540954 -2.19427359265927
 6  6.29872420522052  0.56526837703770 -0.13198968416842
 6  7.59970750865086 -0.00592093899390 -1.00716766726673
 6  8.96221809440944  0.15842071167117 -0.12903471627163
 6  10.18516914141414 -0.44038110981098 -0.82238320882088
 6  9.96692339253925 -1.92022295839584 -1.16598006300630
 6  11.43464634153415 -0.12457623842384 -0.02235136653665
 6  12.72609751745174 -0.71452550365037 -0.62704272717272
 6  13.91756122452245 -0.20172137493749  0.14389145664566
 6  15.35993211811181 -0.28909263836384 -0.54215245504550
 6  15.61620328922892 -1.75551318511851 -0.94433405110511
 6  16.42687679357936  0.32870723072307  0.44921942914291
 6  17.70161475087509  0.48350974937494 -0.22923873847385
 6  18.74155452495249  1.13371158815882  0.69221965496550
 6  20.20119878907891  1.31092142564256  0.13271803500350
 6  20.32574392819282  2.04773307050705 -1.16468746144614
 6  21.10143107390739  1.91037397369737  1.25764112751275
 1 -3.91419290379038  3.51619714111411  1.58542312921292
 1 -10.04937533023302  3.75705654065407 -0.95507089858986
 1 -10.06383967336734 -2.59297863866387 -1.03396004820482
 1 -2.62510896779678 -1.07195550945094  2.09878056925692
 1 -2.25489909510951  1.49707328992899  0.97249790019002
 1 -1.97516197369737  0.85939639253925  3.58270198369837
 1 -3.04103916391639  2.53203726122612  3.10902306770677
 1 -3.90841428412841  1.11103578757876  3.78114052685269
 1 -2.19614209910991 -1.82834279467947 -0.20374428362836
 1 -2.01066273877388  0.14365161556156 -0.65554559415942
 1 -0.50437395479548  0.73014762866287  0.82790318941894
 1 -0.17123492549255 -1.16379089428943  1.44730868606861
 1 -5.82260103550355  6.67937658175818  0.74346005520552
 1 -5.25294228362836  5.99017238033803  2.24796109320932
 1 -4.37144110011001  5.47008817521752  0.90677385298530
 1 -9.33230528302830  5.82945909400940 -0.54274450265026
 1 -9.07919913581358  7.96395713461346  0.30615023682368
 1 -7.66454592039204  7.72590899039904  1.56030441594159
 1 -11.84286839193919  3.14208453445345 -2.25303830853085
 1 -13.03456312551255  1.96069996119612 -2.00463165466547
 1 -12.84099583068307  2.71781043574357 -0.42171341534153
 1 -12.25508028642864 -1.85666511161116 -1.37475243014301
 1 -13.41469018791879 -0.50201693849385 -1.30649617711771
 1 -12.87945429802980 -1.73227791399140 -3.87865775027503
 1 -12.17992155635564  0.16118158055806 -3.73479697539754
 1 -11.21719799909991 -1.59884475157516 -3.36247486748675
 1 -9.04933453645365 -4.72470321322132 -2.01079434353435
 1 -7.78752811761176 -5.67564756895690 -1.01072068506851
 1 -9.42497238213821 -5.18324334563456 -0.30626244884488
 1 -3.24331502740274 -3.48362161286129 -0.06896216771677
 1 -1.83284145064506 -4.58746518621862  3.53313622892289
 1 -3.22199180778078 -5.41796341394139  3.81830466936694
 1 -1.65425353685368 -6.25041431463146  2.75434938783878
 1  2.78739804390439 -1.64610644654466 -1.58053201820182
 1  2.71489896749675  0.03168744834483 -2.01977512971297
 1  4.22078298389839 -0.85862807800780  0.42464568056806
 1  4.28599756325633  1.70364907530753 -2.68924729442944
 1  5.59968538023802  2.29232949184919 -1.92192866106611
 1  5.70292760036004  0.68242935043504 -2.97183591459146
 1  6.74672673557356  1.62186618661866 -0.01809916711671
 1  6.49427354675468 -0.09543758115812  0.75925564226423
 1  7.29987737243724 -0.93681291649165 -1.20969229282928
 1  7.70153258915892  0.66248945704570 -1.91786471007101
 1  9.13522557415742  1.20501838683868  0.31444907710771
 1  8.72671115981598 -0.34147965416542  0.73584144784478
 1  10.14359191059106 -0.04540200250025 -1.79547443694369
 1  9.10430541604160 -2.14738271477148 -1.74653057785779
 1  10.77985054075408 -2.12929971387139 -1.69307355125513
 1  9.85188807480748 -2.40740268226823 -0.10132957265727
 1  11.54642232313231  0.93489571977198  0.07666915441544
 1  11.44266732013201 -0.69105506680668  1.07684830643064
 1  12.74520783968397 -1.73984214541454 -0.67758542614261
 1  12.90360411291129 -0.27274658365837 -1.63255661696170
 1  13.70366180288029  1.07861041704170  0.32246958995900
 1  13.94797755085509 -0.64606421112111  1.32818933543354
 1  15.32299558805881  0.34724420942094 -1.48826318431843
 1  15.74913235613561 -2.51789208130813 -0.23269472337234
 1  14.89315236593659 -2.11565394099410 -1.79048646374638
 1  16.51822145154516 -1.77610313521352 -1.36757822732273
 1  15.87055225592559  1.37356519021902  0.72442898719872
 1  16.53849829702970 -0.15622479757976  1.35012777397740
 1  18.10032097079708 -0.42267881528153 -0.74373771417142
 1  17.67209427392740  1.34898221712171 -1.03201677747775
 1  18.27590838343835  2.15234939263926  0.72883088838884
 1  18.76733389368937  0.56938111911191  1.80684068436844
 1  20.66048096079608  0.29264541274127  0.04697176117612
 1  19.95202930953095  3.03021658355836 -1.01157475087509
 1  21.45832008410841  2.16322297509751 -1.58492985628563
 1  19.88238214261426  1.45016682748275 -2.06983395239524
 1  21.25294126932693  1.19970807990799  2.29700931813181
 1  21.99652135843584  2.06417764746475  0.87886285258526
 1  20.88114784468447  2.78807889118912  1.64460490099010

