%nproc=4
%Mem=3GB
# td=(NStates=1) iop(3/107=0140000000,3/108=0140000000) CAM-B3LYP/6-31G(d,p) 

TD

0 1
12 -7.16029072077208  0.57306569006901  0.18091446144614
 6 -4.89106792329233 -1.95075230583058  0.50149555195520
 6 -4.70347637823782  2.81555027292729  1.08947905310531
 6 -9.38023478797880  3.04808236123612 -0.28967144244424
 6 -9.46703280128013 -1.75890765646565 -0.97961476637664
 7 -5.18814584578458  0.43214930553055  0.69145696969697
 6 -4.35357760506051 -0.72638378157816  0.82959085378538
 6 -2.99413563416342 -0.41851024902490  1.23859952905291
 6 -3.07232045894589  1.06694539613961  1.65986226552655
 6 -4.46054628932893  1.50615526662666  1.10638503240324
 6 -3.06615279607961  1.23494631393139  3.20608592319232
 6 -2.00621635133513 -0.61701769096910  0.01973578387839
 6 -0.53407911711171 -0.40190343834383  0.42294567686769
 6  0.51337326052605 -0.71512813471347 -0.66501629172917
 8  0.22496271307131 -1.13699747744774 -1.65506289938994
 8  1.73833243164316 -0.40466040444044 -0.18653404100410
 7 -7.05497314071407  2.55632884278428  0.38959988408841
 6 -5.99223936773677  3.38805257265727  0.80086596269627
 6 -6.38187309570957  4.74850171377138  0.79484774347435
 6 -7.74593937923792  4.84987679287929  0.44446057245725
 6 -8.17926745424542  3.50979791859186  0.09859785838584
 6 -5.48541057495750  5.97986746044605  1.01727188238824
 6 -8.58225823382338  5.99904017361736  0.15453606610661
 6 -8.41734014401440  7.32064121382138  0.63800786008601
 7 -9.13875291639164  0.58817581198120 -0.39608618251825
 6 -9.79288677497750  1.72876620092009 -0.52056486998700
 6 -11.23045699839984  1.43065250975098 -1.06009086878688
 6 -11.20812029922992  0.06450399619962 -1.29599962826283
 6 -9.93858146174617 -0.39422961636164 -0.93651585288529
 6 -12.25427636533654  2.42021726312631 -1.44660411311131
 6 -12.36993078597860 -0.68076420022002 -1.76838616921692
 6 -12.26199810871087 -1.19514970727073 -3.22433308450845
 7 -7.17765072747275 -1.41281611731173 -0.10931360646065
 6 -8.22677700400040 -2.23148169366937 -0.58900047994799
 6 -7.82589462926293 -3.64306485788579 -0.52318261806181
 6 -6.46324411491149 -3.61569455155516 -0.10740282198220
 6 -6.18654238593859 -2.16137409320932  0.09260109550955
 6 -8.55976831633163 -4.77607370577058 -1.06273965706571
 6 -5.27769323222322 -4.36196976037604  0.21179615371537
 8 -5.10785177747775 -5.48722557955796  0.14307025562556
 6 -4.24624912751275 -3.24355180258026  0.64641296289629
 6 -3.51914609140914 -3.65436337903790  1.97151311981198
 8 -3.66612939633963 -3.18191554945495  3.03858721692169
 8 -2.84757010981098 -4.78008662716272  1.82525156265627
 6 -2.14268322532253 -5.09765497139714  3.06489388978898
 6  2.78008432883288 -0.48504679357936 -1.21695521272127
 6  4.14919580478048 -0.38873414131413 -0.59829239203920
 6  5.10510600190019  0.48101462946295 -0.91152402940294
 6  5.09668339393939  1.40598827412741 -2.11273540854085
 6  6.37459373807381  0.46636725272527 -0.01867239163916
 6  7.57485893849385  0.04407585958596 -0.96459678837884
 6  8.89167687928793 -0.08927074317432 -0.19069517191719
 6  10.18676413701370 -0.49782144534453 -1.00583630363036
 6  10.06914019061906 -1.87105498539854 -1.61690865686569
 6  11.47766243004300 -0.21315620672067 -0.21494945744574
 6  12.80475821132113 -0.56746678017802 -0.94415192029203
 6  13.94819609140914 -0.18606432073207  0.08133454505451
 6  15.34597058805881 -0.29151823542354 -0.43757941044104
 6  15.73842011301130 -1.84246263456346 -0.58061988828883
 6  16.36283327602760  0.44223074037404  0.47717245194519
 6  17.83599118681868  0.45599932953295 -0.20950747774777
 6  18.78856927552755  1.08173625212521  0.74408766546655
 6  20.19925272967297  1.28262769526953  0.25592229822982
 6  20.40648349414942  2.28487579267927 -0.99324402030203
 6  21.11943701070107  1.64174587448745  1.36168010801080
 1 -4.06555691919192  3.68189144054405  1.54285038083808
 1 -10.04542666596660  3.81046332083208 -0.48479300550055
 1 -9.96859128322832 -2.54996053115312 -1.40439825922592
 1 -2.66753404060406 -1.12464266696670  2.15591208190819
 1 -2.18490195649565  1.38599066016602  1.25219886888689
 1 -2.13528661506151  0.60682978937894  3.69765010241024
 1 -3.22372948204820  2.30814003680368  3.63300132233223
 1 -3.92350515101510  0.64523967826783  3.69121080628063
 1 -2.04825994499450 -1.71180185098510 -0.33582158925893
 1 -2.15446181518152  0.02405002480248 -0.88828556315632
 1 -0.19593502220222  0.67796738403840  0.73819768276828
 1 -0.16273469376938 -1.03803457005701  1.31454491279128
 1 -5.52831700940094  6.99558707070707  0.43300313161316
 1 -5.49261073237324  6.42822570397040  2.06188820132013
 1 -4.54212905750575  5.60355462346235  0.69624035663566
 1 -9.36971723152315  5.95383876587659 -0.57454880758076
 1 -9.13698276197620  8.01113083408341  0.51850162586259
 1 -7.70170810291029  7.45541237763776  1.38562752305231
 1 -11.80137061006100  3.31260040714071 -2.06568239973997
 1 -13.16400369806981  2.03630237263726 -1.79308503670367
 1 -12.67614864756476  2.80339767386739 -0.47690813031303
 1 -12.31039300420042 -1.55189611241124 -0.94224772567257
 1 -13.29672197129713 -0.13952666316632 -1.51612736713671
 1 -12.98468366756676 -1.89111277337734 -3.57816877497750
 1 -12.56240664636464 -0.47246571787179 -3.94426340474047
 1 -11.16084092349235 -1.53062408960896 -3.34891316951695
 1 -8.92372699129913 -4.63479998079808 -2.05138120112011
 1 -8.08890327552755 -5.82710866416642 -0.94241419651965
 1 -9.39721390039004 -4.72510095849585 -0.38145041374137
 1 -3.38311583008301 -3.32976958255826 -0.08626636473647
 1 -1.52873626122612 -4.12901511491149  3.21775349294930
 1 -2.82914935223522 -5.27270679557956  3.88908994669467
 1 -1.41344186468647 -5.98247903270327  3.00016337743774
 1  2.57103515831583 -1.34905152795280 -1.78952040074007
 1  2.61632807410741  0.39100718551855 -1.87316837433743
 1  4.48217870457046 -0.84324273807381  0.34525592579258
 1  4.34446975847585  1.63246878957896 -2.97968845454545
 1  5.53446037823782  2.26710713461346 -1.81609904830483
 1  5.74673424192419  1.04468565946595 -2.99804606150615
 1  6.66960514441444  1.43245322592259  0.32605221912191
 1  6.30961883398340 -0.12002933963396  0.81511770727073
 1  7.25509763256326 -0.97847852085209 -1.25579033623362
 1  7.72508506700670  0.51074017701770 -1.82602342524252
 1  9.17884392869287  0.95841533903390  0.24107653575358
 1  8.82787590839084 -0.84346269896990  0.72272839623962
 1  10.26202083388339  0.32022817061706 -1.75801095909591
 1  8.82384199329933 -2.17924620812081 -2.12139052095210
 1  10.80671981258126 -1.90752415171517 -2.40267562566257
 1  10.16183838093809 -2.48983309800980 -0.57864525822582
 1  11.44981662326233  0.77540397379738  0.15666343714371
 1  11.38708630413041 -0.83629492709271  0.64598091819182
 1  12.77044499699970 -1.50076749604960 -1.28009028052805
 1  13.05896172607261 -0.12786785078508 -1.79676401010101
 1  13.79007042734273  0.96963232653265  0.17186201490149
 1  13.78494680528053 -0.65717209610961  1.12419479347935
 1  15.14893529492949  0.35182857985799 -1.41032230103010
 1  15.96151994879488 -2.44572391359136  0.30580244474447
 1  15.08706035043504 -2.40415493549355 -1.31318269176918
 1  16.76522480208021 -1.89899079607961 -1.05900241354135
 1  16.03775704920492  1.59803813751375  0.54857077337734
 1  16.40314439223922 -0.25927221202120  1.61926042074207
 1  18.15528226592659 -0.62892940694069 -0.42277247284729
 1  17.83078038763876  0.98640753485349 -1.08016375997600
 1  18.29431848874887  2.04793606160616  1.16593854065407
 1  18.69849581208121  0.50701554105411  1.78935218071807
 1  20.66634646694670  0.31015201280128 -0.32385649344934
 1  20.06571338983899  3.23516429292929 -0.74528671337134
 1  21.47309110991099  2.33368451055105 -1.14668264946495
 1  19.74109250685068  1.83767405760576 -1.98522690709071
 1  21.47668152165216  0.57997363826383  1.92824649344935
 1  22.19023691649165  1.69127959865987  1.05121177477748
 1  20.92647272577258  2.41476759395940  1.80969810651065

