%nproc=4
%Mem=2GB
# td=(NStates=1) CAM-B3LYP/6-31G(d,p) 

TD

0 1
<<<<<<< HEAD
12 -7.11657223022302  0.59439818791879  0.07866555395540
 6 -4.89404402240224 -1.93762494089409  0.56466299899990
 6 -4.81179110801080  2.85892433973397  1.13207957285729
 6 -9.47963269876988  3.05872136763676 -0.43125598529853
 6 -9.56052636633664 -1.74081959295930 -1.02222865196520
 7 -5.14676810141014  0.49365918401840  0.66949736803680
 6 -4.38916862296230 -0.67227704970497  0.86155417861786
 6 -2.91273027842784 -0.29650907660766  1.21860221442144
 6 -3.03865730413041  1.09958262656266  1.66653738443844
 6 -4.38541553645365  1.56343709250925  1.12633966386639
 6 -2.85731081318132  1.28793108120812  3.26266767566757
 6 -1.90518397939794 -0.72823808520852  0.10932489078908
 6 -0.47660508310831 -0.44278862606261  0.46262039133913
 6  0.58548968616862 -0.65001851475148 -0.58977435793579
 8  0.34623586368637 -1.06141154875488 -1.69401573327333
 8  1.79418122862286 -0.38213560996100 -0.21011780068007
 7 -7.18385883378338  2.64007959775978  0.43129182468247
 6 -6.13878315731573  3.44070504630463  0.87419095269527
 6 -6.49128638173817  4.77980226962696  0.88249893709371
 6 -7.80396310331033  4.84718535003500  0.49929832113211
 6 -8.17333160476048  3.44928412371237  0.12288483478348
 6 -5.49983794049405  5.90898336423642  1.22050681118112
 6 -8.72989078667867  5.99049008270827  0.21915890129013
 6 -8.78275216651665  7.10160627922792  1.02076832663266
 7 -9.11463373597360  0.63706656775678 -0.47475150885089
 6 -9.88870513021302  1.80026998009801 -0.74984130823082
 6 -11.13079217581758  1.39221756085609 -1.20017173667367
 6 -11.18160056395640 -0.04314895079508 -1.37242595659566
 6 -9.92211789248925 -0.44231620592059 -0.98451346744674
 6 -12.20252907660766  2.42046261726173 -1.51199797459746
 6 -12.36509105540554 -0.78795620572057 -1.81330213871387
 6 -12.23181066946695 -1.19967237843784 -3.36275139373937
 7 -7.17881735003500 -1.32627224082408 -0.26891156815682
 6 -8.24317455725573 -2.15411058315832 -0.58698365356536
 6 -7.79240538613861 -3.61147941544154 -0.61213849114911
 6 -6.43282716681668 -3.56458079507951 -0.06568830073007
 6 -6.10185278167817 -2.16012429372937  0.07911071527153
 6 -8.71029849724972 -4.79524236663666 -0.87184566296630
 6 -5.28973344364436 -4.35573945744574  0.26451932453245
 8 -5.04872371027103 -5.53671815521552  0.27911494219422
 6 -4.16560013941394 -3.32888867866787  0.69899976527653
 6 -3.44294492539254 -3.53401862316232  1.93567394029403
 8 -3.80840244084408 -3.02433917011701  3.02383506460646
 8 -2.66425761946195 -4.58737345974597  1.84970355125513
 6 -2.08312890079008 -5.01938616771677  3.07622255775578
 6  2.80428293999400 -0.63701149574957 -1.19812101250125
 6  4.16767885688569 -0.54200237653765 -0.55313546254625
 6  5.15136862126213  0.26179244464446 -1.01278105080508
 6  5.01160958395840  1.00010265956596 -2.32041620692069
 6  6.47573190599060  0.45516736693669 -0.25507199239924
 6  7.67280481838184 -0.33000334723472 -1.00437738823882
 6  8.89871174377438 -0.08852398279828 -0.23213502630263
 6  10.15516614111411 -0.59824689638964 -1.04791576207621
 6  9.97831453165317 -2.09460039613961 -1.26345981098110
 6  11.39607248414842 -0.23201698249825 -0.18373750515052
 6  12.82033694139414 -0.47106115721572 -0.77810783368337
 6  13.92626209460946 -0.05126632943294  0.09592666016602
 6  15.35830195509551 -0.13408713781378 -0.49626786658666
 6  15.61160282918292 -1.66694432823282 -0.81400101780178
 6  16.45439954585459  0.45589994999500  0.41416592379238
 6  17.79271386078608  0.57639903830383 -0.20116593119312
 6  18.75261563106311  1.24390260726073  0.74724515751575
 6  20.28134680388039  1.30552088558856  0.22476723992399
 6  20.45162651645165  2.15986428362836 -1.02930392309231
 6  21.21251218201820  1.74267720402040  1.45908127152715
 1 -4.17607909240924  3.60646616801680  1.56098068496850
 1 -10.11483187588759  3.82020285528553 -0.72129752125212
 1 -10.20937422682268 -2.49174851565157 -1.31165781798180
 1 -2.56554301120112 -0.96846516041604  2.04777546874687
 1 -2.28741234643464  1.82259584218422  1.25630628102810
 1 -1.69890434793479  1.05355580848085  3.56712042554255
 1 -3.02882794279428  2.31687574507451  3.40975314071407
 1 -3.59498294099410  0.75795047904791  3.79364177697770
 1 -2.32904538943894 -1.72464242464246 -0.24714862406241
 1 -2.23453512601260 -0.09710245984598 -0.74341438103810
 1 -0.42138565596560  0.54628924282428  0.93553395249525
 1 -0.21384918691869 -1.21735625082508  1.35450940614061
 1 -5.95826460186019  6.80875952005201  0.65954166336634
 1 -5.46054304370437  5.98611197429743  2.29842613971397
 1 -4.59424338033803  5.56986815321532  0.78825200080008
 1 -9.25287734023402  5.95478162626263 -0.61098132633263
 1 -9.50908212411241  7.95926666556656  0.93219284108411
 1 -8.17556702250225  7.13888028752875  2.03908229372937
 1 -11.86015012011201  3.13055338133813 -2.05769877457746
 1 -12.98978864806481  1.79351324252425 -2.11381257275728
 1 -12.55760749184919  2.93492214691469 -0.42269351335134
 1 -12.45864064246425 -1.60154960006001 -1.26259121402140
 1 -13.20817953685368 -0.27854459125913 -1.63823935143514
 1 -13.22378873147315 -1.92184687088709 -3.61491137563756
 1 -12.32486605080508 -0.36736127372737 -4.15491898759876
 1 -11.43286956625663 -1.87721258835884 -3.45549416941694
 1 -9.07071667466747 -4.82852359525953 -1.80407367146715
 1 -7.97444680948095 -5.70967097129713 -0.84248386138614
 1 -9.39090897579758 -4.77825284658466 -0.08818064066407
 1 -3.41677237313731 -3.46859010971097 -0.03716898839884
 1 -1.19785795229523 -4.43617005670567  3.47022993829383
 1 -2.80389999859986 -5.08394001160116  3.93663650255026
 1 -1.51155926742674 -5.87891716491649  2.71660561346135
 1  2.47227653175318 -1.66950878677868 -1.55175914091409
 1  2.69005648324833  0.02868714831483 -2.06548970117012
 1  4.22279318491849 -1.11034324952495  0.26849006500650
 1  4.09716868036804  0.91445015541554 -2.69994836453645
 1  5.27851326302630  2.14362462136214 -2.21590805900590
 1  5.78998630623062  0.66425753325333 -3.13967269826983
 1  6.83942600550055  1.68766276627663 -0.15164252145214
 1  6.34256837623762 -0.06487452485248  0.84317403410341
 1  7.39151653635364 -1.43290252545255 -0.74720604420442
 1  7.74166660256026  0.01745495359536 -2.06047897149715
 1  8.91069312091209  1.13709159415942 -0.08612097989799
 1  8.66177466616662 -0.70015552175217  0.73571143484348
 1  10.40430798219822 -0.12866032833283 -2.01301619111911
 1  9.11175616111611 -2.57006498299830 -1.91011693649365
 1  10.74202675837584 -2.44850163406341 -1.66468071197120
 1  10.25834872087209 -2.67609955195520 -0.20745018471847
 1  11.29680736163616  0.76990922112211  0.35087657515752
 1  11.37744079747975 -1.03530949224922  0.61433205480548
 1  12.91380469936994 -1.41175933713371 -1.04174184178418
 1  12.89992374487449  0.01314200520052 -1.78704206550655
 1  13.99461089778978  1.12688524452445  0.16022336533653
 1  13.85361811491149 -0.46219582428243  1.02493901040104
 1  15.47875116361636  0.45422490749075 -1.35991034903490
 1  15.74869231213121 -2.20492078417842  0.13545209130913
 1  14.65890894159416 -1.84234661026103 -1.40111752685268
 1  16.43728335773578 -1.93068859375938 -1.61015248474848
 1  16.17952315301530  1.45711354505451  0.84775131943194
 1  16.52763721092109  0.00596142104210  1.33317607880788
 1  18.09728066676668 -0.33231977937794 -0.36790013041304
 1  17.75239230373037  1.04087140604060 -1.05940951675168
 1  18.38048884148415  2.33077723542354  0.92865087038704
 1  18.76258341864187  0.69752393339334  1.80353035333533
 1  20.59550446314632  0.26262241044104  0.06520358435844
 1  20.20790489708971  3.22563612551255 -0.75238883228323
 1  21.46600085218522  2.01471812461246 -1.66510787408741
 1  19.66262016641664  1.67774958575858 -1.73498046704670
 1  21.22702867806781  0.79133724282428  2.22449206640664
 1  22.15363707000700  1.72181341104110  0.81602656895690
 1  20.71540127002701  2.51399148244825  2.12385282578258
=======
12 -7.09165973897390  0.52936168426843  0.11978966636664
 6 -4.87666228422842 -2.02120329872987  0.48056458915892
 6 -4.75805573447345  2.85484393169317  1.19082544744474
 6 -9.29208394389439  3.05088058355836 -0.47746060576058
 6 -9.49410972467247 -1.71357686868687 -0.79625605470547
 7 -5.13324674927493  0.37785760386039  0.82496291459146
 6 -4.35607531363136 -0.65337515951595  0.77729575277528
 6 -2.92660166556656 -0.35743516921692  1.33108346254625
 6 -3.02119555795580  1.04111677997800  1.71387211791179
 6 -4.35529252415242  1.46369711851185  1.21777880778078
 6 -2.86529161126113  1.25136742484248  3.25776718561856
 6 -1.90416387738774 -0.64573983538354  0.15228918721872
 6 -0.45761318391839 -0.50155450265027  0.66470059935994
 6  0.52146328352835 -0.73254676757676 -0.53656903740374
 8  0.23102434253425 -1.04508991659166 -1.65492182388239
 8  1.72787459795980 -0.43506090249025 -0.17084387328733
 7 -7.03215366326633  2.56937252705271  0.27469616511651
 6 -6.04428370737074  3.40572154795480  0.71338487208721
 6 -6.32636989008901  4.77793208260826  0.64565525272527
 6 -7.58996170317032  4.81383201470147  0.26572496379638
 6 -8.08429270087009  3.46696589188919 -0.08739619331933
 6 -5.36581453815382  5.81288375427543  0.94606936743674
 6 -8.54440223782378  5.93848488218822  0.13112009740974
 6 -8.36152004330433  7.11590770937094  0.83710996079608
 7 -9.04235650825082  0.65205806690669 -0.61092512621262
 6 -9.82007826752675  1.78280823392339 -0.82493881798180
 6 -11.18336743334333  1.48248658775878 -1.07455917541754
 6 -11.20145254915492  0.08154351845185 -1.25436415041504
 6 -9.88118379907991 -0.37601957625763 -0.86509152525253
 6 -12.24407323102310  2.50659123012301 -1.32884965976598
 6 -12.35080962726273 -0.74101151125112 -1.63403421192119
 6 -12.49559704810481 -0.99166157735774 -3.28883400200020
 7 -7.12396186448645 -1.33187280088009 -0.13564824182418
 6 -8.25835607540754 -2.21634680678068 -0.51658661386139
 6 -7.80753689928993 -3.60053832133213 -0.41750902820282
 6 -6.50212409650965 -3.57966230323032 -0.08885061696170
 6 -6.17866046244624 -2.26762504380438  0.08414121832183
 6 -8.66233370077008 -4.76678952135214 -0.95386386478648
 6 -5.32669714001400 -4.48868275177518  0.12748562116212
 8 -5.21962079998000 -5.66786126952695  0.23406043674367
 6 -4.14052763216322 -3.26571236103610  0.46475634093409
 6 -3.52909354025403 -3.68202342364236  1.81154152705271
 8 -3.83939554015402 -3.20956769296930  2.90275295639564
 8 -2.76891808550855 -4.67401212361236  1.73219180008001
 6 -2.13883447134713 -5.23929815891589  2.90845578107811
 6  2.80298280998100 -0.59204699929993 -1.29904110451045
 6  4.04706679567957 -0.24442261856186 -0.59291944094409
 6  5.04117760216022  0.41879814521452 -0.92093186588659
 6  5.08862728572857  1.28274092339234 -2.16297046234623
 6  6.34835916871687  0.51555340554055 -0.20986747194719
 6  7.58489602750275 -0.04079442634263 -0.91438838933893
 6  8.89401127372737 -0.05774090449045 -0.01632344514451
 6  10.21873249774977 -0.54965203690369 -0.86752772327233
 6  10.02584928512851 -1.94636557265727 -1.24973843884388
 6  11.40008288518852 -0.35541932273227  0.06426729532953
 6  12.71666657435743 -0.56502055315532 -0.66868689158916
 6  13.89321879027903 -0.18346954975498  0.29866693419342
 6  15.28198432333233 -0.15977970707071 -0.35702394219422
 6  15.74919658855886 -1.63526115991599 -0.76418603630363
 6  16.37517162306231  0.41855621562156  0.52265677287729
 6  17.78142273167317  0.54084548294829 -0.12593840844084
 6  18.74549491899190  1.38494671167117  0.62554298729873
 6  20.20232890209021  1.29675000850085  0.12539730293029
 6  20.16254760856086  2.09067736493649 -1.26607760046005
 6  21.09684061486149  1.95586852315232  1.09832519591959
 1 -3.93020450495050  3.66959248064807  1.25812039893989
 1 -10.06241663436344  3.86656749174918 -0.82848824032403
 1 -10.23117640704070 -2.46825616641664 -1.10968762096210
 1 -2.71360781768177 -1.16896521042104  2.15220591179118
 1 -2.27510111531153  1.51053463606361  1.38217886828683
 1 -1.83924838233823  0.98487894079408  3.55276899039904
 1 -2.79819487948795  2.40235429292929  3.45041720712071
 1 -3.56721016371637  0.81569625362536  3.94519693249325
 1 -1.96023850875088 -1.55481544194419 -0.04946885608561
 1 -2.03830550305030 -0.06559930953095 -0.91989202880288
 1 -0.40479399679968  0.68600321422142  0.75289568866887
 1  0.00941313931393 -1.07547206240624  1.58304225942594
 1 -5.62490126552655  6.88649729382938  0.67481319051905
 1 -5.32805979537954  6.13160652375238  1.91542783988399
 1 -4.29453340934093  5.64450561696170  0.73489666526653
 1 -9.26762881538154  5.93464961306131 -0.56733696189619
 1 -8.97459867576758  8.11423216211621  0.77847746954695
 1 -7.62566203200320  7.27824422392239  1.57120550605061
 1 -11.70914501960196  3.31622194819482 -2.03838684338434
 1 -13.18837850705070  1.98402229342934 -1.79536072757276
 1 -12.29544127522752  3.08330698539854 -0.31644288828883
 1 -12.29158393679368 -1.81395084018402 -1.39580453535354
 1 -13.33736245514551 -0.41454819161916 -1.28760428792879
 1 -13.42791914451445 -1.39006369256926 -3.41490137463746
 1 -12.32323588778878  0.02814827722772 -3.55712920862086
 1 -11.50990727002700 -1.31273614071407 -3.50108872887289
 1 -8.86457606060606 -4.68615935883588 -1.89694295839584
 1 -8.00820018481848 -5.70422042624262 -0.90433004600460
 1 -9.65700558545855 -5.02484750605061 -0.30262208480848
 1 -3.53188388428843 -3.64127737843784 -0.42232750425042
 1 -1.19961812831283 -4.62015845554555  3.31284419971997
 1 -2.89661927052705 -5.59212082968297  3.70977381628163
 1 -1.74036214771477 -6.21809108230823  2.50135408830883
 1  2.66957626172617 -1.61390322622262 -1.50397436243624
 1  2.71519899749975  0.01193547314731 -2.00686383858386
 1  4.24658556415642 -0.90123233843384  0.27674089008901
 1  3.89131809530953  1.32336104650465 -2.71375974567457
 1  5.33522893459346  2.38619887878788 -2.16142261046105
 1  5.74865217281728  1.01052215971597 -2.84293302430243
 1  6.58962102500250  1.46933093309331  0.05499814261426
 1  6.02097621702170  0.16575853845385  0.90482019871987
 1  7.40800818551855 -0.97843707890789 -1.51422274587459
 1  7.65323775967597  0.56441965006501 -1.95538846244624
 1  8.96939899149915  0.98331621662166  0.36253388558856
 1  8.63076156485648 -0.62991849804981  0.93966182988299
 1  10.33828137953795  0.16764930263026 -1.67129201870187
 1  9.10229521502150 -2.38906688318832 -1.88608453325333
 1  10.90751330703070 -2.56566335023502 -1.89690393429343
 1  10.20212309830983 -2.67430937293729 -0.42359179887989
 1  11.48346602750275  0.80208243844384  0.27563905140514
 1  11.42838589198920 -1.06931289258926  0.82404302590259
 1  12.65902922182218 -1.62571073227323 -0.92930059765977
 1  12.54450820332033 -0.08864817381738 -1.56393975527553
 1  13.49601103780378  0.80084264026403  0.90234757775778
 1  13.94149690279028 -1.05019462416242  1.09519603610361
 1  15.38042133063306  0.31208069306931 -1.27569192719272
 1  15.36891433433343 -2.25584587668767  0.10103864996500
 1  14.99187223792379 -1.95929830543054 -1.37850526562656
 1  16.54483411281128 -1.76852237713771 -1.29963143264326
 1  15.99622482318232  1.43049088278828  0.87733427772777
 1  16.46735118231823 -0.24836401150115  1.44906766796680
 1  18.21016195489549 -0.31798834623462 -0.35747908830883
 1  17.57915497999800  1.15432275117512 -1.04668824462446
 1  18.43238403100310  2.47512166986699  0.49947795309531
 1  18.49559671997200  1.04815899689969  1.77348734903490
 1  20.48191310401040  0.17108325652565 -0.02346528252825
 1  19.63065717231723  3.11307486938694 -1.01768536193619
 1  21.22839709180918  2.25138179097910 -1.49387075037504
 1  19.66660056445645  1.45952776357636 -2.10468743774377
 1  21.12476845204520  1.50086819591959  2.25545516271627
 1  22.04469617591759  2.02510374007401  0.41127609390939
 1  20.67166689658966  3.01672175547555  1.20389082958296
>>>>>>> 8e03b5b5abfc0030b3aa597dc0de36371bfbd096

