%nproc=4
%Mem=2GB
# td=(NStates=1) CAM-B3LYP/6-31G(d,p) 

TD

0 1
12 -7.08761933493349  0.57915666376638  0.12865055245525
 6 -4.87941255925593 -1.93695487388739  0.57329386208621
 6 -4.77807773667367  2.84274272157216  1.25712207710771
 6 -9.32800753625362  3.06601209670967 -0.45849870957096
 6 -9.46787710141014 -1.66478198919892 -0.95630205930593
 7 -5.09764318891889  0.39072889098910  0.86009642794279
 6 -4.28125783188319 -0.76617643964396  0.86786480968097
 6 -2.89343834923492 -0.45261468716872  1.30681103530353
 6 -2.96805024342434  1.01805447374738  1.65839657035704
 6 -4.40718771367137  1.46831758055806  1.19879690959096
 6 -2.85675075717572  1.26016830493049  3.14904631353135
 6 -1.90686414741474 -0.65442070347035  0.14483844214421
 6 -0.48885630823082 -0.47846219341934  0.67176130543054
 6  0.39562069926993 -0.68367188008801 -0.46479185968597
 8  0.16644788488849 -0.93064847244724 -1.64313064476448
 8  1.72471428192819 -0.59383678007801 -0.12158894779478
 7 -7.13187363526353  2.59037462726273  0.48063675917592
 6 -6.12158143714371  3.32733370917092  0.87982151575158
 6 -6.29233648674867  4.80919520892089  0.80208089528953
 6 -7.69356206320632  4.88801943344334  0.38687707900790
 6 -8.04738901050105  3.50878007330733 -0.00422787648765
 6 -5.33446140284028  5.88196066196620  1.13141790229023
 6 -8.50897869546955  6.04173520722072  0.00839782518252
 6 -8.31317520882088  7.28804492309231  0.58466471627163
 7 -9.17181945454545  0.71833469456946 -0.49047308100810
 6 -9.86398265796580  1.75143509660966 -0.72068839293929
 6 -11.17764686128613  1.49843818291829 -1.28625034453445
 6 -11.13221562546255  0.16862222632263 -1.41969068306831
 6 -9.84383006370637 -0.36220819511951 -0.93133814991499
 6 -12.31877070077008  2.36164673567357 -1.50462723752375
 6 -12.38788333463346 -0.76057346744674 -1.89788059655966
 6 -12.45272276067607 -0.91943435463546 -3.38384350295030
 7 -7.15592506080608 -1.28751836543654 -0.24450912791279
 6 -8.20023026282628 -2.17918309040904 -0.62322727792779
 6 -7.86395254085409 -3.52440070757076 -0.54417169446945
 6 -6.55915980008001 -3.50648498549855 -0.05520725262526
 6 -6.11384398079808 -2.19473775507551  0.18045084928493
 6 -8.52589005640564 -4.87375021742174 -0.89041752015202
 6 -5.41478594889489 -4.32898678217822  0.30521339393939
 8 -5.23093193109311 -5.52494697809781  0.18749578027803
 6 -4.19791337073707 -3.32408819861986  0.58640850615062
 6 -3.48020865176518 -3.71084630593059  1.90048042094209
 8 -3.63980558115812 -3.13131986818682  2.86973965506551
 8 -2.72168336203620 -4.84549927232723  1.80379896079608
 6 -2.06037662556256 -5.35644987408741  2.98494342984298
 6  2.72482499419942 -1.00005780038004 -1.07699890029003
 6  4.07685977497750 -0.66463463976398 -0.54458460746075
 6  5.00808429282928  0.16865313071307 -0.94977475017502
 6  4.93620204320432  0.99675232453245 -2.15122928822882
 6  6.32455678847885  0.38040989118912 -0.25385187038704
 6  7.61406894479448 -0.22347269416942 -0.97817476797680
 6  8.85478735133513 -0.01570670107011 -0.23803561636164
 6  10.18038866336634 -0.44624169586959 -0.88975994649465
 6  10.11500820102010 -1.95797673377338 -1.21804526952695
 6  11.36369924682468 -0.12523630443044  0.05521639023902
 6  12.76268117581758 -0.41571562266227 -0.68793881678168
 6  13.97303677207721 -0.00502170497050  0.19247631513151
 6  15.34652077697770 -0.11768549764977 -0.51558979877988
 6  15.60251192009201 -1.49602723652365 -1.00945056275628
 6  16.41942604850485  0.48843320332033  0.46601110831083
 6  17.73298788818882  0.72379377777778 -0.21234704930493
 6  18.73819418891889  1.30878909590959  0.72938337133713
 6  20.21101977117712  1.33062339583958  0.12675743894389
 6  20.25939729352935  2.16823512071207 -1.12715370807081
 6  21.20110104090409  1.84775771207121  1.23422878627863
 1 -4.13969545404540  3.60899642104210  1.72530711761176
 1 -9.87726811951195  3.94038487348735 -0.68854424592459
 1 -10.21665495489549 -2.27921726252625 -1.18515516771677
 1 -2.86780323722372 -0.88660697459746  2.23548423962396
 1 -2.19020262546255  1.66090967356736  1.10713136353635
 1 -1.76210066756676  1.20690114301430  3.48331204470447
 1 -3.51706676667667  2.12959701720172  3.45980814621462
 1 -3.58460190289029  0.23654833883388  3.56601901470147
 1 -1.87562004690469 -1.67946790719072 -0.28197210641064
 1 -2.15640731323132  0.12674992539254 -0.71786182578258
 1 -0.57091060846085  0.83964857875788  0.79360976007601
 1 -0.24189199119912 -1.01415593079308  1.58334228942894
 1 -5.47023579897990  6.69901854595460  0.56251196039604
 1 -5.36453344274427  6.11606496959696  2.20433673077308
 1 -4.29657361336134  5.57853902030203  1.23582675827583
 1 -9.39156120862086  5.91670781888189 -0.40435066326633
 1 -8.94843605950595  8.19688042694269  0.64469409120912
 1 -7.43773323912391  7.53265966546655  1.29236762226223
 1 -12.17958206330633  2.88197852385239 -2.46523952865287
 1 -13.24924459365937  1.79848373957396 -1.55452664416442
 1 -12.35637736883688  2.97295595029503 -0.66967821182118
 1 -12.51049582798280 -1.74889433453345 -1.25723067796780
 1 -13.29690840974097 -0.31942867966797 -1.42732826032603
 1 -13.34755110771077 -1.58610329652965 -3.52793267776778
 1 -12.59110267446745  0.02342780518052 -3.99699319501950
 1 -11.54563084238424 -1.20576544364436 -3.74667328732873
 1 -9.08955855885589 -4.93349409230923 -1.82630589468947
 1 -7.85203456825682 -5.67841784598460 -0.81534114711471
 1 -9.37763764866487 -4.88100312161216 -0.23321514411441
 1 -3.46871756765677 -3.59351260196020 -0.10550582208221
 1 -1.66009417591759 -4.53855029472947  3.60445336063606
 1 -2.85630523912391 -5.78176979457946  3.72510534943494
 1 -1.46760487198720 -6.16530580378038  2.71421537443744
 1  2.67643694779478 -2.15181701760176 -1.37559152415242
 1  2.64044152175218 -0.33889961036104 -1.98891204340434
 1  4.32000290589059 -1.20290250545055  0.29251246724672
 1  3.86056502000200  0.86843555395540 -2.36780515021502
 1  5.15653106480648  2.02890314921492 -2.17128359655966
 1  5.45554286188619  0.65499660716072 -2.94604333533353
 1  6.56951901480148  1.45275927592759 -0.17071442864286
 1  6.33648776817682 -0.21865990339034  0.73853357005701
 1  7.68131551625163 -1.25944517971797 -1.25107643124312
 1  7.67536997289729  0.33768697679768 -1.90327325092509
 1  8.97630968256826  0.97375526052605 -0.07795016281628
 1  8.77603609230923 -0.39093459965997  0.87340520422042
 1  10.29660721212121  0.18126066376638 -1.73310820032003
 1  9.27366235173517 -2.09766774327433 -1.82138806360636
 1  10.80260281598160 -2.22535931983198 -1.77262150605061
 1  10.18131101710171 -2.58380032203220 -0.16621606130613
 1  11.16859454035404  0.94554678487849  0.19293078057806
 1  11.24355740914091 -0.80047600890089  0.92658327992799
 1  12.92073539243924 -1.51581974317432 -0.91322899049905
 1  12.69894364686469 -0.01948125712571 -1.71328468976898
 1  13.53324476117612  0.98412096809681  0.74030137313731
 1  14.02193494659466 -0.97433703840384  0.92536905340534
 1  15.42051534003400  0.53408289328933 -1.35286964496450
 1  15.87767521042104 -2.22021231333133 -0.15625707960796
 1  14.92970602130213 -1.80558293389339 -1.73012042714271
 1  16.40609023842384 -1.44943046794680 -1.77974944444444
 1  16.27336253695369  1.41146898059806  0.97134367866787
 1  16.63594804200420 -0.38231740684068  1.14883764496450
 1  18.30684162286229 -0.29847639503950 -0.49440278067807
 1  17.59707677217722  1.40514783368337 -1.15784936073607
 1  18.41719251185118  2.07666182388239  1.01329933523352
 1  18.67264442474248  0.55786996799680  1.76182618291829
 1  20.26478139083908  0.35495164336434 -0.07300023602360
 1  19.84187829442944  3.05047860976098 -1.03078667206721
 1  21.39709396149615  2.18772542534253 -1.25837720102010
 1  19.90705460986099  1.66730854165417 -1.99142611161116
 1  21.39577555275527  1.14796290539054  2.03166278347835
 1  22.14252595889589  1.98955018471847  0.64195916221622
 1  20.99838956885689  3.00075015831583  1.54670511101110

