%nproc=4
%Mem=2GB
# td=(NStates=1) CAM-B3LYP/6-31G(d,p) 

TD

0 1
<<<<<<< HEAD
12 -7.07003757675768  0.60635938403840  0.12438012541254
 6 -4.75965058305831 -1.94830600900090  0.46096262896290
 6 -4.83452338123812  2.84972341964196  1.02125849074907
 6 -9.42526726222622  3.09569506500650 -0.31210407010701
 6 -9.54005431913191 -1.70052556355636 -0.70687711681168
 7 -5.10282370697070  0.36758657675768  0.73765418371837
 6 -4.29729943604361 -0.69013883588359  0.64400242344234
 6 -2.87084609000900 -0.44185361106111  1.12833318751875
 6 -2.90831426982698  1.08109077737774  1.49264999569957
 6 -4.33263025792579  1.52141289008901  1.04161119101910
 6 -2.78107318941894  1.25388767686769  3.06391780068007
 6 -1.82271573257326 -0.61815707710771  0.02491644994499
 6 -0.36276369896990 -0.45701004820482  0.35743987328733
 6  0.55260639783978 -0.70198371127113 -0.77601298179818
 8  0.29100034013401 -1.11326673427343 -1.92340867256726
 8  1.78188999949995 -0.46502389878988 -0.34773156205621
 7 -7.08793924182418  2.58723431323132  0.25078377387739
 6 -6.08879815881588  3.33637461326133  0.72636617021702
 6 -6.34277153025302  4.76496078547855  0.71760244744474
 6 -7.69877258425843  4.88858949044904  0.27151554285429
 6 -8.17331160276028  3.42249144444444  0.06310885718572
 6 -5.44165212191219  5.83669613551355  1.03597835833583
 6 -8.55720351795179  5.97236827052705  0.22465945134513
 6 -8.38577246854686  7.24504062266227  0.77573382318232
 7 -9.14094636723672  0.69969283038304 -0.41151518521852
 6 -9.89692595229523  1.76488644174417 -0.46081240534053
 6 -11.22197129372937  1.47687602670267 -0.97602932243224
 6 -11.32240464436444  0.12634799889989 -1.19819853385339
 6 -9.98764444514451 -0.38877085138514 -0.73386840294029
 6 -12.23946276997700  2.47631820282028 -1.15374214901490
 6 -12.47993253955396 -0.72737014711471 -1.55630643914391
 6 -12.39345683408341 -1.15181759295930 -2.96391150975098
 7 -7.22731219951995 -1.40091970557056 -0.09197387438744
 6 -8.20875111491149 -2.19177434953495 -0.51927688288829
 6 -7.83259940554055 -3.58106637413741 -0.60716799409941
 6 -6.44807869196920 -3.51289562656266 -0.12414414631463
 6 -6.18899149554955 -2.18558683998400  0.13962676687669
 6 -8.50926839423942 -4.72776561896190 -0.85039351775178
 6 -5.35352982328233 -4.39622350585059  0.16797967056706
 8 -5.24473331123112 -5.56800128352835  0.17454448514851
 6 -4.12031561096110 -3.39068485828583  0.59392925822582
 6 -3.53023365426543 -3.65775099639964  1.93126349924992
 8 -3.71178277887789 -3.04453118931893  2.94676735783578
 8 -2.81863305700570 -4.69049377177718  1.74435301620162
 6 -2.19626021392139 -5.15070930003000  2.94377931343134
 6  2.83982649434943 -0.72630042464246 -1.34460566096610
 6  4.16041813081308 -0.54247242354235 -0.71081123012301
 6  5.10894437883788  0.21995826122612 -1.18188796149615
 6  5.16590501350135  1.17990063936394 -2.45359952525253
 6  6.37403173597360  0.33441529172917 -0.36329281448145
 6  7.61306884478448 -0.21093144004400 -1.04101105160516
 6  8.87398927152715 -0.09336446684668 -0.08656046884688
 6  10.18323894839484 -0.51880895259526 -0.85710668116812
 6  10.12012871307131 -2.09394033013301 -1.23571703670367
 6  11.45794867176718 -0.21896567736774  0.12525339393939
 6  12.83049795749575 -0.49983403450345 -0.55150517341734
 6  13.91568103650365 -0.05724692749275  0.26825389288929
 6  15.33939006390639 -0.14711844094409 -0.50856909670967
 6  15.49396106500650 -1.78503613741374 -0.74273389108911
 6  16.39811391729173  0.34062842284228  0.43063757095710
 6  17.76571116051605  0.53366476487649 -0.10323613821382
 6  18.69171954145414  1.32938115511551  0.91341177417742
 6  20.19248791799180  1.45667600110011  0.34371913511351
 6  20.11660301410141  2.36204450165017 -0.95610660336034
 6  21.21051198199820  1.93528646494649  1.35241060446045
 1 -4.14253573807381  3.63806932833283  1.35565015191519
 1 -10.12357274997500  3.90182101710171 -0.40225561706171
 1 -10.31905519491949 -2.40480982178218 -1.05988264046405
 1 -2.59102555945595 -1.15334364826483  1.84022471367137
 1 -2.09364296949695  1.60443402600260  0.98554920532053
 1 -1.72650710821082  0.99182963586359  3.43576729022902
 1 -2.95548060806081  2.25648970647065  3.32098426382638
 1 -3.49714315701570  0.63928861286129  3.66671908470847
 1 -1.96321880678068 -1.56591655205521 -0.64961887108711
 1 -2.11236290879088  0.08727597799780 -0.62288232783278
 1 -0.21062457985799  0.68240285418542  0.73474387348735
 1 -0.34937273927393 -1.13936845204520  1.18751270647065
 1 -5.58356713211321  6.90756940104010  0.54623033223322
 1 -5.46669365876588  6.35847921102110  2.17052334943494
 1 -4.42014597059706  5.56501766816682  0.61176435203520
 1 -9.44602665516552  5.86815296339634 -0.42797302550255
 1 -9.16851806770677  8.01593233213321  0.62845246704671
 1 -7.45480494629463  7.57078347784778  1.46224460996100
 1 -11.94280838593859  3.22906323232323 -1.95562856755676
 1 -13.12575224442444  1.89429332053205 -1.61878306980698
 1 -12.63137486858686  2.91761041574157 -0.28007925192519
 1 -12.56827160556056 -1.63328277337734 -0.81111606650665
 1 -13.41346006490649 -0.01971870867087 -1.39762529002900
 1 -13.22812916551655 -1.73679836603660 -3.41623150765077
 1 -12.45673923812381 -0.24115865346535 -3.65163865956596
 1 -11.65301158045805 -1.56045091219122 -3.30668928892889
 1 -8.88967857085709 -4.84201494439444 -1.86993025712571
 1 -8.06926629142914 -5.78083808800880 -0.71883149614961
 1 -9.29191907680768 -4.74582960426043  0.01271944934493
 1 -3.48045874177418 -3.57384063476348 -0.28155342684268
 1 -1.74617278377838 -4.20071651135113  3.38980189548955
 1 -2.98494810341034 -5.62425404300430  3.70843368226823
 1 -1.51413952545254 -5.78744801800180  2.69470342324232
 1  2.65501480558056 -1.73894573047305 -1.69891385638564
 1  2.67475495309531 -0.21468718911891 -2.27510066226623
 1  4.19144004960496 -1.15484769997000  0.28729194519452
 1  3.98418738223822  0.99889860026003 -2.78086645634563
 1  5.58710412211221  2.18103836273627 -2.12467893609361
 1  5.97802511011101  0.97874898239824 -3.18789752075208
 1  6.47075913881388  1.23125712571257 -0.07991534873487
 1  6.18569268866887 -0.03720175757576  0.75766548324832
 1  7.45212259695970 -1.28355759095910 -1.24689601320132
 1  8.00206264216422  0.32292550065006 -1.84228715231523
 1  8.84000605220522  0.91196908190819  0.38325595779578
 1  8.64869335803580 -0.89590509670967  0.62348021172117
 1  10.36364391579158  0.06954949264927 -1.67738262776278
 1  9.34888987448745 -2.29321729822982 -1.98724464926493
 1  10.98153070877088 -2.47874465836584 -1.84168841274127
 1  10.04047693369337 -2.60823276527653 -0.25270471017102
 1  11.25518319921992  0.82319454965497  0.36623811131113
 1  11.38570162356236 -0.56164212551255  1.23422404400440
 1  12.90368368726873 -1.51685984718472 -0.92155982358236
 1  12.73027678017802  0.07000769176918 -1.44550791209121
 1  13.70419185588559  1.00515307130713  0.50245758875888
 1  13.89969272237224 -0.58361796649665  1.23248976547655
 1  15.35904919341934  0.45683516851685 -1.35104946294629
 1  15.39774721762176 -2.26388668076808  0.21280982708271
 1  14.59813286398640 -2.18172054765477 -1.37242465756576
 1  16.29602923232323 -2.08828435333533 -1.10533200270027
 1  15.76174137483748  1.22276010971097  0.98399494379438
 1  16.42993744094409 -0.35296447154715  1.23518627982798
 1  18.27056799549955 -0.42748929632963 -0.47053039343934
 1  17.49383644814482  1.27188450735073 -1.11049462526253
 1  18.40500129272927  2.45134929262926  1.19954796009601
 1  18.70290745104511  0.84335851685169  1.80978097839784
 1  20.62605751845184  0.42554870307031 -0.02061499749975
 1  19.68604271087109  3.15944950685069 -0.83090668406841
 1  21.29574382648265  2.61943859665967 -1.44367573087309
 1  19.45674957935794  1.81016282708271 -1.65134210321032
 1  21.26762273747375  1.54213232233223  2.36536615381538
 1  22.33276498279828  1.76907813751375  0.94139910621062
 1  21.05041477137714  3.15654573787379  1.60229066956696
=======
12 -7.08723929692969  0.64218296639664  0.06498418581858
 6 -4.88564318231823 -1.96998817721772  0.52532906560656
 6 -4.84838476737674  2.90264871217122  1.15101146604660
 6 -9.41419615511551  3.06594208970897 -0.45450831053105
 6 -9.51656196989699 -1.73986949794979 -0.84382081118112
 7 -5.02479590419042  0.50147996609661  0.68424884318432
 6 -4.31037074317432 -0.71235105710571  0.80288831203120
 6 -2.89921892729273 -0.43997342304230  1.28402875707571
 6 -3.06422986138614  1.05527819611961  1.69591032173217
 6 -4.34887188208821  1.55912666146615  1.06302333223322
 6 -3.02006708880888  1.10021230933093  3.23004441334133
 6 -2.01972543354335 -0.57794305570557  0.12719667796780
 6 -0.53248067066707 -0.33978832603260  0.43505763506351
 6  0.48806994419442 -0.63877739063906 -0.66420180068007
 8  0.22909414951495 -0.98755416301630 -1.77420375207521
 8  1.73101491199120 -0.36011340774077 -0.25658244714471
 7 -7.08473892179218  2.61251684148415  0.29824852035204
 6 -6.08167744674468  3.35229620542054  0.81430496409641
 6 -6.47899515261526  4.69688397779778  0.87091777897790
 6 -7.82321502850285  4.81603223472347  0.35585397669767
 6 -8.18744301590159  3.45973516881688  0.03420596689669
 6 -5.69890784748475  5.86536900280028  1.31759652015202
 6 -8.63409120672067  6.00129116281628  0.20539752515252
 6 -8.54518841014101  7.12380849944994  0.98493474327433
 7 -9.09559183178318  0.62943580468047 -0.62207624132413
 6 -9.84726098579858  1.80165011811181 -0.79766609070907
 6 -11.07069616621662  1.38173651275128 -1.16288800830083
 6 -11.19696210011001  0.01052641674167 -1.32795150915091
 6 -9.86048172887289 -0.40425239953995 -0.98418343444344
 6 -12.20205902960296  2.37363793479348 -1.39665644044404
 6 -12.33580812711271 -0.81018842894289 -1.80952176067607
 6 -12.21062855125513 -1.01612402360236 -3.37920303890389
 7 -7.16857632593259 -1.35088470207021 -0.05372004900490
 6 -8.19848008780878 -2.21465663776378 -0.50473542874287
 6 -7.78835498109811 -3.56350461796180 -0.56026330363036
 6 -6.50843472757276 -3.61669600660066 -0.07027875977598
 6 -6.11557415381538 -2.20457873917392  0.10492329652965
 6 -8.55318278567857 -4.87956079847985 -0.86129460786079
 6 -5.27166163646365 -4.41187507100710  0.33223609620962
 8 -5.07875671357136 -5.58905338873887  0.31231826252625
 6 -4.21613519291929 -3.26345213501350  0.57036690199020
 6 -3.58028865976598 -3.56452167346735  1.86941731463146
 8 -3.72855445604560 -2.98720545674567  2.95922860396040
 8 -2.71123231693169 -4.59268399079908  1.85451403230323
 6 -2.16871745964596 -4.99108333743374  3.19028396389639
 6  2.79360187188719 -0.65865365996600 -1.21241244164416
 6  4.11908399739974 -0.33670184648465 -0.69300944994499
 6  5.06961044544454  0.43252951835184 -1.05671544424442
 6  5.08991741474147  1.23787643694369 -2.25428959425943
 6  6.43872820562056  0.37279913011301 -0.26141262646265
 6  7.59748728662866 -0.20151049794980 -0.98372532303230
 6  8.84195606820682 -0.20100523092309 -0.09647145994599
 6  10.18220884538454 -0.58573564526453 -0.89574054455446
 6  10.12029873007301 -2.09998093419342 -1.37380084508451
 6  11.39167204410441 -0.34000778157816  0.03352422102210
 6  12.78981388908891 -0.59028307940794 -0.73235325822582
 6  13.90863033143314 -0.15125632843284  0.28452552005201
 6  15.26057218211821 -0.17901163026303 -0.46053429322932
 6  15.69213088198820 -1.55713334713471 -0.91553117081708
 6  16.38137224312431  0.41865622562256  0.43582809000900
 6  17.79146373577358  0.58068946734673 -0.25747156175618
 6  18.81699206870687  1.31793001000100  0.62320275327533
 6  20.25954462366236  1.27936827032703  0.17927269046905
 6  20.43496485028503  2.07854615181518 -1.08308930163016
 6  21.15648657945795  1.88581151745175  1.36319168256826
 1 -4.11136262076208  3.57710323172317  1.70843543044304
 1 -10.14342473517352  3.85643647864786 -0.50675606710671
 1 -10.33976726612661 -2.48552789358936 -1.10253690589059
 1 -2.44544100100010 -0.98692700660066  2.09224991619162
 1 -2.14133773897390  1.72888647124712  1.45746639703970
 1 -2.00356481398140  0.83129358225823  3.64437815131513
 1 -3.31846690669067  2.05822988048805  3.50148231363136
 1 -3.74337778047805  0.33527821182118  3.69347175997600
 1 -2.17040952585259 -1.63958391879188 -0.10952486168617
 1 -2.27297897039704  0.16360361076108 -0.80033007260726
 1 -0.45813933133313  0.76949156305631  0.79039943904390
 1 -0.25619342134213 -1.16359087428743  1.34764872007201
 1 -5.92977175257526  6.67614625872587  0.40510621982198
 1 -5.68459544894489  6.28694205730573  2.33724002110211
 1 -4.60531448744875  5.54200536693669  1.25223839943994
 1 -9.50624267676768  5.94063021112111 -0.41574180238024
 1 -9.39545076097610  7.91532227112711  0.95787540934093
 1 -7.82972243804380  7.16966336583658  1.68317670317032
 1 -11.86086019111911  3.10811113711371 -2.08494149884989
 1 -13.10078974817482  1.95964985618562 -1.74884607610761
 1 -12.29624135523552  2.89831848654865 -0.41524276827683
 1 -12.30434521292129 -1.99116856195620 -1.46012096699670
 1 -13.31960067896790 -0.29859659645965 -1.58592411991199
 1 -12.99380573317332 -1.55188987518752 -3.89183906840684
 1 -12.32596616081608 -0.10795533313331 -4.05452894859486
 1 -11.18266454575458 -1.46691155825583 -3.50541916191619
 1 -8.72653225622562 -5.22328307120712 -1.90756402050205
 1 -7.97053641844184 -5.81951195539554 -0.48463807680768
 1 -9.72602248714871 -4.96035105640564 -0.37440926352635
 1 -3.50295099099910 -3.58408165886589 -0.23071834333433
 1 -1.47635580208021 -4.18036447614761  3.61277419271927
 1 -2.78629823842384 -5.01003262086209  4.00626346524652
 1 -1.68282639413941 -5.89054832803280  2.97204115701570
 1  2.47955725982598 -1.74436627252725 -1.37956192119212
 1  2.69964744234423 -0.10065578597860 -2.36408956115612
 1  4.36819772537254 -0.87574979017902  0.28182139813981
 1  3.93729269276928  1.46262497289729 -2.57465583528353
 1  5.74660007170717  2.14138439733973 -2.01162763096310
 1  5.51280858845885  0.73190429792979 -3.23326205720572
 1  6.50431249414942  1.42020602060206  0.00045268806881
 1  6.36277039643964 -0.07433547094709  0.73639335603560
 1  7.30046743144314 -1.21787102230223 -1.33349467306731
 1  7.86761919781978  0.30572378047805 -1.86263918751875
 1  9.00155220682068  0.80516840184018  0.18668630083008
 1  8.65073356205621 -0.99416492269227  0.81599946364636
 1  10.48351590299030  0.17360989868987 -1.66896178567857
 1  9.24369935543554 -2.29901787828783 -2.12014793959396
 1  11.07277983368337 -2.28554533843384 -1.88950319421942
 1  10.14920780678068 -2.71083302530253 -0.53431287098710
 1  11.30701838273827  0.64440667086709  0.53757524502450
 1  11.30899395279528 -1.15195115641564  0.85314593619362
 1  12.94147746664667 -1.69928809000900 -0.87661532913291
 1  12.78892264476448 -0.09666897589759 -1.65484884618462
 1  13.73963540024002  0.81596415241524  0.67440478347835
 1  14.04835758885889 -0.58178778347835  1.30798731523152
 1  15.17228051655166  0.43773325832583 -1.26765112311231
 1  15.85611305420542 -2.19221951405141  0.07038558465847
 1  15.15013806450645 -2.13362573817382 -1.51657907300730
 1  16.88186781618162 -1.52231775667567 -1.37515898539854
 1  15.78133333403340  1.37751558525853  0.78332487678768
 1  16.40260470767076 -0.45200437553755  1.39014177537754
 1  18.16833777247725 -0.53390993839384 -0.28144148454845
 1  17.86699376387639  0.92916023492349 -1.13798737453745
 1  18.32329312191219  2.24648880658066  0.77454545984599
 1  18.81282844314432  0.85532971397140  1.66523652395240
 1  20.50932584528453  0.22011816001600 -0.07742067806781
 1  19.88987309390939  3.02834639653965 -0.93219681308131
 1  21.43755800790079  2.19395604840484 -1.21932329562956
 1  20.14959886428643  1.42297410821082 -2.08584555355536
 1  21.06620259545955  1.22562067116712  2.34467408460846
 1  22.16342804910491  1.88583981368137  1.03921888818882
 1  20.70640036993700  2.87419750305030  1.61417185768577
>>>>>>> 8e03b5b5abfc0030b3aa597dc0de36371bfbd096

