%nproc=4
%Mem=2GB
# td=(NStates=1) CAM-B3LYP/6-31G(d,p) 

TD

0 1
12 -7.18986955995600  0.61170991909191  0.15386307370737
 6 -4.82505712371237 -1.95417659605961  0.59981651435144
 6 -4.74759468836884  2.79733818111811  1.22197856275628
 6 -9.38129286478648  3.12803829932993 -0.39946280598060
 6 -9.49468978267827 -1.74038954995500 -0.90806723582358
 7 -5.09677310191019  0.40257007510751  0.67731815011501
 6 -4.32888259435944 -0.77070689268927  0.83963198639864
 6 -2.84774377977798 -0.37665709140914  1.14972532673267
 6 -3.00958439683968  1.10269293759376  1.57598832953295
 6 -4.39194618951895  1.41306205500550  1.19375640554055
 6 -2.77675275737574  1.39933222132213  3.11106251515152
 6 -1.94014747574757 -0.74539980138014  0.08102206050605
 6 -0.46391381398140 -0.51108545574557  0.49607373667367
 6  0.49212034923492 -0.66263977687769 -0.59463484398440
 8  0.34446568666867 -1.18924433203320 -1.64820115181518
 8  1.79468127862786 -0.43872126852685 -0.19771656055606
 7 -7.07336778467847  2.62354794459446  0.34079277477748
 6 -5.95280455945595  3.28076905270527  0.79290282388239
 6 -6.45249250235023  4.77022131153115  0.78049873707371
 6 -7.80034274127413  4.80522115361536  0.42763115441544
 6 -8.13734800640064  3.44788398369837  0.12624517081708
 6 -5.47792574927493  5.84923738963896  1.10327508800880
 6 -8.61166896449645  5.99581061476148  0.21334832023202
 6 -8.48321221252125  7.13984010261026  0.89529577937794
 7 -9.05882815541554  0.74282714381438 -0.62623665736574
 6 -9.81740800050005  1.80566051915192 -0.72419874397440
 6 -11.17356645324532  1.51040938003800 -1.13790551005101
 6 -11.14831723562356  0.15898126222622 -1.35705441944194
 6 -9.88275395609561 -0.40118209250925 -1.03285830193019
 6 -12.32996181988199  2.49010958195820 -1.42236901170117
 6 -12.36190073637364 -0.73315072517252 -1.82585339383938
 6 -12.19955744414441 -1.06496890809081 -3.24591971057106
 7 -7.20217968626863 -1.37176679027903 -0.16978165516552
 6 -8.21243148294830 -2.23224839693969 -0.59093404860486
 6 -7.79668581418142 -3.62026029352935 -0.66708398569857
 6 -6.44334821892189 -3.55106944394439 -0.19975170707071
 6 -6.21233382978298 -2.21246952825283  0.08137094129413
 6 -8.67282474987499 -4.78732157455746 -0.91212969136914
 6 -5.26623109340934 -4.33786767026703  0.17302017461746
 8 -5.02496133403340 -5.57588207160716  0.07547457815782
 6 -4.17141072047205 -3.26819260906091  0.63386325162516
 6 -3.56420705160516 -3.68728394969497  1.95560593349335
 8 -3.80176177677768 -3.17238397459746  3.00862354345435
 8 -2.80365155885589 -4.76824154655466  1.85733431433143
 6 -2.23844443234323 -5.14634886398640  3.13859879537954
 6  2.75380789248925 -0.67302509710971 -1.23237443784378
 6  4.03861595059506 -0.52067024332433 -0.60098024702470
 6  5.01290477487749  0.34692095749575 -0.91580135283528
 6  5.05911433443344  1.36611926122612 -2.07872203750375
 6  6.41255558835884  0.52093394359436 -0.23600008520852
 6  7.56671420932093 -0.11367171407141 -0.91355830633063
 6  8.92154402700270  0.01051592119212 -0.03337515031503
 6  10.16285691019102 -0.52738981068107 -0.68871984248425
 6  9.98022472267227 -2.03727466356636 -1.13641710671067
 6  11.42029490639064 -0.24543832463246  0.12075294389439
 6  12.74145905360536 -0.41917596869687 -0.71894191709171
 6  13.91889135753575  0.00293909110911  0.25050211771177
 6  15.32872899779978 -0.24107783688369 -0.52461070087009
 6  15.64337600650065 -1.70771840564056 -0.72326194389439
 6  16.39467357325733  0.45655001500150  0.44401890909091
 6  17.76355094449445  0.52624402280228 -0.11883769836984
 6  18.76179654915492  1.17232544954495  0.65198563156316
 6  20.26427509670967  1.30684101760176  0.00972573577358
 6  20.35147650145015  2.11064936213621 -1.26119711241124
 6  21.16908783958396  1.97112004830483  1.02847821122112
 1 -4.01031251575158  3.35172069346935  1.67422200910091
 1 -10.12131252395239  4.01743257825783 -0.37984337583758
 1 -10.31009429882988 -2.47872721352135 -1.14998165036504
 1 -2.59711616851685 -1.07690600450045  1.97742843404340
 1 -2.32612621782178  1.61189477207721  1.00665131553155
 1 -1.67948240574057  0.98314876777678  3.27538125162516
 1 -2.94579963996400  2.55652971047105  3.25772793819382
 1 -3.36575001770177  0.65156984098410  3.50666307910791
 1 -1.92978546344634 -1.80061002140214 -0.25584949414942
 1 -2.27100877337734 -0.07083983358336 -0.60881092069207
 1 -0.29711322872287  0.39349396329633  0.97757815691569
 1 -0.08645644764476 -1.32179669486949  1.12404635983598
 1 -5.91615039043904  6.91570021412141  0.43212892209221
 1 -5.67182417181718  6.36505986908691  2.25026132323232
 1 -4.50155411141114  5.58181934833483  0.84438761436144
 1 -9.56827888038804  5.77285343344334 -0.39221945014501
 1 -9.19956117201720  7.87772851175118  0.69011863366337
 1 -7.67084655045505  7.32777917741774  1.57878626412641
 1 -12.15341944704470  3.10777110311031 -2.54761776647665
 1 -13.14293396259626  1.89279317051705 -1.73387457895790
 1 -12.35491722282228  3.22375102980298 -0.59146039003900
 1 -12.52333711211121 -1.62187163226323 -0.99508446334633
 1 -13.28470718961896 -0.22592932973297 -1.63074860236024
 1 -12.85042139473947 -2.05147983418342 -3.48148803330333
 1 -12.48515207940794 -0.30580511811181 -3.78928242394239
 1 -11.16956323562356 -1.56846171327133 -3.28619723972397
 1 -9.06808641164116 -4.79903064596460 -1.91518478257826
 1 -8.24684404920492 -5.98361836603660 -0.77463707670767
 1 -9.49027891279128 -4.75634065536554 -0.39806162876288
 1 -3.38552924882488 -3.28330158085809 -0.03334860636064
 1 -1.78463663016302 -4.11989842954295  3.64567748304831
 1 -2.97354696329633 -5.35939755735574  3.79645248414842
 1 -1.56430454195420 -5.88985825902590  3.02057601050105
 1  2.58308761286129 -1.71922375827583 -1.57494145914591
 1  2.45482295989599  0.04919919951995 -2.09708286048605
 1  4.41750265586559 -1.37391960716072  0.08971218721872
 1  4.13872283578358  1.44199290969097 -2.74909327902790
 1  5.30324573627363  2.31135139403940 -1.82907937613761
 1  5.77433474107411  1.04047515501550 -2.89304803580358
 1  6.78580064296430  1.50694469446945 -0.05098245544554
 1  6.33024714411441 -0.07728576597660  0.78543826052605
 1  7.29937732243224 -1.13034226942694 -1.22508383198320
 1  7.94902733863386  0.48570177827783 -1.86560948454845
 1  9.08740079167917  1.12598048304830  0.12235986818682
 1  8.70783927262726 -0.50659616581658  0.87355521922192
 1  10.25530308170817 -0.00540800310031 -1.64739962946295
 1  9.06198118361836 -2.09279725622562 -1.75062098689869
 1  10.97554010971097 -2.62747953185319 -1.48458270217022
 1  9.70648353435344 -2.56488843084308 -0.22346178587859
 1  11.52777045794580  0.68905113531353  0.68290977847785
 1  11.41788484188419 -0.94901086238624  0.91190181178118
 1  12.80165348424842 -1.37476563776378 -1.01427909550955
 1  12.69089284178418  0.38006869786979 -1.48674203550355
 1  13.79320075677568  0.93491604760476  0.77081442444244
 1  14.04505725882588 -0.98373797849785  1.17168368486849
 1  15.47850113861386  0.29006849184918 -1.57237159515952
 1  15.86618406130613 -2.30355064716472  0.33981252735274
 1  14.58750180088009 -2.15774815041504 -1.14438185328533
 1  16.50922055145515 -2.06848237313731 -1.36240771027103
 1  16.05370057075707  1.65774360806081  0.60849739403940
 1  16.48347279447945 -0.05028420352035  1.40552331353135
 1  18.09368030673067 -0.66104265166517 -0.34455779617962
 1  17.66135319981998  0.94028134703470 -1.20693426922692
 1  18.48269906250625  2.26362051975198  0.94481248654866
 1  18.91995915621562  0.66251043204320  1.67807780808081
 1  20.65286019871987  0.28841498969897 -0.20291322732273
 1  20.21624573117312  3.08385194709471 -1.30528412181218
 1  21.41087533963396  1.90765741854185 -1.61682304560456
 1  19.71355525992599  1.91920373117312 -2.02456942594259
 1  20.91801777697770  1.57830593969397  2.00430004720472
 1  22.36580828712871  1.76153738343834  0.78407337363736
 1  20.87366709660966  3.01774185748575  1.05052549304930

