%nproc=4
%Mem=2GB
# td=(NStates=1) CAM-B3LYP/6-31G(d,p) 

TD

0 1
12 -7.09957053005300  0.57279602770277  0.05507319471947
 6 -4.84184880288029 -1.92966414481448  0.47459399209921
 6 -4.77965789468947  2.84144259155916  1.08035440034003
 6 -9.41869660516052  3.07549304480448 -0.41563442314231
 6 -9.46210652435244 -1.74885039603960 -0.84569099819982
 7 -5.07001042564256  0.45479529762976  0.70094051235124
 6 -4.34842454855486 -0.71329115111511  0.83292131533153
 6 -2.90805981138114 -0.37325675137514  1.27740809500950
 6 -2.97592103050305  1.09154182248225  1.68831956265627
 6 -4.34495149004900  1.51170191899190  1.15076210611061
 6 -2.91860694279428  1.41706399449945  3.20755216411641
 6 -1.92899636063606 -0.57649291069107  0.20384434273427
 6 -0.45024244684468 -0.51199554675468  0.66922105140514
 6  0.45048618581858 -0.67259077197720 -0.63420880138014
 8  0.24375561566157 -0.88865427302730 -1.71584791649165
 8  1.76394820532053 -0.38659605600560 -0.21669845874587
 7 -7.16389683758376  2.59836542634263  0.34692338783878
 6 -6.12002128112811  3.33063403920392  0.73319685328533
 6 -6.46665391849185  4.79830411981198  0.79914060126013
 6 -7.71530423742374  4.81902253375338  0.31460985228523
 6 -8.15316958855886  3.47711690699070  0.09688223452345
 6 -5.41974993169317  5.89397186308631  1.13548830933093
 6 -8.61226902450245  5.93488452215222  0.25593257865787
 6 -8.56477036833683  7.06592271087109  0.92644889468947
 7 -9.17370964356436  0.63313617471747 -0.51213524722472
 6 -9.91880814051405  1.76240619371937 -0.68354467856786
 6 -11.19003810041004  1.48494683378338 -1.22755447494749
 6 -11.21667407130713  0.09930529462946 -1.34720343434343
 6 -9.89360504120412 -0.40740271457146 -0.91326634273427
 6 -12.34511333503350  2.36038660966097 -1.56257303210321
 6 -12.36495104140414 -0.72962037213721 -1.72712352085209
 6 -12.20713820222022 -1.24210662186219 -3.29450456905691
 7 -7.26895636393639 -1.45085469906991 -0.04328900590059
 6 -8.21409164896490 -2.25731090319032 -0.49045400060006
 6 -7.81971811741174 -3.64358262576258 -0.41212849014901
 6 -6.48326221032103 -3.57577191419142 -0.10703243514351
 6 -6.18563115951595 -2.19786806810681  0.18557136133613
 6 -8.59316678407841 -4.84004684708471 -0.83853233163316
 6 -5.30707517781778 -4.35606949044904  0.24956782938294
 8 -5.13008184608461 -5.61403588698870  0.05791282198220
 6 -4.12342592199220 -3.38046383618362  0.55863572887289
 6 -3.48083871477148 -3.65294051535154  1.81707208010801
 8 -3.63030463106311 -2.99662639883988  2.86680936203620
 8 -2.56699789348935 -4.69978470087009  1.73509209010901
 6 -1.98002859075908 -5.02231646074607  3.06547148264826
 6  2.74448696039604 -0.53805159975998 -1.20783198359836
 6  4.12574466346635 -0.18922709900990 -0.51418156715672
 6  5.06775025942594  0.61349761516152 -0.95041481418142
 6  4.98585700870087  1.28069071837184 -2.32153631893189
 6  6.52633696649665  0.70357220742074 -0.24704118931893
 6  7.62233977187719  0.01737139023902 -0.99411636213621
 6  8.96195806840684 -0.14235936633663 -0.06861867466747
 6  10.20181080558056 -0.45503257495750 -0.82538350885089
 6  10.07607430763076 -1.99014995109511 -1.40991445644564
 6  11.36059893679368 -0.35032881368137  0.10062093069307
 6  12.67693260096009 -0.54977902900290 -0.62394241714171
 6  13.89093856225623 -0.13837504030403  0.19176624412441
 6  15.31686781168117 -0.31806553565357 -0.42255049484948
 6  15.61973364226423 -1.80505813961396 -0.83051266896690
 6  16.43699780568057  0.29484384438444  0.48719322652265
 6  17.78169275867587  0.48356975537554 -0.21400721532153
 6  18.72670303980398  1.13671188818882  0.65649608260826
 6  20.16382505170517  1.13250358385839  0.07912267546755
 6  20.25327668146815  2.08117641484148 -1.08182917561756
 6  21.10276120692069  1.85163810011001  1.23186855025503
 1 -4.03988547304731  3.43750927232723  1.46276086298630
 1 -10.05644603730373  3.96749758475848 -0.64600999249925
 1 -10.12756604600460 -2.69806914771477 -1.07803445564556
 1 -2.63159961686169 -1.12401071497150  2.16778746994700
 1 -2.11175478067807  1.68853243584358  1.12860351075107
 1 -1.95589004650465  0.86001645454545  3.75977969146915
 1 -3.18980404040404  2.50619467696770  3.34894706010601
 1 -3.84398784148415  0.92701738573857  3.83457587038704
 1 -2.11949443434343 -1.74144410481048 -0.21511542074207
 1 -1.97573924642464 -0.04620737033703 -0.67775781538154
 1 -0.20796431383138  0.55442005590559  1.18438883798380
 1 -0.05939374137414 -1.19915443064306  1.31648560376038
 1 -5.87256603200320  6.70497914201420  0.72407811701170
 1 -5.49079606900690  6.11884524762476  2.13516981408141
 1 -4.50490444644464  5.51530269666967  0.89671284688469
 1 -9.52808486098610  5.85819196729673 -0.42947317551755
 1 -9.36910812671267  7.79794053295330  0.62315193699370
 1 -7.82010147594760  7.21652805230523  1.56461484698470
 1 -12.26666077117712  3.08014834083408 -2.47239024372437
 1 -13.16611628082808  1.60613450465047 -1.75962715421542
 1 -12.51142287338734  3.05701435613561 -0.61245248924892
 1 -12.29409418781878 -1.77277672277228 -1.10545550045005
 1 -13.29121784068407 -0.26358309510951 -1.65570109760976
 1 -13.02647900050005 -1.95449013521352 -3.51811169566957
 1 -12.15378894309431 -0.38579311691169 -3.95900939663966
 1 -11.20383666296630 -1.76207107420742 -3.41228984898490
 1 -8.83862346534653 -4.83875461836184 -1.85836910101010
 1 -7.89433879867987 -5.73234323852385 -0.71218083108311
 1 -9.69707959285929 -4.84523954525453 -0.21123294589459
 1 -3.31768246414641 -3.62679593029303 -0.28216348784878
 1 -1.32012017851785 -4.13311975167517  3.35184810011001
 1 -2.84389399799980 -5.36419803740374  3.66453929282928
 1 -1.32635074657466 -5.75650492369237  2.88728268116812
 1  2.56368567266727 -1.65612744864486 -1.60095406040604
 1  2.55633311091109  0.12768704830483 -2.11035418761876
 1  4.30223112871287 -0.69683189838984  0.41946516251625
 1  4.04598356185619  1.36611532193219 -2.99430780048005
 1  5.61339675137514  2.23287354625463 -2.36854332253225
 1  5.61189849744974  0.55547665516552 -3.00543927492749
 1  6.77038910181018  1.88064206420642 -0.10679803700370
 1  6.47560167956796  0.39160112271227  0.75585530223022
 1  7.23198058275828 -0.96803603880388 -1.04162548614861
 1  8.02130456635664  0.48559176727673 -1.81115403900390
 1  9.06752880448045  1.08871675667567  0.11506913911391
 1  8.53573206190619 -0.75288079427943  0.92680054375438
 1  10.31446899829983  0.32088462616262 -1.54943983348335
 1  9.24503948944894 -2.10709868636864 -2.07497342214221
 1  10.99259181488149 -2.37420420432043 -1.88010225412541
 1  9.82996588258826 -2.54721666366637 -0.57296673637364
 1  11.27533521442144  0.82330456065607  0.45045653315332
 1  11.36820987438744 -0.98599456075608  1.02922354395440
 1  12.85443876277628 -1.64736289748975 -0.96437410501050
 1  12.70319407190719  0.16669736073607 -1.45385874717472
 1  13.67107854455445  0.88430098609861  0.42839018201820
 1  13.82259501260126 -0.76020562526253  1.10119663616362
 1  15.43093638213821  0.22999248424842 -1.36173053105311
 1  15.88910635353535 -2.43972426452645  0.20930947704770
 1  14.74168721942194 -2.24541691729173 -1.21068848394840
 1  16.40052968236824 -1.96905243014301 -1.41231270077008
 1  15.79983518421842  1.27891572527253  0.77127367166717
 1  16.54166861406140 -0.30538971407141  1.46112887408741
 1  18.33455439413941 -0.38509505690569 -0.44874821522152
 1  17.48524558905891  1.08909622852285 -1.06049962576258
 1  18.49412020462046  2.16873103080308  0.64133213851385
 1  18.73008016831683  0.78618279927993  1.72454245454546
 1  20.75639055175517  0.22239838803880  0.01354841884188
 1  19.67676178277828  2.90384394629463 -0.81106469986999
 1  21.12006625872587  2.26954360716072 -1.38299966326633
 1  19.60187409180918  1.73930574137414 -2.05743271227123
 1  21.01430740594060  1.35029313841384  2.16734635183518
 1  22.10133183948395  1.90825205490549  0.95720068636864
 1  20.81633136303630  2.74957504080408  1.51351179167917

