%nproc=4
%Mem=2GB
# td=(NStates=1) CAM-B3LYP/6-31G(d,p) 

TD

0 1
<<<<<<< HEAD
12 -7.11439201220122  0.65437418551855  0.04247193459346
 6 -4.86965158315832 -1.96117729612961  0.59248578127813
 6 -4.78011794069407  2.83513196049605  1.12575894079408
 6 -9.42320705620562  3.06882237773777 -0.34443730343034
 6 -9.52254256795680 -1.79921543254325 -0.93059948904890
 7 -5.13979740434043  0.38045786388639  0.75378579687969
 6 -4.35268497459746 -0.78544836683668  0.81152917611761
 6 -2.95108411381138 -0.48066749244925  1.24211456565657
 6 -3.11452489088909  1.04670733903390  1.75915664636464
 6 -4.41144813971397  1.47635838463846  1.14458148804880
 6 -3.08568365046505  1.33474576267627  3.22789419831983
 6 -1.89285274627463 -0.69721498289829  0.11709566786679
 6 -0.46350377297730 -0.24810915811581  0.57903203250325
 6  0.57194833203320 -0.54369788268827 -0.56457183768377
 8  0.24560580068007 -0.92676808440844 -1.68675500720072
 8  1.84292610311031 -0.24998239463946 -0.16526331523152
 7 -7.06128657655766  2.63283887368737  0.31291998749875
 6 -5.99087836683668  3.36309728552855  0.71277481108111
 6 -6.40681793489349  4.80975526492649  0.71794248144814
 6 -7.67331003800380  4.86667729922992  0.28402679397940
 6 -8.15062933453345  3.50156935223522 -0.04657211091109
 6 -5.50454841154115  5.89345181108111  1.18488324882488
 6 -8.50754855245524  6.01922295599560  0.12664965036504
 6 -8.40606449774977  7.16824294289429  0.86629287908791
 7 -9.18083035563556  0.69109197029703 -0.53797783148315
 6 -9.90746700640064  1.73394334743474 -0.62766909100910
 6 -11.31608070467047  1.39273761286129 -1.11461318081808
 6 -11.32082448634863  0.06380174427443 -1.19329804380438
 6 -10.00096577727773 -0.43068504280428 -0.92014703080308
 6 -12.35392421612161  2.35734630563056 -1.46934370917092
 6 -12.41457600390039 -0.84088149824983 -1.77549835833583
 6 -12.27073456185619 -1.11527393859386 -3.23279839843984
 7 -7.18268773707371 -1.39535914951495 -0.28855353235324
 6 -8.24972521232123 -2.25469064116412 -0.60151510671067
 6 -7.86185233083308 -3.56181444894489 -0.59043632093209
 6 -6.46142002610261 -3.59508384538454 -0.21852358425843
 6 -6.19027162356236 -2.20751903320332  0.07517032123212
 6 -8.55641310871087 -4.93273611601160 -0.80776925532553
 6 -5.38263273357336 -4.38613249674967  0.28086095869587
 8 -5.24612345024502 -5.58622310571057  0.44280131083108
 6 -4.17439101850185 -3.31081687148715  0.64428429372937
 6 -3.60145077597760 -3.71278649995000  1.92206257915792
 8 -3.90551215181518 -3.10881761796180  2.95974865596560
 8 -2.80036122982298 -4.66045076747675  1.86120470137014
 6 -2.28248883678368 -5.30551478057806  3.05084001950195
 6  2.85676818851885 -0.54594238883888 -1.17699890029003
 6  4.16497858685869 -0.28978715501550 -0.61591174017402
 6  5.08612209660966  0.48131439683968 -1.00071984468447
 6  5.01365978897890  1.34550720002000 -2.18540270557056
 6  6.47133146594659  0.47616946714671 -0.27845433063306
 6  7.64825236313631 -0.21959230613061 -0.99531648214821
 6  8.95630750335033 -0.12262739313931 -0.25800761356136
 6  10.20091071557156 -0.60174724642464 -0.94989596009601
 6  10.07933463366337 -2.03167410351035 -1.46593005800580
 6  11.46407928482848 -0.27872165296530 -0.02700183158316
 6  12.85024993269327 -0.67154120522052 -0.67005702860286
 6  14.01111057945795 -0.17871907470747  0.19490655815582
 6  15.38460458535854 -0.18638236733673 -0.49959819961996
 6  15.78746041494149 -1.53696132993299 -1.12987260496050
 6  16.40759486538654  0.42104646464646  0.42890739793979
 6  17.88274286368637  0.47299869826983 -0.08353416801680
 6  18.86849721922192  1.17751596859686  0.80145057805781
 6  20.30251892109211  1.26688702220222  0.30708547174717
 6  20.39432078587859  2.04897319451945 -1.06208720142014
 6  21.19436036683668  2.05344828112811  1.36056141954195
 1 -4.02271375587559  3.46319184058406  1.57868245514551
 1 -10.07616800950095  3.87737857285729 -0.39704509600960
 1 -10.43496678607861 -2.39358869966997 -1.34112076427643
 1 -2.74329078597860 -1.21797011091109  2.12293298449845
 1 -2.34435804100410  1.57719130173017  1.04885553595360
 1 -2.30379483698370  0.76573702660266  3.61352506600660
 1 -2.96786184618462  2.29673373087309  3.42487465286529
 1 -3.99346278897890  0.85746043004300  3.70013242604260
 1 -2.00002248714871 -1.73394335473547 -0.24985889508951
 1 -2.24655632813281  0.11330858125813 -0.61063110271027
 1 -0.29890340774077  0.79820443434343  1.07043744284428
 1 -0.06472427442744 -1.06914142934293  1.49224317951795
 1 -5.98945772117212  6.77687633173317  0.71577728692869
 1 -5.18044503390339  6.08317168026803  2.32894919201920
 1 -4.49749370537054  5.70608177457746  0.81812498809881
 1 -9.16630868336834  6.04452060016002 -0.58520874907491
 1 -9.15845706160616  8.01219195809581  0.63563318511851
 1 -7.68955842164216  7.16781318081808  1.62513089858986
 1 -11.94727883298330  3.12234256025603 -2.22464546924693
 1 -13.21756142534253  1.92696658785879 -2.02405359685969
 1 -12.63516524762476  2.85484413911391 -0.35191643564356
 1 -12.50504528292829 -1.93116256135614 -1.30022497739774
 1 -13.36339505840584 -0.28805554235423 -1.67093262076208
 1 -13.22346869946995 -1.69184387058706 -3.62150203470347
 1 -12.33853741794180 -0.27892242984298 -3.73935743144314
 1 -11.37342362166217 -1.73672853995400 -3.25196381638164
 1 -8.70533013601360 -4.78544928782878 -1.87938120222022
 1 -7.90543990879088 -5.87841784598460 -0.99212882588259
 1 -9.49793967886789 -4.92749777107711 -0.34010583318332
 1 -3.39270996689669 -3.61332458315832 -0.04864013551355
 1 -1.83960212671267 -4.71359779947995  3.73387630293029
 1 -3.16175578417842 -5.85696731433143  3.60442328122812
 1 -1.55595370687069 -6.02224149734974  2.83947790069007
 1  2.73757306140614 -1.63780561646165 -1.54571853685369
 1  2.67796527412741  0.05822010161016 -2.04808796099610
 1  4.32687359295930 -1.13688590379038  0.28280149614962
 1  4.13089205270527  1.65954466486649 -2.69967833753375
 1  5.67875328702870  2.23981424032403 -1.86266273447345
 1  5.60739804740474  1.00331143864386 -3.04797352835284
 1  6.85955801870187  1.55607960796080 -0.06549390659066
 1  6.35575969536954  0.10553251585159  0.64456417311731
 1  7.37273465816582 -1.25877511271127 -1.12323364696470
 1  7.91109354525453  0.16501971007101 -2.07532045564556
 1  9.07820987258726  0.89249713471347 -0.00506287408741
 1  8.99766825552555 -0.54275978217822  0.68086595029503
 1  10.35382293369337 -0.00523798609861 -1.81408629812981
 1  9.38258324382438 -2.36980495699570 -2.06236216101610
 1  11.11291384708471 -2.32492927682768 -2.01896614051405
 1  9.88011089708971 -2.78287022902290 -0.72749218891889
 1  11.58271595249525  0.76978920912091  0.15313680118012
 1  11.41288434183418 -0.71731769306931  1.06075669726973
 1  12.94276759565957 -1.71701986318632 -0.91446911451145
 1  13.00170392289229 -0.33129243824382 -1.78504186548655
 1  13.69091052775278  0.87289984598460  0.63284062706271
 1  13.90305305840584 -0.65204480918092  1.23852036853685
 1  15.25715900440044  0.54413389838984 -1.43401775977598
 1  15.75995343824382 -2.36967725982598 -0.35834728862886
 1  15.04725777647765 -1.92873524912491 -1.91906932203220
 1  16.64144377377738 -1.25040056495650 -1.75876734623462
 1  15.98282348304830  1.55096292999300  0.52767931223122
 1  16.38648309550955 -0.17075625072507  1.36708947014701
 1  18.25210614931493 -0.69400594799480 -0.25547888828883
 1  17.89737680218022  0.95965328422842 -1.17638121392139
 1  18.41866265886589  2.03879803750375  1.00663866916692
 1  18.82178933923393  0.67646182718272  1.84508450875088
 1  20.75081999469947  0.41346749494949  0.17233429742974
 1  19.98249235583558  3.20108367026703 -1.11036462986299
 1  21.50872512461246  2.14460111291129 -1.20111147444744
 1  19.83438734313431  1.59083089388939 -1.81301827082708
 1  21.34479045424542  1.21189929902990  2.14861447864786
 1  22.25772747904790  2.23134436413641  1.15091005730573
 1  20.72194192409241  3.08830891419142  1.54522496299630
=======
12 -7.11664223722372  0.63237198529853  0.11012870027003
 6 -4.82372699069907 -1.92340351875188  0.57161369406941
 6 -4.91228115701570  2.80511895919592  1.27383374827483
 6 -9.38928366386639  3.08806430193019 -0.40702356205621
 6 -9.45632594629463 -1.72254776577658 -0.87155358445845
 7 -5.16138956355636  0.48299811791179  0.80368078637864
 6 -4.36258596469647 -0.68476829882988  0.83422144534453
 6 -2.88080708610861 -0.29948937463746  1.27640799499950
 6 -3.03774721312131  1.05727839613961  1.68943967466747
 6 -4.43643063796380  1.57355810461046  1.13460048994899
 6 -3.10944602670267  1.14843713181318  3.19219062796280
 6 -1.92455591659166 -0.52075733713371  0.13720767906791
 6 -0.44385180778078 -0.23320766796680  0.52223635293529
 6  0.55109624682468 -0.53366687958796 -0.55178055855586
 8  0.20740198029803 -1.03703911151115 -1.63440977267727
 8  1.81639344984498 -0.32736013241324 -0.22311910081008
 7 -7.16288673657366  2.58640423022302  0.27644634013401
 6 -6.15613489248925  3.40466144194419  0.90350388398840
 6 -6.40952820592059  4.79438372777278  0.90802148934893
 6 -7.81733444044404  4.82042267376738  0.39444783608361
 6 -8.17005127672767  3.50618981428143  0.02170471677168
 6 -5.54919287598760  5.90430289618962  1.22912767326733
 6 -8.51882968056806  6.01448248194820  0.25230221562156
 6 -8.42457634893489  7.22318843744374  0.76722297209721
 7 -9.24824709730973  0.64132699379938 -0.59396343004300
 6 -9.89740600030003  1.80085003810381 -0.76736306040604
 6 -11.21191028762876  1.44753309240924 -1.22707442694269
 6 -11.24881728562856  0.08412377647765 -1.35636435043504
 6 -9.92854853555355 -0.39074104840484 -0.84520953705371
 6 -12.29559838353835  2.35837640864086 -1.58789556435644
 6 -12.36902144844484 -0.83883129322932 -1.90279108760876
 6 -12.06284377277728 -1.07803021422142 -3.42609772837284
 7 -7.24100356865687 -1.38546816041604 -0.06058073507351
 6 -8.19518975877588 -2.18005317741774 -0.40624557975798
 6 -7.81036718231823 -3.61891015851585 -0.39499677697770
 6 -6.47580146424642 -3.50740507750775  0.01438970707071
 6 -6.10649324572457 -2.12083036433643  0.16127893209321
 6 -8.56350381778178 -4.80822366476648 -0.74533301170117
 6 -5.36493096339634 -4.35654953845385  0.31096396899690
 8 -5.40213905180518 -5.59574405780578  0.30439747044704
 6 -4.16348992839284 -3.36076186598660  0.62481234653465
 6 -3.46091672257226 -3.71679690099010  1.88111848474847
 8 -3.51874347494749 -3.13893062926293  2.93565624672467
 8 -2.74935612931293 -4.88762348474847  1.70361894279428
 6 -2.07332792069207 -5.30689491859186  2.90307524302430
 6  2.78899141084108 -0.68815661026103 -1.18838003840384
 6  4.09707179617962 -0.35160333663366 -0.61332148114811
 6  5.17948143254325  0.32984925032503 -1.11441121382138
 6  5.02810123312331  1.20880352965297 -2.34452861816182
 6  6.51059539233923  0.36930878107811 -0.32793927912791
 6  7.57625516341634 -0.10042038893889 -1.15278222872287
 6  8.90213208580858 -0.05566069646965 -0.27760957375738
 6  10.24427505200520 -0.65238230993099 -1.09799076957696
 6  10.11877857805781 -2.18934987108711 -1.27076054105411
 6  11.41554443134313 -0.33741752255226 -0.16637576897690
 6  12.75801070877088 -0.56332038313831 -0.75514553745375
 6  13.96505597399740 -0.11632283508351  0.28690575807581
 6  15.35516164106411 -0.24706843594359 -0.45825406520652
 6  15.80292196109611 -1.76135376917692 -0.59457907560756
 6  16.43492759865986  0.30966532653265  0.45645015221522
 6  17.81305589498950  0.65931733013301 -0.24899071367137
 6  18.74492486198620  1.24198241524152  0.70836126912691
 6  20.25131380058006  1.38339867336734  0.22445720892089
 6  20.33092444624463  2.21008930613061 -1.06494748744875
 6  21.18093902470247  1.92219515581558  1.34511987538754
 1 -4.16321780628063  3.58529405080508  1.63740832773277
 1 -10.05920631333133  3.95577641264126 -0.72319771127113
 1 -10.14665795519552 -2.50341968276828 -1.36618327052705
 1 -2.43572002890289 -0.92027034093409  1.92866355755576
 1 -2.39184278947895  1.83156673927393  1.24805545594559
 1 -2.13582804030403  1.10402085498550  3.58527224072407
 1 -3.43956901690169  2.28072212971297  3.70068223362336
 1 -3.99347278997900  0.42313699769977  3.37684009680968
 1 -1.80058254315431 -1.58855881628163 -0.10281419061906
 1 -2.13746541904190  0.24324157455746 -0.72121216081608
 1 -0.28855237263726  0.79059367326733  0.71313171227123
 1 -0.13543134513451 -0.86766128132813  1.24476843204320
 1 -5.56152492789279  6.80745939003900  0.33910962016202
 1 -5.67358434783478  6.17218058115812  2.26348264536454
 1 -4.46375033103310  5.65325649204920  1.29527270287029
 1 -9.57056910941094  5.86508265636564 -0.25468569676968
 1 -9.25681689758976  7.83384412331233  0.64640426222622
 1 -7.77298676447645  7.64540093959396  1.55110349584958
 1 -12.14999910501050  2.76923724972497 -2.63062606730673
 1 -13.38520819001900  1.85558945014501 -1.60793198469847
 1 -12.44494622572257  3.15208386308631 -0.70294153815381
 1 -12.39618439683968 -1.75076452155216 -1.57556251115111
 1 -13.38506722562256 -0.59597633443344 -1.81690721822182
 1 -12.70750710331033 -1.75990067626763 -3.79551943644364
 1 -12.14818838303830 -0.12885742334233 -4.11295479117912
 1 -11.04775105440544 -1.57198206530653 -3.70360898089809
 1 -9.20997060006001 -4.49892063496350 -1.70786405050505
 1 -7.97394675947595 -5.59634963916392 -0.84051366436644
 1 -9.47755764066407 -4.82591761306131  0.04226240364036
 1 -3.38164886078608 -3.33915716641664 -0.12533780528053
 1 -1.50555872237224 -4.62411885158516  3.38321123642364
 1 -2.85981559015902 -5.71713333093309  3.73086592549255
 1 -1.46341445294529 -6.06533580678068  2.72900685358536
 1  2.54987429152915 -1.77984982088209 -1.36376034103410
 1  2.45366284388439 -0.12906862726273 -1.95207836003600
 1  4.12552345794579 -0.78776099129913  0.45341855785579
 1  4.08526749024903  1.15681439183918 -2.80078844854485
 1  5.34623003470347  2.33564382328233 -2.13064953315332
 1  5.84590189778978  0.72511361886189 -3.12968169916992
 1  6.50695275817582  1.41890589058906  0.26157880068007
 1  6.06099021842184 -0.34847288468847  0.51661137783778
 1  7.36928431313131 -0.99931916711671 -1.50842216581658
 1  7.87656009190919  0.44016722482248 -1.95411833543354
 1  9.24581663326333  0.91486937193719 -0.14154652245225
 1  8.94064255295530 -0.52111761796180  0.82343020672067
 1  10.31161871327133 -0.08969643194319 -2.05558044754475
 1  9.22777776327633 -2.56915489198920 -1.88148407320732
 1  11.02653520922092 -2.51790857475748 -1.92799704360436
 1  9.93290617661766 -2.65038698069807 -0.17281672137214
 1  11.31838951985199  0.89979220942094 -0.04725323782378
 1  11.26413946734674 -0.66256221752175  1.08147876947695
 1  12.83744706360636 -1.58081624282428 -0.83806147374737
 1  12.91695544804480 -0.26687599659966 -1.69817317861786
 1  13.57504894159416  0.99158171417142  0.35936327932793
 1  13.85224797789779 -0.61015061976198  1.25918243474347
 1  15.23325661416142  0.29851933693369 -1.46699105710571
 1  16.32268971187119 -2.29523981608161  0.29894844094409
 1  15.07700075077508 -2.38996137173717 -1.07984539963996
 1  16.81767139653966 -1.84361988688869 -1.32112358185819
 1  16.09983518421842  1.12576040974097  1.09896644094409
 1  16.64473892109211 -0.47750692579258  1.21315407660766
 1  18.24506544524452 -0.25216176357636 -0.91928526892689
 1  17.60548761326133  1.37734505340534 -0.99599317511751
 1  18.58719951255125  2.21198535623562  1.11843984928493
 1  18.80008716901690  0.71473565456546  1.59742974327433
 1  20.51831674437444  0.50600674887489 -0.11552448844884
 1  19.80126423302330  3.31848541044104 -0.75065865926593
 1  21.29602385448545  2.38264491729173 -1.35228659195920
 1  19.69074297869787  1.82570438123812 -1.93162013101310
 1  21.02515849104910  1.37635574467447  2.25834545174517
 1  22.13098480478047  2.15902713241324  0.77405237153715
 1  20.75034476437644  2.94576465976598  1.54530497099710
>>>>>>> 8e03b5b5abfc0030b3aa597dc0de36371bfbd096

