%nproc=4
%Mem=2GB
# td=(NStates=1) CAM-B3LYP/6-31G(d,p) 

TD

0 1
12 -7.20431100410041  0.58088683678368  0.09649733713371
 6 -4.75910052805281 -2.04502568096810  0.50510704340434
 6 -4.74195412431243  2.77665611291129  1.01301766666667
 6 -9.38474320982098  3.13297879337934 -0.54741760146015
 6 -9.44567488118812 -1.72677818881888 -0.87048347744774
 7 -5.14651807640764  0.39122894099410  0.72047246554655
 6 -4.33389309540954 -0.78192801480148  0.79715773897390
 6 -2.95664466986699 -0.39553897959796  1.22590294449445
 6 -3.07671110951095  1.07692036033603  1.66670740144014
 6 -4.37368436333633  1.44277502630263  1.02855988588859
 6 -2.92701778387839  1.36420870897090  3.11042245114511
 6 -1.89092255325533 -0.54251951335134  0.14736869516952
 6 -0.51328875147515 -0.25801014821482  0.49716384568457
 6  0.48106924412441 -0.73233674657466 -0.56086146664666
 8  0.22953419351935 -1.16972237983798 -1.73049938163816
 8  1.80045185568557 -0.50605800220022 -0.20743753265327
 7 -7.01228167606761  2.58480407020702  0.23241193669367
 6 -6.01589086808681  3.35351632743274  0.61402493609361
 6 -6.37798505160516  4.73286757615762  0.63387407460746
 6 -7.68565127212721  4.83310394189419  0.29849824112411
 6 -8.10292456405641  3.41633082838284  0.08529107540754
 6 -5.47812576927693  5.80583304920492  1.23826858735874
 6 -8.45823362096210  6.05016605030503  0.20283726912691
 6 -8.35473936523652  7.14330044864486  1.09405565536554
 7 -9.09853212581258  0.68469133023302 -0.48286231993199
 6 -9.87769402910291  1.84722467556756 -0.70227655175518
 6 -11.14309340594059  1.53897223632363 -1.12309402890289
 6 -11.26471887578758  0.12528789288929 -1.23743245724572
 6 -9.89210489118912 -0.33350532483248 -0.89565458155816
 6 -12.33150197389739  2.47738830983098 -1.43432020682068
 6 -12.35650019631963 -0.79400681078108 -1.82254306280628
 6 -12.29937742614261 -0.80719313051305 -3.41054617321732
 7 -7.22339180748075 -1.47813742734273 -0.20046472347235
 6 -8.26811705150515 -2.27635280738074 -0.44410936613661
 6 -7.78164431003100 -3.69290755825583 -0.54838211551155
 6 -6.47030091419142 -3.62875721272127 -0.16309804170417
 6 -6.12013460986099 -2.21549983128313 -0.05183237903790
 6 -8.67321478887889 -4.92254509690969 -0.65817429582958
 6 -5.30876534683468 -4.37068095159516  0.28917178977898
 8 -5.16093493139314 -5.56790127352735  0.23998102880288
 6 -4.12877645704570 -3.37117290709071  0.61062092739274
 6 -3.59549017991799 -3.68112333363336  1.89402977587759
 8 -3.70098169876988 -3.12820955715572  2.94942762386239
 8 -2.72299349304930 -4.81598632103210  1.73757233813381
 6 -2.15422601050105 -5.19580380948095  2.99206414191419
 6  2.80982349404940 -0.67920571517152 -1.20897209760976
 6  4.11544363336334 -0.47502567886789 -0.51062121112111
 6  5.08549203360336  0.34308057345735 -0.92091186388639
 6  5.07432585558556  1.33318596789679 -2.03599776507651
 6  6.38911324412441  0.47597944814481 -0.13586007120712
 6  7.66976451435144 -0.05926627352735 -0.90654760526053
 6  8.84091596419642  0.01641651125113 -0.07378919171917
 6  10.12557318181818 -0.45931300300030 -0.72938390889089
 6  9.97663436363636 -1.99839077517752 -1.20170363536354
 6  11.39322219911991 -0.28989277007701  0.07946881548155
 6  12.71269617731773 -0.41341539263926 -0.61224124702470
 6  13.95026449484948 -0.17248845164516  0.31101816931693
 6  15.29784590949095 -0.25181891099110 -0.51437967776778
 6  15.61415308420842 -1.65726336013601 -0.82457207490749
 6  16.42437654355436  0.52164652465247  0.29803431063106
 6  17.79312390179018  0.56570796919692 -0.24042985758576
 6  18.85048541804180  1.25917413441344  0.68100853385339
 6  20.25866453565357  1.26029636313631  0.17422218541854
 6  20.36175752955296  1.85012330953095 -1.29001999469947
 6  20.99077000780078  2.16630956725673  1.22663802720272
 1 -4.14280576507651  3.42308783018302  1.54338892579258
 1 -10.09168956165617  3.73022385738574 -0.80268566006601
 1 -10.18908219761976 -2.36505584638464 -1.10952760496050
 1 -2.67950440734073 -1.02090040394039  2.01950264146415
 1 -2.30485409060906  1.62882646524652  0.97045769616962
 1 -2.02917737523752  0.82452290519052  3.34822853635364
 1 -3.03135819581958  2.48693275077508  3.50844300970097
 1 -3.89434287698770  0.96232091609161  3.74557697049705
 1 -1.95542802770277 -1.41299125952595 -0.38957286648665
 1 -2.30970264276428  0.03886113651365 -0.64401444104410
 1 -0.18383190059006  0.62437705160516  0.84113451255126
 1 -0.18718652065207 -0.97141165636564  1.24419837503750
 1 -6.07588636403640  6.82876152025202  0.89799550875087
 1 -5.53473046244624  6.01728509160916  2.18873517061706
 1 -4.41052500850085  5.66874804120412  0.83102627822782
 1 -9.33140519301930  6.09657580568057 -0.60908113631363
 1 -9.24819603550355  7.91819255815582  0.90188981078108
 1 -7.91348081388139  7.25931233073307  1.95419380488049
 1 -11.97218132323232  3.33171349734974 -2.07917092179218
 1 -13.19176884608461  1.78221211241124 -1.82086327782778
 1 -12.69921165226523  2.83992264696470 -0.52767401140114
 1 -12.38024280268027 -1.86676612171217 -1.46925188008801
 1 -13.32594131303130 -0.23964070087009 -1.32887841534153
 1 -13.23496984958496 -1.43327801400140 -3.93224310881088
 1 -12.27540110431043  0.23049851225123 -3.78929242494249
 1 -11.47876415571557 -1.44100896799680 -3.52733135313531
 1 -9.33779338233824 -4.75440618351835 -1.57756102020202
 1 -8.17712707750775 -6.02210221442144 -0.94337395039504
 1 -9.50118000290029 -4.89720474177418  0.16071424882488
 1 -3.59660035593559 -3.69936318701870 -0.17272254375438
 1 -1.50343851035104 -4.48516495619562  3.43730664596460
 1 -2.81830143874387 -5.55564718231823  3.69772261116112
 1 -1.44926303780378 -6.05031430463046  2.82919687258726
 1  2.78097740184018 -1.53166500240024 -1.64324828982898
 1  2.53233071067107  0.26621090069007 -1.65568872107211
 1  4.29004991059106 -1.12487470267027  0.32754597059706
 1  4.09038800230023  1.46003471387139 -2.66534490419042
 1  5.33754916661666  2.43892415131513 -1.82558902710271
 1  5.73673098069807  0.86964807230723 -2.85335406640664
 1  6.75516757965797  1.40479447944795  0.13280592339234
 1  6.54670879027903 -0.13495153255325  0.79998971567157
 1  7.67698508320832 -1.12741197639764 -1.25503682728273
 1  7.73721615751575  0.55528873697370 -1.72652557615762
 1  9.27264931653165  1.03605149014901  0.37832546474647
 1  8.55429391809181 -0.62969847604760  0.68624648834883
 1  10.07694524592459  0.04392693039304 -1.80203509300930
 1  8.96835182068207 -2.34512248874888 -1.63789971477148
 1  10.88722127782778 -2.26439322322232 -1.85103934783478
 1  10.02353523952395 -2.63073501550155 -0.18006744644464
 1  11.62710039093909  0.72765499569957  0.56162765026503
 1  11.46256931033103 -0.86615257655766  0.89119974157416
 1  12.92599591849185 -1.42954111531153 -1.19224689228923
 1  12.80795454795479  0.25953664466447 -1.55470883218322
 1  13.71578301500150  0.86263881988199  0.40886822982298
 1  14.03165591869187 -0.66177578227823  1.28667518401840
 1  15.09543283178318  0.08640812581258 -1.43205756375638
 1  15.90537798069807 -2.27892818491849  0.00337888398840
 1  14.87457050775078 -2.24146652225223 -1.46763417851785
 1  16.51864149354936 -1.90901642654265 -1.09715118461846
 1  16.09616481718172  1.54000183388339  0.72982952725273
 1  16.44449889708971  0.00431125602560  1.25224798599860
 1  17.96264720342034 -0.40022657005701 -0.55704904530453
 1  18.15686275077508  1.19142646154615 -1.23000657645765
 1  18.42279307190719  2.34067822552255  0.75254325962596
 1  18.89384654495450  0.80776495749575  1.70200020032003
 1  20.67770268296830  0.14984113231323  0.13254031803180
 1  19.87345145174517  2.92638620052005 -1.28590218361836
 1  21.47058131023102  2.13355000780078 -1.70226158945895
 1  19.86164006840684  1.26833864466447 -1.99214618361836
 1  20.85747172237224  1.79098720782078  2.15127474467447
 1  22.01073277957796  1.98107933763376  1.09630459675968
 1  20.61566129602960  3.26309639293929  1.20684112461246

