%nproc=4
%Mem=2GB
# td=(NStates=1) CAM-B3LYP/6-31G(d,p) 

TD

0 1
12 -7.22776334933493  0.55342409050905  0.08964665206521
 6 -4.86090070807081 -2.00942212061206  0.54415094779478
 6 -4.82582251115112  2.87357580488049  1.03400976587659
 6 -9.47530226572657  3.08922441794179 -0.40858371807181
 6 -9.53913422712271 -1.85737124812481 -1.03911034013401
 7 -5.14936836143614  0.46453627172717  0.65174559285929
 6 -4.40261996809681 -0.66942676467647  0.75248327152715
 6 -2.99823882928293 -0.28745817151715  1.23606396059606
 6 -3.10408384678468  1.20713338163816  1.63546427712771
 6 -4.43915090999100  1.57853860266027  1.04486151605161
 6 -2.97087216931693  1.36502879097910  3.14064547344735
 6 -1.87249071007101 -0.63589885128513  0.06499045734573
 6 -0.53895131773177 -0.49108345554555  0.60856498579858
 6  0.57890902810281 -0.66779029192919 -0.47808318881888
 8  0.21199243934393 -0.85920132773277 -1.66196252795280
 8  1.78456026652665 -0.44205160156016 -0.05883267216722
 7 -7.13952440034003  2.61442703250325  0.26225492099210
 6 -6.16642592159216  3.41352232803280  0.65873940754075
 6 -6.57655490859086  4.82691698109811  0.74536522372237
 6 -7.89527223422342  4.76749738123812  0.37253564486449
 6 -8.25642991459146  3.47926712201220 -0.03034048774877
 6 -5.63358131483148  5.96347881378138  1.13004776527653
 6 -8.61623942154215  6.06467750145015  0.13135012041204
 6 -8.57831172247225  7.14706082468247  0.91604785458546
 7 -9.19698197079708  0.67996085718572 -0.53875790949095
 6 -9.94698095779578  1.74435438853885 -0.55760208430843
 6 -11.32381147774777  1.38826716581658 -1.11323304280428
 6 -11.26611901580158  0.08101346544654 -1.27609632363236
 6 -9.89799548024802 -0.45927790209021 -0.91035605170517
 6 -12.39037786148615  2.46197676867687 -1.55081185598560
 6 -12.37367191349135 -0.79343675377538 -1.81186199469947
 6 -12.39326681508151 -1.11501391259126 -3.16357147574757
 7 -7.27914738303830 -1.35637525112511 -0.15220989798980
 6 -8.30900113991399 -2.32136730883088 -0.53775873107311
 6 -7.77272341794179 -3.59709797729773 -0.61210848814882
 6 -6.48041192529253 -3.56895123212321 -0.12430416231623
 6 -6.21403399979998 -2.14470275157516  0.12888569276928
 6 -8.56505397279728 -4.84139698209821 -0.99949842824282
 6 -5.27824229452945 -4.34794867836784  0.18334120672067
 8 -5.14310314821482 -5.54899938333833  0.19386641734173
 6 -4.13042662206221 -3.27422321212121  0.60069993529353
 6 -3.53548417931793 -3.64117933923392  2.00196056895690
 8 -3.82091369196920 -3.04860159635964  3.03613629472947
 8 -2.71779297299730 -4.71786650905091  1.82962154305431
 6 -2.26046663456346 -5.15546977607761  3.03112804830483
 6  2.90475298699870 -0.62107990259026 -1.06011721212121
 6  4.10565265426543 -0.43907208350835 -0.42775292429243
 6  5.14908839323932  0.34556082148215 -0.79056882958296
 6  5.04904332733273  1.13043569286929 -2.01729589488949
 6  6.37921225402540  0.25248709890989 -0.04044052925293
 6  7.61211874977498 -0.16091643854385 -0.92318926942694
 6  9.00166203880388 -0.15178030843084 -0.12734454725473
 6  10.19887051155115 -0.55278234993499 -0.79460043054305
 6  10.32308900910091 -1.86301723782378 -1.50641410641064
 6  11.56417929482948 -0.33934771557156  0.04600546914691
 6  12.89023393109311 -0.45805985708571 -0.73838386128613
 6  14.04967443584358 -0.07690889368937  0.25334240174017
 6  15.41431755665567 -0.20284401350135 -0.58081632143214
 6  15.83859552845285 -1.62578021182118 -0.94210382808281
 6  16.54129823572357  0.38234259425943  0.31308581578158
 6  17.89067365676567  0.43951534993499 -0.22057787238724
 6  18.92063243274328  1.18504672167217  0.67247768076808
 6  20.41839050825082  1.23272360586059  0.13012777597760
 6  20.53414476827683  2.13205150235024 -1.11057204990499
 6  21.28691962276228  1.89399233553355  1.23314867826783
 1 -4.03948543304330  3.61819734113411  1.37235182208221
 1 -10.23427382008201  3.72058289328933 -0.31248664016402
 1 -10.16024931433143 -2.58108744954495 -1.61675832803280
 1 -2.72296875377538 -1.10276859075908  1.83797448864886
 1 -2.20435404060406  1.93067665026503  1.35322597299730
 1 -1.88203266076608  0.85730618351835  3.33287700120012
 1 -3.03192825282528  2.31910596809681  3.55573773917392
 1 -3.50821426412641  0.53934861886189  3.69095150795079
 1 -2.09730221512151 -1.52443240364036 -0.25891980118012
 1 -1.90897256975698  0.07047429782978 -0.79450949054905
 1 -0.40057357475748  0.56012062596260  1.01317171627163
 1 -0.35689349134913 -1.24462897809781  1.47660161536154
 1 -5.70149892529253  6.97241588568857  0.67104281348135
 1 -5.60351734113411  6.31318468156816  2.26574287138714
 1 -4.60414437043704  5.82981414781478  1.10616379197920
 1 -9.52136418891889  6.14415056315632 -0.58523875207521
 1 -9.16529774567457  8.02140287918792  0.89876949874988
 1 -7.83231269706971  7.03710010951095  1.74200258575858
 1 -12.12671677677768  3.12497282328233 -2.41986499119912
 1 -13.21884155335533  1.76307019821982 -1.93352454395440
 1 -12.80342207330733  3.13375202990299 -0.65012625662566
 1 -12.27792257065707 -1.82185163026303 -1.19682463736374
 1 -13.39101782068207 -0.32899963676368 -1.49309483698370
 1 -13.33174952755276 -1.66587127332733 -3.44494437893789
 1 -12.52884644884488 -0.13657819541954 -3.57091058675868
 1 -11.38510478977898 -1.78107297439744 -3.22806142614261
 1 -9.00050965396540 -4.77386812971297 -2.09637290139014
 1 -8.02391175597560 -5.82023202740274 -0.66782639563956
 1 -9.48756864176418 -4.99920494179418 -0.35020684328433
 1 -3.37426812271227 -3.39878312901290 -0.28511378287829
 1 -1.40101826832683 -4.62504894459446  3.42515543084308
 1 -3.16812642124212 -5.57122874047405  3.76809964886489
 1 -1.84683279477948 -6.09474874807481  2.60815476837684
 1  2.55133443754375 -1.57874971087109 -1.80541450645065
 1  2.58427590519052  0.11401568116812 -1.87911106330633
 1  4.14921582718272 -0.76620883608361  0.70641385738574
 1  4.06638560206021  1.43255196559656 -2.22947131683168
 1  5.43020843254325  2.08476873577358 -1.90315678387839
 1  5.50466777437744  0.61766287378738 -2.78666739773977
 1  6.72485454835483  1.33456745674567  0.27779042184218
 1  6.36478059745975 -0.47712574997500  0.96155587228723
 1  7.45807319201920 -1.16984621982198 -1.25996732033203
 1  7.75109754565457  0.54815802390239 -1.75008793239324
 1  9.15374742634263  0.93558144314431 -0.00302267006701
 1  9.02442093079308 -0.75592109830983  0.67776564026403
 1  10.17943549494949  0.25278781648165 -1.66804169366937
 1  9.52028701420142 -2.03648162466247 -2.14180010481048
 1  11.49685224092409 -1.83071985588559 -2.03012725662566
 1  10.44710759675968 -2.65173711571157 -0.74959439913991
 1  11.14803248414842  0.68170040024002  0.39272075957596
 1  11.53259631303130 -1.01381734303430  0.92034265586559
 1  13.00975429432943 -1.43893205440544 -1.04010167776778
 1  12.92550630313031  0.38517920892089 -1.58235159645965
 1  13.90781221792179  0.97768032403240  0.87603494649465
 1  14.01971472457246 -0.86368597329733  1.08174469096910
 1  15.43214650315031  0.53786327132713 -1.37313167116712
 1  16.02749019191919 -2.40899119121912 -0.17731918581858
 1  15.04822787348735 -2.10864323992399 -1.60154756985699
 1  16.79879950935094 -1.44850037493749 -1.63021449094910
 1  16.17212241294130  1.39393722742274  0.49083562786279
 1  16.72178662586258 -0.10313948904890  1.25071783298330
 1  18.55762670137014 -0.59808635603560 -0.37793113351335
 1  17.91782884738474  0.95011233013301 -1.33027660346035
 1  18.46065685828583  2.23116727442744  0.80115812111211
 1  18.85585274557456  0.62675685668567  1.75164516481648
 1  20.68678359105911  0.14540068826883 -0.04113704970497
 1  20.42092619921992  3.24288785068507 -0.98674226762676
 1  21.62028628072807  2.01932858565857 -1.51250261356136
 1  19.91806571097110  1.87020883168317 -1.88783575257526
 1  21.23302927812781  1.16462457155716  2.02100171737174
 1  22.23440514681468  1.80238146784679  1.01748671497150
 1  20.94609433933394  2.90463054635464  1.39983042354235

