%nproc=4
%Mem=2GB
# td=(NStates=1) CAM-B3LYP/6-31G(d,p) 

TD

0 1
<<<<<<< HEAD
12 -7.12629320232023  0.57078582668267  0.04689237663766
 6 -4.86287090509051 -1.93026420482048  0.52980951365136
 6 -4.81461139003900  2.84075252255226  1.14330069496950
 6 -9.43836857235724  3.13002849834983 -0.42644550425042
 6 -9.55854616831683 -1.69481499249925 -0.88220464956496
 7 -5.07190061466147  0.47045686378638  0.65712613091309
 6 -4.43264297039704 -0.68016783878388  0.84394241744174
 6 -2.96470547594759 -0.38919834553455  1.20946130033003
 6 -3.05461890029003  1.00617328562856  1.67807853855386
 6 -4.35309230413041  1.51531228002800  1.13540056995700
 6 -2.90494557665767  1.14664695279528  3.10353176207621
 6 -1.83041650265026 -0.61350661206121  0.17154111241124
 6 -0.35451287388739 -0.49494384158416  0.60510463976398
 6  0.61814295149515 -0.72950646354635 -0.56494187468747
 8  0.21535277537754 -0.90441584918492 -1.69278561026103
 8  1.93893570407041 -0.66025342174217 -0.07928471737174
 7 -7.04843529142914  2.69290488028803  0.37537623312331
 6 -6.05259453845385  3.40564153995400  0.73667720132013
 6 -6.35764301740174  4.79101339073907  0.81831251845185
 6 -7.73433614061406  4.90409104060406  0.36465485678568
 6 -8.08166243784379  3.47839703500350  0.18396094239424
 6 -5.49861781848185  5.97307977387739  1.32830759125913
 6 -8.57360515811581  6.01047208090809  0.12387937333733
 6 -8.65143903520352  7.06181229982998  0.81454770457046
 7 -9.11189346194620  0.65878873997400 -0.56508054175418
 6 -9.86484274397440  1.86791674477448 -0.65149147324732
 6 -11.17402649924992  1.53740207930793 -1.14303602310231
 6 -11.22586499039904  0.14864022812281 -1.29812852685269
 6 -9.90530621132113 -0.30876285058506 -0.90768578467847
 6 -12.22523134683468  2.54712528352835 -1.46888366316632
 6 -12.39044359065907 -0.67549495959596 -1.76134694319432
 6 -12.29623711211121 -1.15497790899090 -3.28008312691269
 7 -7.18625809410941 -1.42510212381238 -0.18403308030803
 6 -8.21207144694469 -2.24870004210421 -0.66312126732673
 6 -7.83683982958296 -3.58226649414941 -0.56768404570457
 6 -6.54260814491449 -3.58334267126713 -0.08402013391339
 6 -6.17579017541754 -2.19589787108711  0.09796260046005
 6 -8.61401886928693 -4.84272711511151 -0.93489196759676
 6 -5.35617008730873 -4.32931681518152  0.23032590519052
 8 -5.23264210211021 -5.45363984738474  0.16158318901890
 6 -4.17962154155416 -3.26647243704370  0.54924478977898
 6 -3.59853048394839 -3.67642286358636  2.01134150705070
 8 -3.84065566616662 -3.13251998819882  3.03264594569457
 8 -2.89980117381738 -4.87073179557956  1.89544812571257
 6 -2.43717430533053 -5.28890311941194  3.15711064656466
 6  2.78932144384438 -0.81847964256426 -1.20826202660266
 6  4.17495958495850 -0.53160133643364 -0.51540168916892
 6  5.06807029142914  0.26241250665066 -1.09656942964296
 6  5.01559998299830  1.03413606290629 -2.40175434073407
 6  6.36095042784278  0.31871372157216 -0.24058054325433
 6  7.72834037193719 -0.16861720862086 -1.05181213171317
 6  8.87670954355436 -0.10054518491849 -0.29185099789979
 6  10.29978060256026 -0.57121419311931 -0.82687365786579
 6  10.14164086428643 -2.10671160726073 -1.22687615261526
 6  11.44247712461246 -0.37223100390039  0.09758062666267
 6  12.78025293299330 -0.50316436753675 -0.77119714261426
 6  14.01844131253125 -0.00570177297730  0.07434450195020
 6  15.40018614351435 -0.08869259835984 -0.49635787558756
 6  15.64504617351735 -1.59009664346435 -0.84581419911991
 6  16.39935404130413  0.56735109510951  0.47275178237824
 6  17.84444903430343  0.66405780418042 -0.16700251485149
 6  18.77263763326333  1.41836005300530  0.71194162716272
 6  20.31507017621762  1.38430876437644  0.25397016021602
 6  20.52118347214721  2.04125242244224 -1.20353134583458
 6  21.25831676247625  2.06139907620762  1.30710607400740
 1 -4.20960244474447  3.57898341974197  1.57318190509051
 1 -10.20406079877988  3.87545838083808 -0.58299369086909
 1 -10.37435072447245 -2.34574391519152 -1.35543219541954
 1 -2.78539499639964 -1.10867918181818  1.94698538973897
 1 -2.29068267346735  1.68556213881388  1.13016366676668
 1 -1.92261671917192  0.92317277017702  3.25120883438344
 1 -3.16504156415642  2.13795785328533  3.56137830323032
 1 -3.73852729542954  0.68909359335934  3.65866827962796
 1 -2.09731221612161 -1.74286424682468 -0.11809571877188
 1 -1.88094976747675 -0.03321607120712 -0.77068710831083
 1 -0.30806432383238  0.50157477137714  1.05319571867187
 1 -0.26857465946595 -1.22038655385539  1.46144009920992
 1 -5.83421219661966  6.91756040014001  0.71661737093709
 1 -5.66829381878188  6.27716107920792  2.28835513261326
 1 -4.38889284528453  5.91847301370137  1.06246942254225
 1 -9.24539659215922  5.78721486958696 -0.73221344954495
 1 -9.25897711361136  7.90046078497850  0.59427904970497
 1 -8.02536200200020  7.14844124362436  1.68377676317632
 1 -12.28587269236924  2.69290961696170 -2.76001900660066
 1 -13.17355702490249  1.87398128932893 -1.20245143664366
 1 -12.18551028212821  3.38345700040004 -0.65325656965697
 1 -12.61920669906991 -1.54514395949595 -1.12728768366837
 1 -13.36776549544954 -0.24474121092109 -1.71515704320432
 1 -13.13565991859186 -1.87891257745775 -3.46754663916392
 1 -12.27104066826683 -0.32494703230323 -3.95332882858286
 1 -11.37168344764476 -1.62590745784578 -3.32611123112311
 1 -8.89394899789979 -4.68073881678168 -2.00294355845584
 1 -8.11687105190519 -5.90946095029503 -0.87289690269027
 1 -9.48017790269027 -5.03708873017302 -0.36159798239824
 1 -3.40635133103310 -3.39120237093709 -0.30697596909691
 1 -1.76853502000200 -4.66094253395339  3.55271818711871
 1 -3.09422903150315 -5.61944356195620  3.97740057895790
 1 -1.70426853835384 -6.04873414661466  2.89145309820982
 1  2.78557786188619 -1.85784762066207 -1.38757272227223
 1  2.51822930053005 -0.26012173257326 -1.94374752695270
 1  4.41876278187819 -1.03407562276228  0.25884910091009
 1  3.90369933343334  0.88079679007901 -2.77115548524853
 1  5.05284069576958  2.26169642854285 -2.19771623982398
 1  5.81054836243624  0.92850395789579 -3.29075780678068
 1  6.63430549344934  1.32998699869987  0.04516715951595
 1  6.21452557195720 -0.33043108050805  0.60022973967397
 1  7.43474085878588 -1.17717695289529 -1.59325064866487
 1  7.69000143604360  0.58387159525953 -1.71206413001300
 1  9.07134918651865  0.86402428742874  0.10321795399540
 1  8.64047253595360 -0.77766327252725  0.55778364206421
 1  10.41904945634563 -0.15495295759576 -1.78749363886389
 1  9.30792577807781 -2.37451542804280 -1.99867579237924
 1  11.02942549824983 -2.33873065696570 -1.78382262616262
 1  10.06554944094409 -2.65993793579358 -0.17630707040704
 1  11.38966664756476  0.70974320452045  0.50081156865687
 1  11.45689874327433 -1.04048000930093  1.07568819041904
 1  12.85356867576758 -1.63927208840884 -1.25648331593159
 1  12.49468322082208  0.06547723872387 -1.63508686998700
 1  13.80462189888989  1.11090364636464  0.55338268126813
 1  13.94639739283928 -0.61574117881788  0.93435995249525
 1  15.41361464996500  0.43159264426443 -1.41228558655865
 1  15.53106054895490 -1.94353464556456  0.08042658875888
 1  14.96775982668267 -1.84424680028003 -1.68664607970797
 1  16.72100172957296 -1.58851437633763 -1.19352082158216
 1  15.95328052875288  1.54511234493449  0.80100664496450
 1  16.29643409060906 -0.04328350345034  1.52884564576458
 1  18.30572151085109 -0.36816336373637 -0.43602694309431
 1  17.56399346384639  0.94613193209321 -1.27823139893989
 1  18.39859065166517  2.36562071977198  0.84677268256826
 1  18.73039019931993  0.95631981298130  1.79131913221322
 1  20.52525743844384  0.34201034923492  0.14196126012601
 1  20.55811991859186  3.27127068896890 -1.08382197559756
 1  21.58650290239024  1.76189284208421 -1.55032639593959
 1  19.81981588598860  1.53189500030003 -1.92591956095610
 1  21.16770274547455  1.27842595169517  2.12689230643064
 1  22.33019472577258  2.09391062076208  0.88435340164016
 1  20.85138486838684  3.03482356565657  1.73448388888889
=======
12 -7.13320389338934  0.58067681578158  0.08613630103010
 6 -4.83898851685169 -1.90438161656166  0.52719925262526
 6 -4.79469939883988  2.80245869316932  1.10313667856786
 6 -9.37125186068607  3.15044053955396 -0.35120798049805
 6 -9.40800111381138 -1.62567807880788 -0.91010743984398
 7 -5.09649307390739  0.46007582568257  0.71205162346235
 6 -4.26663636973697 -0.65561538353835  0.83292131533153
 6 -2.93986299169917 -0.40445987168717  1.34018437263726
 6 -2.99828326672667  1.07833050135014  1.76292702340234
 6 -4.34371136603660  1.55722647144714  1.21429845974597
 6 -3.04445952805281  1.15501778987899  3.20390179907991
 6 -1.91490495149515 -0.76428168956896  0.26784074237424
 6 -0.47698512111211 -0.63906825402540  0.63578770807081
 6  0.46196733393339 -0.67752126502650 -0.56445182568257
 8  0.23801504160416 -1.02458786638664 -1.63228956065607
 8  1.78606041654165 -0.35965336173617 -0.17126391529153
 7 -7.06403685158516  2.62053764356436  0.26844554005401
 6 -6.08342762176218  3.42343331913191  0.77615114871487
 6 -6.43078033113311  4.76017030643064  0.79348003520352
 6 -7.66460916791679  4.89075970747075  0.28960735203520
 6 -8.05845011661166  3.47435663096310  0.04368691499150
 6 -5.52764072077208  5.95870833673367  1.15840060056006
 6 -8.55656345394539  6.04580561426143  0.12111909730973
 6 -8.41681557285729  7.18897501610161  0.85802205200520
 7 -9.14932720532053  0.72821568266827 -0.51643567726773
 6 -9.91626788648865  1.80938089118912 -0.63018934303430
 6 -11.16769586618662  1.46649498859886 -1.19812153165317
 6 -11.19524192809281  0.11884724882488 -1.45504421842184
 6 -9.92219790049005 -0.36387836213621 -0.97774279037904
 6 -12.23395221892189  2.44420499149915 -1.48566534133413
 6 -12.30179472577258 -0.77037444754475 -1.93202401090109
 6 -12.12321981038104 -1.04020643184318 -3.50923604220422
 7 -7.11828129642964 -1.33523313691369 -0.05586026302630
 6 -8.21985222502250 -2.18217338943894 -0.53054801000100
 6 -7.73102924852485 -3.62312057955796 -0.55458273557356
 6 -6.48901278537854 -3.54343868086809 -0.09913164506451
 6 -6.19224182058206 -2.22190047134713  0.16727953215322
 6 -8.49453692109211 -4.87720056245625 -1.01242972137214
 6 -5.39333380368037 -4.45799968346835  0.28839171177118
 8 -5.08889772767277 -5.59841432483248  0.24731176187619
 6 -4.21090466986699 -3.40115590539054  0.64768463376338
 6 -3.58152878377838 -3.72620784208421  1.96628700160016
 8 -3.90087168776878 -3.15212194839484  3.03766644774477
 8 -2.69250044374437 -4.71613633603360  1.87931651255126
 6 -2.13094368226823 -5.14765899499950  3.02758769426943
 6  2.74367687938794 -0.64008180278028 -1.22228342874287
 6  4.06646873587359 -0.52451062736274 -0.53460360936094
 6  5.03342682708271  0.31038730413041 -0.81673144584458
 6  5.03063148614861  1.28237088638864 -2.02668683398340
 6  6.37768210101010  0.42209405960596 -0.11863834903490
 6  7.59086662456246 -0.16269661656166 -0.85143209370937
 6  8.85679755235524 -0.13685881628163 -0.15510732353235
 6  10.01385200970097 -0.69330640234023 -0.92536350685068
 6  9.94688138833883 -2.17932886898690 -1.27301076607661
 6  11.25779865676568 -0.40152393319332 -0.14947407880788
 6  12.72627753545354 -0.51296534763476 -0.75182520542054
 6  13.93156262466247 -0.16609781258126  0.13553062056206
 6  15.33833995889589 -0.23068679777978 -0.47464570437044
 6  15.77840950985098 -1.60302793659366 -1.00520013771377
 6  16.47702180808081  0.46384074407441  0.42490699789979
 6  17.86666125552555  0.66872827122712 -0.21981779637964
 6  18.75424579407941  1.45034325132513  0.62863329632963
 6  20.17742641184118  1.41957229072907  0.06855161836184
 6  20.35195654945495  2.13598189538954 -1.22999399209921
 6  21.11048197899790  1.98935187148715  1.31827719111911
 1 -4.33784526902690  3.53213873527353  1.62849743664366
 1 -10.03358375107511  4.06670750575058 -0.38094348584859
 1 -10.01300458985899 -2.57996733753375 -1.30417706990699
 1 -2.63335979287929 -0.88474678857886  2.28022871407141
 1 -2.23473707890789  1.61319490209021  1.30334098449845
 1 -2.29693415091509  0.53563401630163  3.61980569406941
 1 -2.91612667266727  2.14726878437844  3.30997316271627
 1 -3.94489793249325  0.71712639663966  3.58242065486549
 1 -2.04999748464846 -1.79816977737774 -0.00257416661666
 1 -2.26261793429343 -0.09603235283528 -0.53394343394339
 1 -0.26386990439044  0.34001861576158  1.15062546164616
 1 -0.07666546854686 -1.24999951515152  1.50042399759976
 1 -6.09402817821782  6.85594423852385  0.52093780298030
 1 -5.56019300870087  6.28281164426443  2.21696799389939
 1 -4.44626858285829  5.64699586598660  0.90210338593859
 1 -9.26833888638864  6.07885403350335 -0.64228445664566
 1 -9.00671188708871  7.97718845774577  0.69600922272227
 1 -7.46798626442644  7.30515691519152  1.51085947144714
 1 -11.70639474457446  3.16867719371937 -2.16253925862586
 1 -13.13023269246925  1.99111300250025 -1.99065025652565
 1 -12.48791052215222  2.95034368906891 -0.58819006300630
 1 -12.13957873627363 -1.76537598269827 -1.35619057395740
 1 -13.07174589348935 -0.18110484728473 -1.80583611111111
 1 -12.94055040764076 -1.46038072427243 -4.08621850635063
 1 -12.10948451265127 -0.09581411901190 -3.87792128782878
 1 -11.03508978827883 -1.55953082018202 -3.73019163916392
 1 -9.02441204420442 -4.67906864976498 -2.12571583568357
 1 -7.94388375317532 -5.85940594479448 -1.02601221422142
 1 -9.33213309820982 -5.06185120642064 -0.34594641724172
 1 -3.38095879177918 -3.39876312701270 -0.20262553405341
 1 -1.71005917241724 -4.20885732543254  3.55215813111311
 1 -3.02050165876588 -5.59863148074808  3.59291213011301
 1 -1.50301841334133 -6.06664593779378  2.77833178607861
 1  2.63352265636564 -1.78498033393339 -1.55781974697470
 1  2.63321079867987  0.07549182878288 -2.10140329252925
 1  4.43228413401340 -1.26626884208421  0.28380159615962
 1  4.06308527202720  1.37345605600560 -2.40468883858386
 1  5.35886129782978  2.25982624152415 -1.82307877607761
 1  5.81682899049905  0.92437354485449 -2.78210694169417
 1  6.32409447234723  1.38793279327933  0.12502514531453
 1  6.13681780118012 -0.14372240964096  0.86092580928093
 1  7.44470185488549 -1.15437467266727 -1.25966729032903
 1  7.70637307320732  0.40587379547955 -1.78049097269727
 1  9.03431548314831  0.96329421442144  0.21669930213021
 1  8.74622311101110 -0.92758826502650  0.65104296799680
 1  10.04514206560656 -0.04489195149515 -1.83876876637664
 1  9.14173915941594 -2.57566554305431 -1.94221014581458
 1  10.88248080378038 -2.40642742664266 -1.78935317921792
 1  9.87932081808181 -2.81236317831783 -0.33430286998700
 1  11.31793947484748  0.61501373157316  0.22962444994499
 1  11.20886393979398 -0.94605056635664  0.88871949354936
 1  12.95010832973297 -1.51432959415942 -1.27157482508251
 1  12.86216996949695  0.22853354435444 -1.44357771907191
 1  13.73438487518752  0.90417297329733  0.36063340634063
 1  13.98964171727173 -0.52242184688469  1.19329584608461
 1  15.28104139263926  0.36910639563956 -1.49120347834783
 1  15.77567501040104 -2.47818811091109 -0.26498795269527
 1  14.94757780848085 -1.93364574017402 -1.77279469456946
 1  16.59286891629163 -1.71154667956796 -1.55205667516752
 1  16.19203440414041  1.46865469916992  0.84901144544454
 1  16.54046849404940 -0.18073724882488  1.44276703790379
 1  18.31238217691769 -0.39963651105111 -0.44664800520052
 1  17.77123418791879  1.06963428232823 -1.30336391219122
 1  18.46959775237524  2.50903506120612  0.83963196849685
 1  18.71799896019602  0.95395957695770  1.64249424972497
 1  20.61831674437444  0.44216036423642 -0.05223815981598
 1  19.88768287488749  3.14383794569457 -1.20366395979598
 1  21.37482173427343  2.05609226202620 -1.49086044934493
 1  19.88449235363537  1.59283109390939 -1.95898286728673
 1  21.00200617581758  1.36273438253825  2.17068668586859
 1  22.14611631793179  2.00659188888889  1.06354132043204
 1  20.79730946084609  2.89994007730773  1.66157659815982
>>>>>>> 8e03b5b5abfc0030b3aa597dc0de36371bfbd096

