%nproc=4
%Mem=3GB
# td=(NStates=1) iop(3/107=0140000000,3/108=0140000000) CAM-B3LYP/6-31G(d,p) 

TD

0 1
12 -7.09379407110711  0.63675205870587  0.09834620462046
 6 -4.88368718521852 -1.93738096869687  0.46786218861886
 6 -4.82459849044904  2.75204392229223  1.17783788898890
 6 -9.43911067556756  3.18085563856386 -0.44654713001300
 6 -9.54196029402940 -1.61308307400740 -0.85047185208521
 7 -5.01670870207021  0.38471456205621  0.67990581458146
 6 -4.33464571187119 -0.67483862706271  0.85611350605061
 6 -2.84895111571157 -0.43893229122912  1.21354702380238
 6 -2.99855308220822  1.01188989058906  1.75982226152615
 6 -4.26963719841984  1.45800045114511  1.20695508940894
 6 -2.93653983478348  1.13891671097110  3.29427474207421
 6 -1.97302303200320 -0.57200318951895  0.04882869316932
 6 -0.48763447264726 -0.47779102710271  0.56859024132413
 6  0.51891381458146 -0.72251887378738 -0.57353714381438
 8  0.19172938973897 -1.00736451415142 -1.69504689778978
 8  1.71568016641664 -0.39985992439244 -0.12297768536854
 7 -7.07328497189719  2.61423463336334  0.25143606770677
 6 -6.00232037583758  3.33385715311531  0.75257113321332
 6 -6.35258016641664  4.76156301990199  0.76089434813481
 6 -7.72889767506751  4.85063686888689  0.29876600300030
 6 -8.10115964346435  3.55841278007801  0.02462046064606
 6 -5.38892092599260  5.77851732543254  1.35464561976198
 6 -8.45571557955796  6.02746301590159  0.08961957445745
 6 -8.31160957095710  7.32088123782378  0.52187624692469
 7 -9.12267130823082  0.73069006340634 -0.36952352625263
 6 -9.84490197649765  1.83362668696870 -0.62613542704270
 6 -11.15954990769077  1.52047149164917 -1.14732959265927
 6 -11.28621810901090  0.17568511431143 -1.27846787508751
 6 -9.92129973357336 -0.34084427782778 -0.86723892519252
 6 -12.27059799749975  2.58184342574257 -1.46127558025803
 6 -12.47514130703070 -0.58495461926193 -1.71046037663766
 6 -12.41519342824282 -1.07730792309231 -3.10497114831483
 7 -7.29171213361336 -1.30835567126713 -0.09106178127813
 6 -8.27895222152215 -2.21357990349035 -0.46698827872787
 6 -7.88802084188419 -3.61066161756176 -0.40783108290829
 6 -6.55962375287529 -3.52136511861186 -0.03997607930793
 6 -6.27773150485048 -2.17972592839284  0.13397523292329
 6 -8.66051839133914 -4.85248134653465 -0.85187857095710
 6 -5.50060552345234 -4.35838940234023  0.12810778487849
 8 -5.30162115441544 -5.59736659365937  0.10191614021402
 6 -4.21554605720572 -3.29221666906691  0.47219554115412
 6 -3.53608778557856 -3.69327727042704  1.81682765126513
 8 -3.73973675707571 -3.22112947084708  2.88834219241924
 8 -2.70367572037204 -4.72270088858886  1.70146918441844
 6 -2.12198115511551 -5.29707491339134  2.82493989438944
 6  2.78346466686669 -0.61898018691869 -1.11101461866187
 6  4.19100998619862 -0.55250051795180 -0.51910447324732
 6  5.18376386768677  0.24884141214121 -0.93684656165617
 6  5.06902062766277  1.10999867516752 -2.28403253825383
 6  6.48256453515352  0.25985660166017 -0.28413893829383
 6  7.72190364296430 -0.29063761176118 -1.05263559225923
 6  8.97567527912791 -0.22988480458046 -0.26359246164616
 6  10.25212067266727 -0.77360902410241 -0.94809052905291
 6  10.20558383498350 -2.21373925382538 -1.15445241124112
 6  11.39167383118312 -0.37316220732073 -0.03503146564656
 6  12.77446518201820 -0.53364339783978 -0.68004550965097
 6  13.94598587038704 -0.09491520582058  0.27507391899190
 6  15.32616860786079 -0.05649473307331 -0.40689634213421
 6  15.72960923192319 -1.54568295659566 -0.94458628492849
 6  16.38620561326133  0.43658017531753  0.44859959465947
 6  17.84053164086409  0.56446017561756 -0.11785831283128
 6  18.67428784738474  1.37620569906991  0.72495575227523
 6  20.18611141554155  1.48527796029603  0.16452315831583
 6  20.21621446724673  2.33815112021202 -1.06258095399540
 6  21.12340740774077  2.02247394729473  1.24948888888889
 1 -4.25998636213621  3.64996824822482  1.64556065186519
 1 -10.04439656295630  4.02302457695770 -0.73019754595460
 1 -10.35972039613961 -2.30090562566257 -1.17002482188219
 1 -2.70204749194919 -1.24420462316232  2.05224171487149
 1 -2.24798826512651  1.76201826292629  1.23918756775678
 1 -1.84777786418642  0.59021812821282  3.72442277967797
 1 -3.15637274637464  2.13755297809781  3.70947897009701
 1 -3.56174897539754  0.40982613691369  3.80987267246725
 1 -2.07089220822082 -1.36492716351635 -0.61527953505350
 1 -2.00431680068007  0.07407502730273 -0.93115985058506
 1 -0.27866329502950  0.46540612791279  0.82491635463546
 1 -0.23035145544554 -1.17348811541154  1.35804926322632
 1 -5.40975515321532  6.61661917391739  0.65577540884088
 1 -5.70628209950995  5.92638551995200  2.44000601310131
 1 -4.34466931153115  5.33885815381538  1.26603733633363
 1 -9.10310056985699  5.97822120412041 -0.83827518021802
 1 -9.06673573727373  8.08062778377838  0.20213998969897
 1 -7.60997892999300  7.49234607100710  1.15666462676268
 1 -12.03493396639664  3.22325147224723 -2.37334316581658
 1 -13.06516381408141  1.97739648204821 -1.69234496269627
 1 -12.51646267896790  3.19813714781478 -0.55978641814181
 1 -12.54994695959596 -1.62172309510951 -1.08698219911991
 1 -13.40538283738374 -0.05688839933993 -1.47058281268127
 1 -13.43521872107211 -1.67807146924692 -3.09799075717572
 1 -12.40067047274727 -0.22418088938894 -3.84942392079208
 1 -11.66335117451745 -2.00366139333933 -3.42831110931093
 1 -8.95901051965197 -4.93323982478248 -1.83625968896890
 1 -7.84228861406141 -5.69342529582958 -0.73505346044605
 1 -9.64100827982798 -4.94682313071307 -0.17916018471847
 1 -3.55335285378538 -3.33651025662566 -0.31724946304630
 1 -1.63714710231023 -4.47128934233423  3.32588430603060
 1 -2.76115255255526 -5.93960348524853  3.59372040974097
 1 -1.40147066756676 -5.96149693449345  2.54900826192619
 1  2.54838289308931 -1.62343896669667 -1.71179262796280
 1  2.91597803910391  0.21698978377838 -1.92693375087509
 1  4.29419990669067 -0.96662507630763  0.57435883608361
 1  4.05520083158316  1.03771931463146 -2.59042952865287
 1  5.39825675787579  2.12495291919192 -2.14732217061706
 1  6.00420998949895  0.74083527442744 -3.01783804070407
 1  6.60180836473647  1.32783276387639 -0.07354774087409
 1  6.29121699379938 -0.17344468116812  0.65173136863686
 1  7.32444456725673 -1.47659833283328 -1.12572732993299
 1  7.80083264176418  0.28304740774077 -1.92750357325733
 1  9.21709775407541  0.66833633113311  0.19634206230623
 1  8.95225834663466 -0.91399975267527  0.71184730813081
 1  10.32055668746875 -0.25223907610761 -1.94509966796680
 1  9.24303391249125 -2.40670895439544 -1.68508689058906
 1  11.10599974057406 -2.52833623292329 -1.82521787988799
 1  10.03141533863386 -2.55577969266927 -0.08492588628863
 1  11.04813645524552  0.75264169756976  0.31246901770177
 1  11.36155375087509 -1.10790208780878  0.82900922102210
 1  12.73355130763076 -1.57187460676068 -0.96819909140914
 1  13.08343417331733  0.09842477847785 -1.43666800050005
 1  13.80111153145315  0.77991335463546  0.60958578727873
 1  13.94883319391939 -0.81902828172817  1.17576995099510
 1  15.33927432883288  0.57776117311731 -1.33002427122712
 1  15.80724452125212 -1.99244858605861  0.21805366986699
 1  14.85359700410041 -1.96530105010501 -1.56663803730373
 1  16.73714199379938 -1.52102299929993 -1.28694520782078
 1  16.20340361386139  1.47105543924392  0.76579249554955
 1  16.44840891869187 -0.20172645744574  1.37206570127013
 1  18.36740347804781 -0.49464597859786 -0.21492168776878
 1  17.72275958555856  1.13115200930093 -1.10527627122712
 1  18.34128318521852  2.23696496449645  1.09792173897390
 1  18.86176213871387  0.85662050155015  1.70085333083308
 1  20.72722255455546  0.46796779437944  0.04885077727773
 1  19.79605642414242  3.49218999549955 -0.88706089078908
 1  21.19973377417742  2.61180232233223 -1.30152813401340
 1  19.79310770837084  1.71799208940894 -1.95214359875988
 1  21.01748560206020  1.22816845774577  2.01293496229623
 1  22.00972886568657  2.14465493619362  0.90715736933693
 1  20.62367244574457  2.97283340054005  1.63623075977598

