%nproc=4
%Mem=3GB
# td=(NStates=1) iop(3/107=0140000000,3/108=0140000000) CAM-B3LYP/6-31G(d,p) 

TD

0 1
12 -7.20525521722172  0.57913629712971  0.10079644964496
 6 -4.84325314181418 -1.89218644924492  0.50127552995300
 6 -4.79204523512351  2.97680639853985  1.09927003220322
 6 -9.46811357585759  3.05759331233123 -0.36852932823282
 6 -9.52468856685669 -1.74407617331733 -0.92665947084708
 7 -5.12909994119412  0.47469355995600  0.56193401740174
 6 -4.31045329262926 -0.67886903010301  0.74815270997100
 6 -2.87596381698170 -0.37436583458346  1.20824649374938
 6 -2.97356058295830  1.11035973757376  1.57594387368737
 6 -4.38504873957396  1.52968761986199  1.00544493839384
 6 -2.98309449024902  1.31720453975398  3.04247956255626
 6 -1.86545227492749 -0.62157814701470  0.04234804510451
 6 -0.47160286948695 -0.49144239223922  0.56268965126513
 6  0.62138406160616 -0.66706332823282 -0.43924371447145
 8  0.32767298409841 -0.98688246594659 -1.64344173727373
 8  1.80989958835884 -0.45340527892789 -0.03857924552455
 7 -7.16393403680368  2.63771698159816  0.22782370647065
 6 -6.04531467526753  3.40943471087109  0.73392926902690
 6 -6.47363227162716  4.76029289288929  0.73493175187519
 6 -7.75339012431243  4.82380418561856  0.38247437383738
 6 -8.17820734823482  3.50853779257926  0.00474847344734
 6 -5.52537457135714  5.91868134183418  1.10742089728973
 6 -8.58686869486949  6.05353562316232  0.13950456295630
 6 -8.52184059405941  7.26222537223722  0.89128318761876
 7 -9.15322436353635  0.57859485388539 -0.51484805870587
 6 -9.81684917121712  1.75382870717072 -0.67113992749275
 6 -11.19265321802180  1.44444388888889 -1.04269912961296
 6 -11.30255974317432  0.13970151595160 -1.20455048334833
 6 -9.96502410601060 -0.38575876927693 -0.98529073037304
 6 -12.26038697639764  2.34854009540954 -1.22680213291329
 6 -12.42803659655966 -0.79549567336734 -1.57435676627663
 6 -12.35506741564156 -1.21035122742274 -3.06679733093309
 7 -7.22983594599460 -1.32629746544654 -0.12848552365237
 6 -8.29334366066607 -2.20320886638664 -0.61127270717072
 6 -7.80923296309631 -3.55486603800380 -0.58122842264226
 6 -6.45782357285729 -3.43278626072607 -0.18697077877788
 6 -6.21331506320632 -2.15764372017202  0.12126396179618
 6 -8.61128346784679 -4.76318241664166 -0.95379876297630
 6 -5.41573703660366 -4.29020258365837  0.06412138623862
 8 -5.26823781608161 -5.56091294829483  0.00349629822982
 6 -4.19537404000400 -3.25545299269927  0.52723104470447
 6 -3.52822699949995 -3.66336427912791  1.92355832433243
 8 -3.69630241364136 -3.01845920382038  2.91505486368637
 8 -2.79100445324532 -4.70231885038504  1.75037407490749
 6 -2.00940989798980 -5.19340454635464  2.89038643904390
 6  2.84214053445345 -0.75192348124812 -1.07162067926793
 6  4.15144602980298 -0.54095936383638 -0.42123468626863
 6  5.15673116441644  0.28340486848685 -0.92785566256626
 6  5.04195792139214  1.02179985528553 -2.21121525652565
 6  6.39862614131413  0.38363897989799 -0.07239776417642
 6  7.62648410101010 -0.13976252425243 -0.77260758945895
 6  8.96525423702370 -0.19712152825283  0.00520441804180
 6  10.16960242084208 -0.55525718891889 -0.78023374337434
 6  10.10604388098810 -1.94283216311631 -1.43947091309131
 6  11.41556622042204 -0.39133402450245  0.00653269076908
 6  12.86117385288529 -0.57377741124112 -0.73144064916492
 6  13.98380965276528 -0.22087780208021  0.22372878447845
 6  15.29635562656266 -0.18351743534353 -0.50488614111411
 6  15.70629690069007 -1.52423081138114 -0.95489731603160
 6  16.50787778047805  0.43804032133213  0.33693842854285
 6  17.81471905960596  0.61747547714771 -0.32487901490149
 6  18.80107052565256  1.34005208370837  0.69516277297730
 6  20.25380818521852  1.27216664916492  0.27107381338134
 6  20.47765061086109  1.99687699279928 -1.02105680158016
 6  21.12819788678868  1.86430813071307  1.25869980998100
 1 -4.16937730123012  3.61396464786479  1.73035913171317
 1 -10.13417554085409  3.79820209470947 -0.67952247844785
 1 -10.24754917901790 -2.49489502460246 -1.17894571397140
 1 -2.65908319551955 -1.18386858955896  1.97575406610661
 1 -2.35514898119812  1.83372543364336  1.11523517251725
 1 -1.94193728012801  1.13145225162516  3.60214055145515
 1 -3.25260236933693  2.30310953375338  3.55746376857686
 1 -3.65321812231223  0.69683483778378  3.62240392559256
 1 -2.01396651565157 -1.54237490829083 -0.51027903500350
 1 -2.12355872487249  0.14161178097810 -0.91749848444844
 1 -0.37884331303130  0.47119670697070  1.10034389738974
 1 -0.18133655395540 -1.23930469706971  1.43957741604160
 1 -5.88844302200220  6.86432394439444  0.48404823612361
 1 -5.40825229652965  6.11707458885889  2.16982899539954
 1 -4.43538838343834  5.91564583258326  0.87679841244124
 1 -9.29385964576458  6.08142152415241 -0.66939829252925
 1 -9.18758782248225  8.11816153715371  0.81947172287229
 1 -7.77677560966097  7.41747858425843  1.72164112441244
 1 -11.83738421142114  3.14080322742274 -1.76464229572957
 1 -13.20645794349435  1.90717946034603 -1.73298902710271
 1 -12.73666469916992  2.81257859195920 -0.23015345484549
 1 -12.63682564746475 -1.61013193599360 -0.82811631253125
 1 -13.35491779087909 -0.26403911441144 -1.56449220362036
 1 -13.11130632983298 -2.03960762286229 -3.46772773087309
 1 -12.28895930163016 -0.31452992429243 -3.77406638503850
 1 -11.32878771817182 -1.49994102130213 -3.17048532673267
 1 -8.95153977257726 -4.57244374517452 -2.00771683468347
 1 -8.16678106330633 -5.70982693599360 -0.77529748484848
 1 -9.41238541754175 -4.83802225062506 -0.20457272597260
 1 -3.53072059055906 -3.39273587918792 -0.18983672177218
 1 -1.37206059365937 -4.42638485188519  3.25847756535654
 1 -2.69518595589559 -5.63733325822582  3.70357139483948
 1 -1.34672519301930 -6.06507729252925  2.57486084718472
 1  2.65950400520052 -1.88845546834683 -1.32183363206321
 1  2.75971241254125 -0.16027794299430 -2.03264432193219
 1  4.28732921962196 -1.01216963076308  0.49238063826383
 1  4.18978428992899  0.83303884658466 -2.76709719541954
 1  5.35300223242324  2.03607403130313 -2.02857029542954
 1  5.87600716921692  0.79584077497750 -2.85005126202620
 1  6.56801498539854  1.38673865446545  0.19501911581158
 1  6.06551442354235 -0.14476181288129  0.82495869136914
 1  7.40925304810481 -1.41921259425943 -1.07493225042504
 1  7.78385094359436  0.37177628062806 -1.82339316221622
 1  9.10687673197320  0.77891738923892  0.50945337343734
 1  8.73232635343535 -0.83154150685069  0.83303942734273
 1  10.00427505930593  0.14142028982898 -1.68277343534353
 1  9.15249485858586 -2.18656694019402 -1.93197157905791
 1  10.87154629522952 -1.95040844014401 -2.50002536063606
 1  10.28821101820182 -2.85610972567257 -0.61772916661666
 1  11.46174781638164  0.78756518991899  0.45285305610561
 1  11.27988558405841 -1.00984228182818  0.94948126822682
 1  13.00434838733874 -1.60167758705871 -0.99538180968097
 1  12.89250508040804  0.17457239323932 -1.62305663936394
 1  13.79167058735874  0.75727109040904  0.64480930963096
 1  14.08813712431243 -0.92247862676268  1.10466284028403
 1  15.22021242264226  0.54514791179118 -1.34193546234623
 1  15.72703650045005 -2.06616595779578 -0.11606974247425
 1  14.94942658705870 -2.08731325132513 -1.53943531703170
 1  16.51991027062706 -1.61234213121312 -1.68670518381838
 1  16.11848512201220  1.46221455515552  0.79120503680368
 1  16.62960703850385 -0.34700098489849  1.30124861956196
 1  18.30586732443244 -0.33671018501850 -0.39066926252625
 1  17.65884319391939  1.02838173227323 -1.22752849644964
 1  18.51188024492449  2.40841210921092  0.89830177697770
 1  18.77673363586359  0.85305014451445  1.66043928942894
 1  20.37789762206221  0.09614061166117  0.04046993919392
 1  20.03799061756176  2.98139891639164 -0.70861304600460
 1  21.60105390619062  2.18504964706471 -1.30219820102010
 1  19.92797119471947  1.58617890809081 -1.81624000840084
 1  20.99958381188119  1.28954459535954  2.27766143494349
 1  22.13417130993099  1.83510398109811  0.86953360696070
 1  20.96585666416642  2.92972909010901  1.46151328802880

