%nproc=4
%Mem=2GB
# td=(NStates=1) CAM-B3LYP/6-31G(d,p) 

TD

0 1
<<<<<<< HEAD
12 -7.24311488448845  0.56428517661766  0.15541322872287
 6 -4.77189180718072 -1.86233741214121  0.42435896859686
 6 -4.90663059195920  2.84625307260726  1.16929329422942
 6 -9.54467920342034  3.04900039553955 -0.43588644834483
 6 -9.51479179287929 -1.76126163716372 -0.83219964906491
 7 -5.22010543514351  0.42940275837584  0.80444086238624
 6 -4.30180988708871 -0.56946676867687  0.76637466066607
 6 -2.82661166656666 -0.30510993669367  1.22009236343634
 6 -3.04397783618362  1.20709337763776  1.60703143384338
 6 -4.42438943384338  1.51071181998200  1.10934796469647
 6 -2.94592967506751  1.39622191029103  3.14958636753675
 6 -1.85186864786479 -0.64471973337334  0.10875483378338
 6 -0.43023044564456 -0.34495884308431  0.56865099439944
 6  0.52652378957896 -0.69392290519052 -0.55862124262426
 8  0.22780402050205 -1.08483389098910 -1.68807513921392
 8  1.85470728122812 -0.46236363276328 -0.15438222712271
 7 -7.16780722862286  2.59992558235824  0.22431112661266
 6 -6.18573785278528  3.44408538433843  0.70413394699470
 6 -6.49029628272827  4.79528381778178  0.76938762596260
 6 -7.87621032803280  4.87757838933893  0.40530892219222
 6 -8.26728099969997  3.39911910721072 -0.02608006170617
 6 -5.60032798949895  5.90583304920492  1.27790255075508
 6 -8.63386118371837  6.10654168786879  0.25308229362936
 6 -8.57130102140214  7.29040515911591  1.02299854965497
 7 -9.15844811741174  0.59716257735774 -0.53464749844984
 6 -9.90748700840084  1.75946589968997 -0.62368869296930
 6 -11.23760285688569  1.37903624272427 -1.21088280778078
 6 -11.29637204110411  0.04708007210721 -1.31748046204620
 6 -9.89012469316932 -0.44453642794279 -0.94164918101810
 6 -12.26540536423642  2.44934550555055 -1.46884365916592
 6 -12.41685623192319 -0.73709111921192 -1.79389019751975
 6 -12.40001749014901 -1.16976938813881 -3.37724284288429
 7 -7.27035650395040 -1.35918553215322 -0.19770444744474
 6 -8.21316155595560 -2.29414458655866 -0.56985194039404
 6 -7.76182232783278 -3.63065133263326 -0.62867014431443
 6 -6.41492537663766 -3.57934227122712 -0.20190192209221
 6 -6.06611920832083 -2.19997827912791  0.02186499069907
 6 -8.53769123652365 -4.84634747714771 -1.02370084848485
 6 -5.23820829112911 -4.37318120162016  0.12121499409941
 8 -5.11958079597960 -5.54371885528553  0.25631266196620
 6 -4.13573715311531 -3.30260605040504  0.51323118841884
 6 -3.56065669656966 -3.64289951125113  1.91206157905791
 8 -3.89222082268227 -3.02823956015602  2.89150183128313
 8 -2.69038023172317 -4.62151687408741  1.88983756465647
 6 -2.10924151205121 -4.98090231933193  3.19275421092109
 6  2.85560807250725 -0.78859665426543 -1.10792199259926
 6  4.19427151615162 -0.68054623092309 -0.51092124112411
 6  5.07903138753875  0.17281354675468 -0.85444521722172
 6  4.96787521052105  1.25268791809181 -2.07356152145214
 6  6.50710504330433  0.32290414061406 -0.14276076127613
 6  7.63873141104110 -0.20173051995200 -0.88288523902390
 6  8.93183505610561 -0.11963709410941 -0.11983379617962
 6  10.23615423992399 -0.51739881158116 -0.94834580508051
 6  10.00692739293929 -1.98177911401140 -1.37321078607861
 6  11.51200407730773 -0.25765954675468  0.03603447204720
 6  12.77540244794479 -0.55146919801980 -0.72263228612861
 6  13.99403887228723 -0.14803600640064  0.17785485298530
 6  15.41389751465146 -0.26939066816682 -0.49978821862186
 6  15.64363603250325 -1.74793242704270 -0.93221283898390
 6  16.59738384428443  0.27422178217822  0.44748925612561
 6  17.91091568096810  0.49109050745074 -0.14048986358636
 6  18.94994536403640  1.26009422642264  0.70198063106311
 6  20.35107377657766  1.40599093259326  0.09985474867487
 6  20.34656601040104  2.22878117531753 -1.13553454615462
 6  21.30936186698670  1.96060899719972  1.24429979337934
 1 -4.19355083958396  3.67197271867187  1.44356894379438
 1 -10.39795018771877  3.89104993999400 -0.58258364986499
 1 -10.23437672707271 -2.66979632043204 -1.10483713591359
 1 -2.78849530643064 -0.89448776267627  2.19734042524252
 1 -2.18796240144014  1.69831341394139  0.98573922432243
 1 -1.76584104160416  1.42729318221822  3.57839155265527
 1 -3.33681874187419  2.45829988748875  3.16720888628863
 1 -3.67393083578358  0.66118080208021  3.59326173897390
 1 -1.99133161806181 -1.67743770417042 -0.32654656385639
 1 -2.11458313081308 -0.10212296189619 -0.66643668326833
 1 -0.24078759615962  0.73347796169617  0.90760115921592
 1 -0.26238404040404 -0.99734424962496  1.65719967516752
 1 -5.85736451185119  6.90698934303430  1.15317102630263
 1 -5.52821981138114  5.91614497759776  2.28961525862586
 1 -4.63933788978898  5.52411357775778  0.98691186678668
 1 -9.28446049854985  6.14825097319732 -0.69965019321932
 1 -9.31779299519952  7.95982672157216  0.87672729452945
 1 -7.96135560136014  7.43254965446545  1.85439382488249
 1 -12.09925403050305  2.89004933093309 -2.32889589428943
 1 -13.22890255945594  1.99096298749875 -1.63177436893689
 1 -12.39466119721972  3.18414706940694 -0.45814705870587
 1 -12.43134791319132 -1.68834827992799 -1.13046800170017
 1 -13.43628234713471 -0.23261999879988 -1.58272379987999
 1 -13.24473082568257 -1.87293197939794 -3.29435932043204
 1 -12.76666023022302 -0.31964650225022 -4.04394789048905
 1 -11.49682596189619 -1.50925579267927 -3.69645826582658
 1 -8.70577018001800 -4.75477622052205 -2.21399466356636
 1 -7.91239060386039 -5.68920892509251 -0.43345295829583
 1 -9.57559744464447 -4.81521654295430 -0.39364118671867
 1 -3.39743043894389 -3.33778702940294 -0.20883615511551
 1 -1.36146431293129 -4.33685012471247  3.55421833713371
 1 -2.91230083868387 -5.21332294989499  3.73200603950395
 1 -1.76856496799680 -6.04940421362136  3.15926987988799
 1  2.53275257935794 -1.88551038693869 -1.46206017101710
 1  2.78836631423142 -0.24271999239924 -2.22564571677168
 1  4.38168907450745 -1.21742395759576  0.64744796079608
 1  3.88018698219822  1.36324503490349 -2.43417178687869
 1  5.38027343904390  2.16883714261426 -1.65790225842584
 1  5.31731903950395  1.00732183968397 -3.13653238423842
 1  6.72914497739774  1.46902090209021  0.18879152195220
 1  6.33614773417342 -0.22610064746475  0.78546826352635
 1  7.47419480418042 -1.16766600180018 -1.32896422002200
 1  7.78712114801480  0.28431163926393 -1.93581650525053
 1  9.26651870347035  0.98311619661966  0.24338197039704
 1  9.03795228392839 -0.63748925512551  0.71300916461646
 1  10.29994754615461  0.04985752345235 -1.83295818531853
 1  9.21810679617962 -1.98959693619362 -2.21116704150415
 1  10.83670622632263 -2.42025880978098 -2.02443668756876
 1  9.84538742474248 -2.68875081708171 -0.49882932263226
 1  11.49615729662966  0.78630086028603  0.25714720222022
 1  11.20926397979798 -0.97501346264626  0.90780140174017
 1  12.80676399529953 -1.60724888608861 -0.94576224382438
 1  12.74152790529053  0.06143683468347 -1.68666202750275
 1  13.88449988668867  0.82352490849085  0.46797414041404
 1  14.12714546764676 -0.70042964766477  1.15162167866787
 1  15.61086437493749  0.55702518751875 -1.38873323132313
 1  15.92945038793879 -2.14466475857586  0.10844939103910
 1  14.80451350205021 -2.24200657625763 -1.32630004510451
 1  16.44618424782479 -1.54462998789879 -1.54800627012701
 1  16.10676587728773  1.25604343804380  0.69888643294329
 1  16.63668811601160 -0.36649582468247  1.30128288948895
 1  18.26808774747475 -0.54441098849885 -0.43323666406641
 1  17.80541760626063  0.97637495639564 -1.18245182098210
 1  18.75089588218822  2.25327948564856  0.79308731403140
 1  18.89083624392439  0.77753193419342  1.61216121642164
 1  20.74577949064907  0.33793994219422 -0.22415535153515
 1  19.91621572817282  3.32628619051905 -1.02819641304130
 1  21.33083733583359  2.34022067486749 -1.79388075137514
 1  19.78172207660766  1.87033884468447 -1.99943691269127
 1  21.27974394959496  1.31822993209321  2.19905952315232
 1  22.20088179447945  1.85268649834984  0.98373333963396
 1  21.05430516041604  2.91805188848885  1.48419886038604
=======
12 -7.14227480048005  0.53108185628563  0.19451713911391
 6 -4.78248286628663 -1.94642582098210  0.47707424012401
 6 -4.80359028792879  2.81934038133813  1.23768013291329
 6 -9.37974270977098  3.12320781628163 -0.46296915661566
 6 -9.51653196689669 -1.71305681668167 -1.00119654875488
 7 -5.11617504210421  0.38942876097610  0.71828224652465
 6 -4.34189389548955 -0.70868069006901  0.74646266946695
 6 -2.92675168056806 -0.42641206690669  1.25565591979198
 6 -3.03927736613661  1.05494816311631  1.77892862356236
 6 -4.40467746264626  1.53937468626863  1.14577160706071
 6 -2.99154423652365  1.21377366546655  3.28989039793979
 6 -1.80016347734773 -0.60818608000800  0.15669962826283
 6 -0.35284270687069 -0.64660900810081  0.50537466676668
 6  0.56123726092609 -0.86239975287529 -0.51899728022802
 8  0.20654189428943 -1.13328873647365 -1.69131546324632
 8  1.83140495099510 -0.56590398679868 -0.14532132103210
 7 -7.17952840074007  2.57552314211421  0.30688938443844
 6 -6.14239351835184  3.31399237503750  0.77931146474647
 6 -6.41753900700070  4.80022431183118  0.70996168336834
 6 -7.75299800680068  4.84312494399440  0.32282067336734
 6 -8.10162443404340  3.47387658295830  0.03221576787679
 6 -5.48268622532253  5.86848931483148  1.25557031753175
 6 -8.47000479807981  6.10296132983298  0.08793577897790
 6 -8.43312720402040  7.26120223882388  0.75335158495850
 7 -9.15827810041004  0.67896075717572 -0.54702873657366
 6 -9.85779203890389  1.81160111321132 -0.68646497059706
 6 -11.14425352195219  1.44482282138214 -1.23126484598460
 6 -11.24345674957496  0.10879624372437 -1.26596531053105
 6 -9.88116379707971 -0.38961093539354 -0.90485550165016
 6 -12.16480530423042  2.52254282528253 -1.45527230203020
 6 -12.38854340064006 -0.66910432053205 -1.86091690019002
 6 -12.34273176157616 -1.02167457865787 -3.35137025562556
 7 -7.19306877517752 -1.44724433803380 -0.14746942394239
 6 -8.26982722252225 -2.27159233133313 -0.56639159435944
 6 -7.83972011761176 -3.58826709420942 -0.49262653995400
 6 -6.50167405150515 -3.55787012401240 -0.08019975187519
 6 -6.13225582198220 -2.21559984128413  0.12500530473047
 6 -8.72105957335734 -4.83141598399840 -0.81943042144214
 6 -5.37504197449745 -4.34697858135814  0.22627550015001
 8 -5.13565240314031 -5.53249773317332  0.25057208790879
 6 -4.14353793319332 -3.27374316411641  0.53732359765977
 6 -3.46716734763476 -3.67415263656366  1.86040641354135
 8 -3.66358795939594 -3.15135187138714  3.00845352645265
 8 -2.61174236793679 -4.70521524392439  1.70480906180618
 6 -2.12959354725473 -5.31861609070907  3.00151508700870
 6  2.78626113781378 -0.80030782538254 -1.25237643804380
 6  4.09247133613361 -0.45930410671067 -0.59418956795680
 6  5.07570105450545  0.38108437383738 -0.94662443514351
 6  4.94753317631763  1.24946759605961 -2.22785695099510
 6  6.34320865366537  0.43855570577058 -0.19775626082608
 6  7.59997753565357  0.02788244134413 -0.94582153265327
 6  8.84073594619462 -0.02445757615762 -0.11306311911191
 6  10.21800242474247 -0.41529860156016 -0.86387735823582
 6  10.09577627782778 -1.95733666976698 -1.19644310931093
 6  11.43040591749175 -0.10650443124312 -0.00837996939694
 6  12.71537644534453 -0.26756080718072 -0.69878990189019
 6  13.90474994339434  0.05612440964096  0.17132419991999
 6  15.37069319421942 -0.06735046414641 -0.51456969676968
 6  15.60243191209121 -1.61511914571457 -0.76815643334333
 6  16.36488059395939  0.53693805380538  0.44651915911591
 6  17.72561715111511  0.43563496189619 -0.18288410301030
 6  18.78350872037204  1.20713893089309  0.76550698369837
 6  20.33644231343134  1.22372270577058  0.13956872007201
 6  20.26674802860286  1.87337563476348 -1.18076906960696
 6  21.19671060186019  1.81686462276228  1.12977834123412
 1 -4.03353483798380  3.65668118951895  1.41503609050905
 1 -9.95684607730773  4.00380121512151 -0.65120051155116
 1 -10.38080136953695 -2.46024536533653 -1.12979963216322
 1 -2.67083354025403 -1.15014332823282  1.98791948314831
 1 -2.44173777897790  1.96490007260726  1.54553520392039
 1 -2.16302075957596  0.79001945484548  3.73995770927093
 1 -3.18102316231623  2.26551060856086  3.48367053245325
 1 -3.82684612731273  0.76353103710371  3.75504791759176
 1 -1.74621710661066 -1.72041200160016 -0.17169107830783
 1 -1.85490716321632  0.04957220762076 -0.83593363296330
 1 -0.22506602400240  0.34349896379638  0.94527492659266
 1 -0.19451725372537 -1.33026754195420  1.47973192839284
 1 -5.45852462786279  6.83155179927993  0.53426913611361
 1 -6.02293928332833  6.33718708180818  2.16102239933993
 1 -4.46223017901790  5.43914508090809  1.32620579617962
 1 -9.40145219771977  6.17222337043704 -0.69433966216622
 1 -9.11902311821182  8.13726446534653  0.36186580838084
 1 -7.50653011881188  7.41836823632363  1.48924731023102
 1 -11.97685179027903  3.13238356435644 -2.24257726242624
 1 -13.14875454465446  1.99306319751975 -1.88563975547555
 1 -12.32575430653065  3.04053270797080 -0.81592283628363
 1 -12.71751653005301 -1.44886433153315 -1.29331428632863
 1 -13.32574129302930 -0.09613635043504 -1.65270079757976
 1 -13.25018137073707 -1.40618530473047 -3.77687757225723
 1 -12.04158772297230 -0.07575211281128 -3.75682917861786
 1 -11.51602788208821 -1.64072893999400 -3.72496111611161
 1 -9.24586418941894 -5.04500524342434 -1.81495475957596
 1 -8.14010337513751 -5.59233923812381 -0.37541715471547
 1 -9.57988787368737 -4.71549657095710 -0.07335915851585
 1 -3.29696039193919 -3.56082933363336 -0.20482575407541
 1 -1.61240940744074 -4.46624306400640  3.70204311961196
 1 -2.86199580818082 -5.88943056065607  3.35089792869287
 1 -1.05436354785479 -5.83122239543954  2.78182213511351
 1  2.66982628672867 -1.90810264616462 -1.25981994699470
 1  2.49775725332533 -0.23976969736974 -2.09955310751075
 1  4.30901180678068 -1.08233044824482  0.14364758075808
 1  3.91585054855486  1.08624733513351 -2.65634400410041
 1  5.15317072877288  2.43699395829583 -1.81767823602360
 1  5.80251755935593  0.78433954145415 -2.97387611861186
 1  6.65853791669167  1.63980798079808  0.25419806260626
 1  6.18340245964596 -0.19097713511351  0.65892560926093
 1  7.47621500620062 -1.02744197939794 -1.44379570317032
 1  7.74257669356936  0.51184439253925 -1.83812673627363
 1  8.78728077967797  1.00296818181818  0.27911554375438
 1  8.68254674337434 -0.53033854005401  0.89679754345435
 1  10.12300985238524  0.03694623232323 -1.84363925342534
 1  9.32664765026503 -2.20919889638964 -1.81015694049405
 1  10.95206776247625 -2.42866965086509 -1.71880612451245
 1  10.09587247324733 -2.53717565956596 -0.23847328702870
 1  11.28959664056406  0.82486471667167  0.33228471597160
 1  11.22237529092909 -0.73751971327133  0.85649627122712
 1  12.87773109200920 -1.19576773797380 -0.95745341294129
 1  12.80483423592359  0.33682437343734 -1.74962832413241
 1  13.85342677937794  1.11889444544454  0.51526886988699
 1  13.78629138223822 -0.56621622632263  1.14865138163816
 1  15.14035732423242  0.37707719271927 -1.53377773577358
 1  15.77296473937394 -2.11672196429643  0.19473801990199
 1  14.78165121582158 -1.99430180578058 -1.42334975007501
 1  16.56068569796980 -1.60218574347435 -1.44054552405241
 1  16.08206340704070  1.66117395109511  0.76217276157616
 1  16.28655310251025 -0.32658183328333  1.30772353355336
 1  18.10922186088609 -0.56668321572157 -0.16939027942794
 1  17.69533659815982  1.00512783168317 -1.06536011181118
 1  18.69189998259826  2.23639779747975  0.94518252355236
 1  18.82792995329533  0.62572675367537  1.71524152445245
 1  20.46539145184519  0.18561470967097 -0.02296523252325
 1  19.62460656725672  2.83525708760876 -1.42880647404740
 1  21.33992824492449  2.23764041684168 -1.54006536983698
 1  19.83979788418842  1.41111292209221 -2.00968793779378
 1  21.00908688388839  1.57919602870287  2.45037465466547
 1  22.28561026732673  1.68420965066507  0.88917388368837
 1  21.15788551845185  3.04010409370937  1.02662310281028
>>>>>>> 8e03b5b5abfc0030b3aa597dc0de36371bfbd096

