%nproc=4
%Mem=2GB
# td=(NStates=1) CAM-B3LYP/6-31G(d,p) 

TD

0 1
12 -7.11094166716672  0.52113086118612  0.14948263566357
 6 -4.92744736273627 -1.95698687708771  0.54617114981498
 6 -4.77218714761476  2.84536298359836  1.06406277117712
 6 -9.37074180968097  3.06219171467147 -0.40238309800980
 6 -9.58072838653865 -1.74099961096110 -0.88921535063506
 7 -5.10984440904090  0.36090590869087  0.77157757605761
 6 -4.36971667776778 -0.73702352435244  0.86534455765577
 6 -2.93321232663266 -0.45787521322132  1.26216657085709
 6 -3.04608804720472  0.98316098439844  1.75076580728073
 6 -4.46522351725172  1.52370311911191  1.17849487938794
 6 -2.92127720982098  1.26703899199920  3.13505491439144
 6 -1.96245970697070 -0.61341660306031  0.11923588188819
 6 -0.52942036463646 -0.40224457165717  0.51634576387639
 6  0.50077121432143 -0.58639215211521 -0.61541692219222
 8  0.21391263136314 -0.93937934553455 -1.78009434113411
 8  1.72473428392839 -0.32984038043804 -0.23601038993899
 7 -7.16872732063206  2.55481107090709  0.30082877837784
 6 -5.99610888988899  3.39721069686969  0.74044757835784
 6 -6.40128738183818  4.75607989738974  0.78915960316032
 6 -7.70740344734473  4.83430406190619  0.40679907120712
 6 -8.19005327692769  3.49537873317332  0.05194774107411
 6 -5.51041899859986  5.92039450535054  1.11729649014901
 6 -8.51360915851585  5.96455748944895  0.23304028942894
 6 -8.52626651795179  7.16442256085609  0.80943719351935
 7 -9.12271454405441  0.50523338443844 -0.54572860656066
 6 -9.78044430413041  1.77922787588759 -0.70818714281428
 6 -11.12301139773977  1.47800613971397 -1.24670639013901
 6 -11.28607101100110  0.10991635573557 -1.32443115711571
 6 -9.98163384408441 -0.39056103040304 -0.99251426752675
 6 -12.28158698239824  2.57322789378938 -1.43949072387239
 6 -12.43674822112211 -0.73975138523852 -1.77745855435544
 6 -12.24073156155616 -0.99164157535754 -3.38612373097310
 7 -7.29035850415042 -1.35574518811881 -0.18394307130713
 6 -8.26018625842584 -2.20046521862186 -0.56343129832983
 6 -7.85873201880188 -3.61479974747475 -0.61006828412841
 6 -6.51755563966397 -3.52394673167317 -0.07365909780978
 6 -6.27369996639664 -2.18788707000700  0.15016782098210
 6 -8.57792525992599 -4.78253109550955 -0.91000947934793
 6 -5.38307277757776 -4.36354023752375  0.30561343394339
 8 -5.17013585148515 -5.54234871827183  0.31738876957696
 6 -4.24253783318332 -3.26371216101610  0.63296316161616
 6 -3.53614424532453 -3.67464268556856  1.91672204510451
 8 -3.77157875847585 -3.10754749094909  3.03595627672767
 8 -2.70035122882288 -4.81922664506451  1.68018659955996
 6 -2.04894548244824 -5.25010924002400  3.01737667316732
 6  2.77260977267727 -0.61000879547955 -1.22725392579258
 6  4.12615470447045 -0.38140631693169 -0.56636678567857
 6  5.18701218561856  0.29051531693169 -0.90998077077708
 6  5.28403682668267  1.08066071537154 -2.21003516881688
 6  6.43614794759476  0.45058690889089 -0.16020250545055
 6  7.57684522242224 -0.24460480738074 -0.90527747824782
 6  8.80516238883888 -0.07332246264626 -0.08632044484448
 6  10.17623824832483 -0.58153522522252 -0.68564953545355
 6  10.12025872607261 -2.13790472657266 -1.02075554055406
 6  11.42758563546355 -0.27203098389839  0.14357522612261
 6  12.73680858855885 -0.59061311241124 -0.62035205810581
 6  13.99858932733273 -0.17032823562356  0.24272133963396
 6  15.35960208510851 -0.20490421952195 -0.57090533033303
 6  15.76975864476448 -1.59216685048505 -1.00209982768277
 6  16.44095820172017  0.39599395939594  0.31263577077708
 6  17.83734832423242  0.50868226662666 -0.29415523012301
 6  18.81668203770377  1.35607382438244  0.63034346734673
 6  20.28966763596360  1.36825715921592  0.14263902710271
 6  20.38729008280828  2.24217251445145 -1.12223321602160
 6  21.16625755655566  2.05068800510051  1.25308067146715
 1 -3.99104058855886  3.60843636503650  1.28970355725573
 1 -10.22969336203620  3.80533136813681 -0.48664405590559
 1 -10.54817810721072 -2.42736207700770 -0.93317997019702
 1 -2.76546300320032 -1.25245355925593  1.90475116631663
 1 -2.34586819201920  1.71163474607461  1.18831948234824
 1 -1.83537799529953  1.02937339023902  3.49335304880488
 1 -3.22940800080008  2.26182023952395  3.39413157855786
 1 -3.61180462316232  0.67615229922992  3.59226163896390
 1 -2.02254473937394 -1.79847980838084 -0.08906281548155
 1 -2.23927560006001 -0.06219896949695 -0.76548658825883
 1 -0.60158367576758  0.62839745364536  0.95246564566457
 1 -0.07115491749175 -1.21241575677568  1.17215117031703
 1 -5.79044782018202  6.69101774587459  0.52261797099710
 1 -5.53157014641464  5.93447681078108  2.01326762386239
 1 -4.46367032303230  5.65770693709371  0.87367054265427
 1 -9.28638069056906  5.78922507060706 -0.52766299449945
 1 -9.22465368126813  8.13148388728873  0.54252387418742
 1 -7.95636510231023  7.18631503100310  1.67737612311231
 1 -11.82691679677968  3.37867819381938 -2.19484248894890
 1 -13.30750041924192  2.26181007220722 -1.52703389488949
 1 -12.32330406150615  3.38155681038104 -0.53940518451845
 1 -12.41743652205221 -1.63378282338234 -1.10182513741374
 1 -13.40970968986899 -0.36776351315132 -1.64624015151515
 1 -13.02847920052005 -1.68925361156116 -3.71352123662366
 1 -12.20926449064907  0.00846630903090 -3.79898339403940
 1 -11.28012429172917 -1.54334920202020 -3.58326694669467
 1 -8.61583118611861 -4.76521726462646 -2.11024428852885
 1 -7.90565993079308 -5.64846485068507 -0.53722333533353
 1 -9.49774965986599 -4.93777879917992 -0.40187200980098
 1 -3.54477517341734 -3.39635288598860 -0.25814108560856
 1 -1.62028019451945 -4.42243868356836  3.41622453775378
 1 -2.92139174777478 -5.64300591819182  3.58220105900590
 1 -1.36043415491549 -5.96919619281928  2.66232018491849
 1  2.82589189328933 -1.63466530243024 -1.64097806280628
 1  2.49080655825583  0.01142542214221 -1.99678283048305
 1  4.21772267786779 -0.88204041924192  0.41682489848985
 1  4.36657562106211  1.43302201260126 -2.74588295799580
 1  5.76591200290029  2.08623888278828 -2.28983545174517
 1  5.78020532813281  0.56902801030103 -3.25162389338934
 1  6.73924598749875  1.50259425942594  0.10834347714772
 1  6.47847196659666 -0.17178521592159  0.78594831153115
 1  7.20610799549955 -1.33437267246725 -1.28426975057506
 1  7.96369880578058  0.30965417351735 -1.75019794339434
 1  8.77145919751975  0.91329921492149  0.23206083828383
 1  8.70998948764876 -0.58898440464046  0.76962482618262
 1  10.44228177957796 -0.07523498579858 -1.69820470997100
 1  9.25958094359436 -2.42621059755976 -1.70984690949095
 1  10.99607216291629 -2.39923670757076 -1.51893613751375
 1  10.38912179817982 -2.66774871687169  0.05377593789379
 1  11.40867854875487  0.71613384358436  0.42479396689669
 1  11.36172922632263 -0.98452441374137  0.95383600520052
 1  12.88629194809481 -1.65115327652765 -0.92441010861086
 1  12.84612836533653 -0.17344665366537 -1.56094945624562
 1  14.01571300800080  0.92871542754275  0.62054939793979
 1  14.09739249234924 -0.69346895159516  1.23845036153615
 1  15.20807409590959  0.43079256425643 -1.52048640664066
 1  15.73909135203520 -2.23167345944594 -0.23850530443044
 1  15.07121017171717 -2.39393176877688 -1.84389180428043
 1  16.69319894929493 -1.64065959085909 -1.59977144664466
 1  16.01252645334533  1.46463429712971  0.74409095339534
 1  16.64270871807181 -0.12999217431743  1.15769853105310
 1  18.21758269696970 -0.48250479787979 -0.40471381178118
 1  17.99167623212321  1.05115243414341 -1.33912748854886
 1  18.35900669326933  2.36851100880088  0.89995800110011
 1  18.60259742004201  0.88395257625763  1.71045104540454
 1  20.68546345904591  0.24397054525453 -0.04306724272427
 1  20.09317342394239  3.08879244114411 -0.98294188758876
 1  21.52857710981098  2.37568422122212 -1.42284364766477
 1  19.76021992639264  1.87914972577258 -2.05536250525053
 1  21.15513148834884  1.11516962606261  1.97747736493649
 1  22.09418112441244  2.21367259695970  0.72070703700370
 1  20.49648937883789  2.78153823712371  1.64237467796780

