%nproc=4
%Mem=2GB
# td=(NStates=1) CAM-B3LYP/6-31G(d,p) 

TD

0 1
12 -7.07873844684468  0.57117586568657  0.23435112251225
 6 -4.91231584958496 -1.93047422582258  0.49821635433543
 6 -4.81116104500450  2.92189063636364  1.26463282818282
 6 -9.31713644914491  3.10520601610161 -0.38030088978898
 6 -9.52783309700970 -1.71083659465947 -0.83006943604360
 7 -5.07241066566657  0.54126394449445  0.75699611791179
 6 -4.23997370347035 -0.68500832283228  0.71788981218122
 6 -2.91269027442744 -0.44262368806881  1.16694704890489
 6 -2.96288972737274  1.05851852015202  1.69304003470347
 6 -4.39948694359436  1.56013676247625  1.19400643054305
 6 -2.93924900700070  1.18509079717972  3.16788819771977
 6 -1.98138159915992 -0.65310057145715  0.03251721002100
 6 -0.45906332893289 -0.47497184438444  0.50532466176618
 6  0.49478061526153 -0.71337485038504 -0.65090047054705
 8  0.26048728882888 -1.09514492209221 -1.79286561826183
 8  1.79536134663466 -0.45008240464046 -0.24400118901890
 7 -7.08501894979498  2.67160275007501  0.34099279477948
 6 -6.00560983998400  3.37356833263326  0.75950948454846
 6 -6.34559181228123  4.81601589098910  0.74312499969997
 6 -7.64567727472747  4.86033666516652  0.25720411171117
 6 -8.11713598519852  3.53628282358236  0.04083662996300
 6 -5.43965192189219  6.00969343524352  1.12116687718772
 6 -8.53393119071907  5.96133716741674  0.07137412281228
 6 -8.32111600290029  7.27167328592859  0.62366861666167
 7 -9.13387566016602  0.76351921302130 -0.54103813751375
 6 -9.92218847854785  1.93054300740074 -0.55839216331633
 6 -11.26723582018202  1.59325766486649 -1.06431815131513
 6 -11.23337574147415  0.20420578467847 -1.35223393739374
 6 -9.92505818651865 -0.38513048734873 -0.86329134523452
 6 -12.34333315701570  2.50291086208621 -1.36916369116912
 6 -12.40838538483848 -0.68961637173717 -1.79637044554455
 6 -12.21924941334133 -0.97654006520652 -3.23305842444244
 7 -7.20264973327333 -1.37753736733673 -0.07771244824482
 6 -8.26876711651165 -2.19565473757376 -0.51674662986299
 6 -7.87239338493849 -3.63958222572257 -0.47505478277828
 6 -6.45890977507751 -3.52215655265527 -0.00195192709271
 6 -6.24862745914591 -2.21803008430843  0.11457426162616
 6 -8.52848031543154 -4.87256009840984 -0.98147662606261
 6 -5.31286575687569 -4.35958984248425  0.19220209280928
 8 -5.18014685258526 -5.57331181458146  0.15505253595360
 6 -4.14208778817882 -3.31420721052105  0.57574744004400
 6 -3.55124575547555 -3.78278349964996  1.93191356425643
 8 -3.78182978357836 -3.21773851005101  3.02057473857386
 8 -2.65424661836184 -4.73614833723372  1.72801138203820
 6 -2.04451503940394 -5.19171340044004  2.97125206070607
 6  2.76213872557256 -0.74695248984898 -1.15138633903390
 6  4.08060014901490 -0.57731590789079 -0.47712786178618
 6  5.10340382478248  0.10579684508451 -1.04455422812281
 6  4.91727015001500  1.16009865916592 -2.10180434573457
 6  6.35906023882388  0.12056390659066 -0.30238672387239
 6  7.53265080298030 -0.46477682458246 -1.01289824032403
 6  8.69462133473347 -0.36699182958296 -0.16890870367037
 6  10.15045567006701 -0.73322039373937 -0.93742471297130
 6  10.19598629882988 -2.24426536263626 -1.54919838483848
 6  11.31631450835084 -0.52122590339034  0.00655152375238
 6  12.72307721542154 -0.51638568966897 -0.74855487838784
 6  13.85371483988399 -0.23375457825783  0.27345441294129
 6  15.36858298319832 -0.12383611271127 -0.34781302110211
 6  15.69894156305631 -1.53861149494949 -0.77581719941994
 6  16.45011911781178  0.56306066606661  0.50798530573057
 6  17.83185777517752  0.70496189458946 -0.04410022462246
 6  18.74397476697670  1.52277049404940  0.72469290229023
 6  20.20343901310131  1.56696703020302  0.17355211841184
 6  20.31734308810881  2.39944824202420 -1.13024401710171
 6  21.21268219901990  2.16002893919392  1.21065642904290
 1 -4.00580206470647  3.61958748014801  1.40095468236824
 1 -9.99434982768277  3.84607544254425 -0.59808520002000
 1 -10.14469775917592 -2.43054239503950 -1.37072372457246
 1 -2.58341479837984 -1.04451276517652  2.00521121232123
 1 -2.17448105330533  1.64487807040704  1.18646929732973
 1 -1.98782323982398  0.81871232413241  3.60876458995900
 1 -3.07133219321932  2.06698075557556  3.61452361776178
 1 -3.72845628832883  0.48844352835283  3.54124653745375
 1 -2.06496898179818 -1.74016397679768 -0.50584449364937
 1 -2.28480015251525  0.16795404580458 -0.69252929252925
 1 -0.46099961736174  0.91399601350135  0.69137953705370
 1 -0.39128693069307 -0.92977749294930  1.60264421962196
 1 -6.06165494089409  6.67060570467047  0.45233094229423
 1 -5.63940092949295  6.17761112421242  2.08813511061106
 1 -4.25154911091109  5.96045721212121  0.88859203480348
 1 -9.30736278877888  5.75726187428743 -0.59058928712871
 1 -9.06591780768077  8.04265500440044  0.38939856165617
 1 -7.42731219701970  7.41180758025803  1.36448483398340
 1 -12.26591069616962  3.14990531653165 -2.17853085778578
 1 -13.31151082028203  2.02449634083408 -1.38849004050405
 1 -12.38494022512251  3.30252890759076 -0.45989723372337
 1 -12.39884466286629 -1.53435288038804 -1.17314226912691
 1 -13.42040075897590 -0.32468920572057 -1.65967149464947
 1 -12.89761611421142 -1.63653834003400 -3.67795768026803
 1 -12.44338790299030 -0.06511104870487 -3.80192368806881
 1 -11.35779205850585 -1.41364623172317 -3.65519413941394
 1 -8.96579618261826 -4.74713545644564 -1.93193645774577
 1 -7.95564492929293 -5.71999200340034 -0.61247086008601
 1 -9.47462734763476 -4.75235025632563 -0.63155497809781
 1 -3.20595129102910 -3.47173042374237 -0.16106137763776
 1 -1.47226539303930 -4.36407284698470  3.70093300860086
 1 -2.88009761836184 -5.79007062466247  3.57339017791779
 1 -1.34129224072407 -5.94329360256026  2.55292924582458
 1  2.84873417751775 -1.74513634953495 -1.58094205920592
 1  2.65133261086109 -0.20933665406541 -2.04639779197920
 1  4.33873477907791 -1.14426664186419  0.40114333033303
 1  3.99262822632263  1.29968867926793 -2.49661803150315
 1  5.12063747544754  2.10676093499350 -1.64099056725673
 1  5.67402471007101  1.14178528602860 -3.14040277127713
 1  6.57253931683168  1.34913891389139  0.10016265906591
 1  6.29927404680468 -0.28067610501050  0.64444416111611
 1  7.21846923162316 -1.53645288048805 -1.36913823742374
 1  7.66141857775778 -0.02581937383738 -2.03360628422842
 1  9.06409846144614  0.50911879687969  0.29048668086809
 1  8.40794928362836 -1.10081558775878  0.75629349304930
 1  9.93838138953895 -0.18079554185419 -1.78802369186919
 1  9.38436342184218 -2.55191316781678 -1.95036096089609
 1  11.06770932663266 -2.23892067596760 -2.25472971687169
 1  10.14996788278828 -3.10502244424442 -0.74654409410941
 1  11.29537721862186  0.56208843904390  0.45169665716572
 1  11.36694974837484 -1.24406036733673  0.73093371497150
 1  12.88691201010101 -1.49594775597560 -1.23670133773377
 1  12.76179993249325  0.21041173217322 -1.48646200750075
 1  13.59070050675068  0.67215977197720  1.02307965096510
 1  14.10128288138814 -0.99967957265727  1.26912342884288
 1  15.04341763026303  0.44756424142414 -1.25581993999400
 1  16.05027247014701 -2.18123841594159  0.07890643674367
 1  14.95137818851885 -2.19484185978598 -1.29648706380638
 1  16.52177180658066 -1.56530205510551 -1.58107957745774
 1  15.94935013571357  1.60018785248525  0.80491703600360
 1  16.67513196039604  0.06169699459946  1.44473723492349
 1  18.22038297699770 -0.28763531093109 -0.10689402980298
 1  18.10869793429343  1.18950626952695 -1.06163973977398
 1  18.20576136873687  2.47801195889589  0.78313631893189
 1  18.86048320862086  1.20316449744974  1.73543354365437
 1  20.43297821052105  0.53790993919392  0.25907297129713
 1  20.23699780638064  3.41338490039004 -0.78618221162116
 1  21.39563381548155  2.31333798659866 -1.36260762406241
 1  19.54809871427143  2.11153296409641 -1.87897486648665
 1  20.99857583278328  1.69919802890289  2.19066868406841
 1  22.23851555785578  1.85431666136614  0.89011397769777
 1  21.07324705460546  3.33674375767577  1.21714215471547

