%nproc=4
%Mem=3GB
# td=(NStates=1) iop(3/107=0140000000,3/108=0140000000) CAM-B3LYP/6-31G(d,p) 

TD

0 1
12 -7.07540223192319  0.64810319381938  0.01770814081408
 6 -4.87576639313931 -2.00059729032903  0.47547294969497
 6 -4.68525455605561  2.71734045194519  1.15533563876388
 6 -9.37032379687969  3.14561211421142 -0.47829030433043
 6 -9.57021311931193 -1.72803456915692 -0.84917172207221
 7 -5.12999003020302  0.41582767336734  0.68748657265727
 6 -4.34700694799480 -0.74717586078608  0.75921381608161
 6 -2.91106732733273 -0.49195759375938  1.16980264936494
 6 -3.11524475137514  0.94310301190119  1.72313859315932
 6 -4.36203643834383  1.47977262836284  1.10661505540554
 6 -3.17314349514951  0.93820663996400  3.35546086068607
 6 -1.91964769446945 -0.59620560976098  0.06917072737274
 6 -0.45191090029003 -0.49114236223622  0.41465484778478
 6  0.53473539673967 -0.68777539943994 -0.68898868896890
 8  0.17458767556756 -0.96203998169817 -1.78269566266627
 8  1.81748034643464 -0.48372831123112 -0.29469485708571
 7 -7.00217786118612  2.61078428832883  0.14260518461846
 6 -5.88001814561456  3.35400916831683  0.66715259135914
 6 -6.26670157855786  4.77090395399540  0.73479173787379
 6 -7.47731251655166  4.93084488968897  0.20540666706671
 6 -7.93399292679268  3.52618955775578 -0.11013301470147
 6 -5.33609564346435  5.95191466516652  1.14100425562556
 6 -8.31680168816882  6.10567083668367 -0.00369975747575
 6 -8.20413882388239  7.28654780448045  0.54251831113111
 7 -9.08879792089209  0.66332332673267 -0.60839741364136
 6 -9.78627611391139  1.86487981228123 -0.66186900040004
 6 -11.19174312701270  1.53643308780878 -0.88260312001200
 6 -11.27070655785579  0.12687023282328 -0.98049807810781
 6 -9.89838744234423 -0.33326351975198 -0.77724992629263
 6 -12.44707564526453  2.45362060346035 -0.94720417311731
 6 -12.49961375427543 -0.67437356115612 -1.35464479507951
 6 -12.47022893179318 -1.15345553785379 -2.88476912811281
 7 -7.13993695609561 -1.32822765846585 -0.33286596169617
 6 -8.23251757805781 -2.09184773027303 -0.62478405830583
 6 -7.81836387618762 -3.55076562796280 -0.64203450325032
 6 -6.53534132463246 -3.56061904400440 -0.22140422212221
 6 -6.19641337303730 -2.18623657945795  0.03597543294329
 6 -8.71335367486749 -4.74115021342134 -0.97800118321832
 6 -5.38908437133713 -4.42177574097410  0.08417339143914
 8 -5.18214920722072 -5.59553641064106  0.03435938453845
 6 -4.20376487908791 -3.34594204160416  0.56415473707371
 6 -3.60692486928693 -3.78722666536654  2.01765773427343
 8 -3.72411519491949 -3.04834219211921  2.93572693089309
 8 -2.84810016281628 -4.83970258875888  1.75819485698570
 6 -2.39120807780778 -5.42828803470347  2.96729412981298
 6  2.82308862926293 -0.64229251815182 -1.36987050425043
 6  4.08076896209621 -0.37788305620562 -0.58030059285929
 6  5.13718921022102  0.43304983298330 -0.90289316631663
 6  5.19679340494049  1.05687336263626 -2.24799893489349
 6  6.37731401010101  0.43678429442944 -0.18052857725773
 6  7.51904335693569 -0.15126367436744 -0.89502983168317
 6  8.83177088868887 -0.15667748384838 -0.03536963936394
 6  10.11085654625463 -0.62004366756676 -0.74427014701470
 6  10.17332060866087 -2.06060394029403 -1.16133309930993
 6  11.32937760156016 -0.31496638773877  0.03439547704770
 6  12.71516925242524 -0.62415244874487 -0.59129663476348
 6  14.00475174697470 -0.10261597589759  0.24252066366637
 6  15.38569456045605 -0.11294037763776 -0.48240389288929
 6  15.73051932293229 -1.46740512881288 -0.91754358065807
 6  16.44597158985898  0.42614913221322  0.43705844054405
 6  17.84158174587459  0.62688641824182 -0.25217174417442
 6  18.73599401800180  1.37043512201220  0.80939419611961
 6  20.15306811121112  1.42869230173017  0.33555026102610
 6  20.23407625342534  2.02680998609861 -1.06040073597360
 6  21.13602866986698  2.08932063196320  1.23023696369637
 1 -4.00830119361936  3.36073932533253  1.62012810861086
 1 -10.04805692899290  3.90925319981998 -0.35949047524753
 1 -10.34560898499850 -2.56232176727673 -1.04989280868087
 1 -2.87370465766577 -1.23689389208921  1.90723721442144
 1 -2.36538000430043  1.65078713981398  1.36133978297830
 1 -2.23596668306831  0.57014612101210  3.85966630403040
 1 -3.29809691879188  1.99122834563456  3.66444446664666
 1 -4.16659946044604  0.42151730603060  3.62239392459246
 1 -2.16589170817082 -1.45875654645464 -0.48918692579258
 1 -2.20175654465447  0.15265288508851 -0.52577931253125
 1 -0.28397382608261  0.53858344564456  1.00092395539554
 1 -0.26768518881888 -1.10315108170817  1.24151761006101
 1 -5.34168834653465  6.71305881788179  0.38159799109911
 1 -5.52655412671267  6.19848272967297  2.18520053255325
 1 -4.21404624922492  5.40167443544354  1.41125185778578
 1 -9.21763202300230  5.91498488048805 -0.70394174687469
 1 -8.95279434313431  8.07238695969597  0.33615339103910
 1 -7.49312724482448  7.52909974637464  1.34007296759676
 1 -12.27520799379938  2.99908905600560 -1.92129796129613
 1 -13.38346564426443  1.88633737613761 -1.08236396459646
 1 -12.52583361606161  3.03989132323232 -0.09047948744875
 1 -12.52237420232023 -1.68540946374638 -0.66983048394839
 1 -13.48584088318832 -0.17617032753275 -1.35876163056306
 1 -13.14023922312231 -1.97287094919492 -3.25325628372837
 1 -12.45421582728273 -0.38966743804380 -3.52615159355936
 1 -11.60514535393539 -1.57036806400640 -3.18287656585659
 1 -9.24091871047105 -4.70558705950595 -2.06633269626963
 1 -7.87881226642664 -5.57657361066107 -0.90855081018102
 1 -9.40282446144614 -4.78521697009701 -0.14688695739574
 1 -3.48083560206021 -3.48583518911891 -0.07909564766477
 1 -1.77826121372137 -4.73665587898790  3.51949366696670
 1 -3.17348378567857 -6.03209273417342  3.49743078077808
 1 -1.76003652415242 -6.11805259005901  2.71476483758376
 1  2.76958501330133 -1.52470909370937 -1.81290273897390
 1  2.84746118741874  0.21292937773777 -2.27292835033503
 1  4.02129261596160 -0.97709612341234  0.32676407660766
 1  4.08852416391639  1.43823936663666 -2.47760824652465
 1  5.75263219541954  1.99725014891489 -2.24823226162616
 1  5.51233080158016  0.21714290519052 -3.10044630153015
 1  6.88145632953295  1.40776075667567  0.00272988688869
 1  6.13931180328033  0.03612627592759  0.77796399189919
 1  7.37755987878788 -1.34803547654765 -0.94619937713771
 1  7.72656521502150  0.45416451945195 -1.78627945084508
 1  8.86988303260326  0.86695619311931  0.30816324442444
 1  8.66340946174618 -0.76771512421242  0.90659678307831
 1  10.22572720452045  0.00636678447845 -1.75625078307831
 1  9.38030763986399 -2.60754903840384 -1.79095747764776
 1  11.09171831243124 -2.12788618791879 -1.82686804490449
 1  10.17825002210221 -2.84156827152715 -0.22984037773777
 1  11.37244888648865  0.78662509590959  0.47525529632963
 1  11.33847144264427 -1.05084638223822  0.95632195229523
 1  12.81522947544754 -1.75129254855486 -0.79895216671667
 1  12.66726255615561 -0.20447551155116 -1.65627996169617
 1  13.82575399569957  0.88505386868687  0.56817164586459
 1  14.13223153375337 -0.57940431933193  1.19526190019002
 1  15.31013141454146  0.69071246824682 -1.34559582838284
 1  15.76810060686069 -2.14070341154115  0.00950281478148
 1  15.03553519791979 -1.85080960096010 -1.70510188368837
 1  16.74802308190819 -1.57602849984998 -1.41074758805881
 1  16.09580285378538  1.41276961066107  0.88142405870587
 1  16.60321439923992 -0.27166345114511  1.27609610431043
 1  18.45683242094210 -0.29561607560756 -0.52228242384238
 1  17.69815712531253  1.22651154525453 -1.08015375897590
 1  18.21628068496850  2.30582185018502  0.94336628342834
 1  18.64166012851285  0.74167900740074  1.58993223872387
 1  20.53125295759576  0.39173017061706  0.44398029022902
 1  19.88870568906891  3.06752752925293 -1.06820900560056
 1  21.30724452525252  2.12479362146215 -1.42714069526953
 1  19.60063846144615  1.55639592979298 -1.88187657205721
 1  21.01227508100810  1.60483612451245  2.12684635343534
 1  22.25201309410941  2.25450592129213  0.98848550215022
 1  20.78396847534754  3.17170328752875  1.28094523122312

