%nproc=4
%Mem=2GB
# td=(NStates=1) CAM-B3LYP/6-31G(d,p) 

TD

0 1
12 -7.11027160016002  0.60319906800680 -0.00960327292729
 6 -4.86761137913791 -1.97265844424442  0.52877941064106
 6 -4.89836976587659  2.80763921122112  1.21821818671867
 6 -9.33601833733373  3.10678617411741 -0.43369622932293
 6 -9.52992330603060 -1.77859337033703 -0.95451188028803
 7 -5.11276470107011  0.36368618671867  0.63094351265127
 6 -4.38928863496350 -0.74356417841784  0.84827285048505
 6 -2.95851485688569 -0.40374980068007  1.16507686188619
 6 -3.03414685308531  1.04259692799280  1.69693042374237
 6 -4.40630762566257  1.51043179197920  1.15258228812881
 6 -2.88164324642464  1.24749703780378  3.14803621252125
 6 -1.86977043804380 -0.73170843224322  0.11360531883188
 6 -0.43979140174017 -0.54861920912091  0.54974910421042
 6  0.47032817001700 -0.65193870677068 -0.51711709220922
 8  0.26522776287629 -0.85487089468947 -1.69493582528253
 8  1.77471928242824 -0.41956935333533 -0.09380616951695
 7 -7.05199564746475  2.64299988978898  0.27023571907191
 6 -6.06640591959196  3.35894687048705  0.65485901950195
 6 -6.40628788188819  4.77043133253325  0.78493918111811
 6 -7.69350205720572  4.83693432493249  0.42560095139514
 6 -8.10454472607261  3.48376757205721 -0.01313876757676
 6 -5.52036999369937  5.90968343424342  1.27682244274427
 6 -8.59167696529653  5.99490052375238  0.15824280968097
 6 -8.48979287058706  7.20494661326133  0.76585283508351
 7 -9.12048432103210  0.65548840994099 -0.50337437113711
 6 -9.80824708440844  1.76439639273927 -0.66552287638764
 6 -11.15632472907291  1.51990032913291 -1.26730845034503
 6 -11.23859626352635  0.11535689978998 -1.42814152815282
 6 -9.92947862856286 -0.34303627792779 -0.97615263136314
 6 -12.17055587928793  2.48987955895590 -1.50791756655666
 6 -12.40445499179918 -0.70521793189319 -1.79520032853285
 6 -12.41584907330733 -0.99304171537154 -3.31759687828783
 7 -7.24639410771077 -1.44062367596760 -0.18363304030403
 6 -8.27790803060306 -2.24610978307831 -0.52619757495750
 6 -7.87861400700070 -3.61205947344734 -0.48560583788379
 6 -6.48401228532853 -3.57342167916792 -0.09742147404740
 6 -6.15259785618562 -2.18054633593359  0.08249105330533
 6 -8.65518298569857 -4.95215805820582 -0.67599607800780
 6 -5.35410988128813 -4.39970385388539  0.28181105370537
 8 -5.28453729162916 -5.64320880428043  0.33940097079708
 6 -4.28638221762176 -3.34623041284128  0.58709857515752
 6 -3.57416804770477 -3.71323654495450  1.91212158505851
 8 -3.83263486408641 -3.26912364856486  2.99413209430943
 8 -2.57447864156416 -4.61333605600560  1.72737131803180
 6 -1.89161974987499 -5.11992622172217  2.99367430293029
 6  2.76946945864586 -0.61258905350535 -1.20192139253925
 6  4.08877096609661 -0.35221339763976 -0.49799994899490
 6  5.11383486788679  0.43403966936694 -0.84625439813981
 6  4.99803822682268  1.19827247654765 -2.17973213851385
 6  6.46801113391339  0.42005385558556 -0.12035852105211
 6  7.67861539943994  0.00827048014801 -0.91607855835584
 6  8.91244311691169  0.00409527912791 -0.04645645844584
 6  10.17852847734773 -0.50562763446345 -0.83343431393139
 6  10.09047574777478 -1.90492142824282 -1.33217668266827
 6  11.43076595349535 -0.31808558935894  0.07745861446145
 6  12.79990489818982 -0.56641069216922 -0.61300132303230
 6  14.00975044344434 -0.16923812661266  0.23714078157816
 6  15.27913403830383 -0.28077180628063 -0.55674391419142
 6  15.73285495439544 -1.69555718951895 -0.88196781448145
 6  16.42885699159916  0.32291665166517  0.36843135033503
 6  17.76687127652765  0.48129952835284 -0.28175398999900
 6  18.80184055355535  1.24691290829083  0.71276170917092
 6  20.22505117431743  1.31945227872787  0.08011277447745
 6  20.34714606840684  2.15311360856086 -1.13505449814981
 6  21.12856378717872  1.95765870217022  1.24623998739874
 1 -4.18419990449045  3.27150267166717  1.77144173107311
 1 -10.12337272997300  3.87560839583958 -0.38788417991799
 1 -10.22663595299530 -2.47937727852785 -1.25440209240924
 1 -2.60327678457846 -1.02689100300030  2.01612230343034
 1 -2.32486609180918  1.69899348194819  1.09519016941694
 1 -2.03447790529053  0.83834428732873  3.71658537203720
 1 -2.97266232623262  2.34745880338034  3.55700786618662
 1 -3.61954539723972  0.55240992499250  3.76749916271627
 1 -1.94669715461546 -1.64606456685669 -0.54175808500850
 1 -1.94841651415141 -0.04932768236824 -0.74808484808481
 1 -0.11316483388339  0.35071968586859  1.13057345644564
 1 -0.33732153415342 -1.42251676687669  1.21202515771577
 1 -5.81855063046305  6.90333897799780  0.73858956815682
 1 -5.39721671107111  5.92876623972397  2.32997929502950
 1 -4.40984494049405  5.75805697209721  0.98201137673767
 1 -9.37571962446245  5.86702285038504 -0.65282551075107
 1 -9.26108732463246  7.99614035293529  0.31646126792679
 1 -8.03781324712471  7.53874027352735  1.71639002450245
 1 -12.04524862996300  3.23652397839784 -2.13921692639264
 1 -13.14630429962996  1.99268315951595 -1.81935312681268
 1 -12.26650838193819  3.04084273897390 -0.52106335033503
 1 -12.13887866626663 -1.76295574067407 -1.01206616151615
 1 -13.30933965286529 -0.21976871367137 -1.56374190169017
 1 -13.24764111671167 -1.81092577877788 -3.71595147964796
 1 -12.60492405660566  0.05684114651465 -3.84638813451345
 1 -11.49908618791879 -1.51631649874987 -3.87300592059206
 1 -8.85875547854786 -5.12918366126613 -1.79829309340934
 1 -8.12977234203420 -5.77965796999700 -0.35447506050605
 1 -9.51241112601260 -5.21759678097810  0.07355553295330
 1 -3.33960465636564 -3.62974622532253 -0.15835110661066
 1 -1.37359552605261 -4.44449088878888  3.55026794209421
 1 -2.89188879747975 -5.56328794639464  3.57889072797280
 1 -1.19528764026403 -5.94911418461846  2.63212716561656
 1  2.69489879397940 -1.55345718161816 -1.66599056405641
 1  2.60483796139614  0.17512179177918 -1.86655980818082
 1  4.37359826542654 -0.98494070927093  0.34314753075308
 1  3.93258222172217  1.43903261366137 -2.53378174787479
 1  5.52026743844384  2.18629888878888 -2.07083355155516
 1  5.41595890349035  0.72679378687869 -3.24513324432443
 1  6.59455151805180  1.55557955795580  0.34575721852185
 1  6.28649276867687 -0.13573161056106  0.93119283598360
 1  7.45994337903790 -1.11765100030003 -1.40122144574457
 1  7.83587602350235  0.86222943104310 -1.68171109470947
 1  9.00391244284428  1.00211809680968  0.23778141034103
 1  8.99253774247425 -0.67452295849585  0.74654251795180
 1  10.27719527092709  0.40558309600960 -1.62286717621762
 1  9.23048803430343 -2.15311328782878 -1.95489141394139
 1  10.93015557125713 -2.21804858875888 -1.86613085698570
 1  9.97531041704170 -2.64843678567857 -0.53626306600660
 1  11.38149583048305  0.72909513971397  0.27620910841084
 1  11.24543759715972 -0.86142210351035  0.94138476007601
 1  12.99701302020202 -1.54457261846185 -0.98656632423242
 1  12.86996074857486  0.16361705270527 -1.44301766306631
 1  13.92030346704671  0.75785834183418  0.49082642564256
 1  13.80992374547455 -0.89195880058006  1.26668318481848
 1  15.21954524302430  0.27862734773477 -1.44863922192219
 1  15.69711715461546 -2.24363465556556  0.03579212531253
 1  14.97091014171417 -2.26248862446245 -1.60750816591659
 1  16.56449607900790 -1.79182470737074 -1.67807927742774
 1  15.94194939563956  1.37336517021702  0.62524906920692
 1  16.36034048124812 -0.34435361046105  1.21266402760276
 1  18.09138007670767 -0.66065261266127 -0.61502484288429
 1  17.63604066856686  1.04835215411541 -1.19923349914992
 1  18.41431222382238  2.37010116781678  0.98766677197720
 1  18.85412257255726  0.88408258925893  1.70241024132413
 1  20.60887580028003  0.27734388258826 -0.11090402640264
 1  19.87108121472147  3.04755831773177 -1.08156174957496
 1  21.42605685778578  2.46838349114911 -1.48309967326733
 1  20.00752465686569  1.59445125592559 -2.04902187118712
 1  21.10239621482148  1.56654476357636  2.08295791299130
 1  21.99148085438544  2.20877210691069  0.92135710201020
 1  20.78186791669167  3.16683676697670  1.42771321182118

