%nproc=4
%Mem=2GB
# td=(NStates=1) CAM-B3LYP/6-31G(d,p) 

TD

0 1
12 -7.06249682268227  0.63185193329333  0.00081776917692
 6 -4.83722834083408 -2.03678485688569  0.42136866956696
 6 -4.75645557445745  2.78777722502250  0.94786115101510
 6 -9.44468920442044  3.17168266376638 -0.38450130983098
 6 -9.57969828352835 -1.65497100810081 -0.82275870497050
 7 -5.16605002960296  0.46229604770477  0.61787220552055
 6 -4.38795850195020 -0.69347916991699  0.78251627482748
 6 -2.93200220562056 -0.36267569326933  1.13588394259426
 6 -2.94036747514751  1.05588825712571  1.62779351005101
 6 -4.38362535743574  1.48130887968797  1.06869389928993
 6 -2.99512459455946  1.13159544764476  3.24290569946995
 6 -1.90043350435043 -0.59164442584258 -0.06345238693869
 6 -0.45229265186519 -0.48679302650265  0.63151728102810
 6  0.50009114631463 -0.76656016891689 -0.54618999949995
 8  0.27555879597960 -1.23630903850385 -1.60401673337334
 8  1.78794060456046 -0.65267266366637 -0.11373816271627
 7 -7.15444589248925  2.67540313011301  0.30628932443244
 6 -6.03077235623562  3.36500747654765  0.65319885348535
 6 -6.42074932803280  4.78513280268027  0.72406309350935
 6 -7.67905061206121  4.93222385388539  0.32016040734073
 6 -8.17171144274428  3.54517371267127  0.05992853915392
 6 -5.50834879157916  5.85949841574157  1.35466022652265
 6 -8.55302309990999  6.04963599729973  0.13810079547955
 6 -8.51530542184218  7.22378849744975  0.73007925772577
 7 -9.10909318191819  0.67970083118312 -0.58187222092209
 6 -9.80572683238324  1.88303825692569 -0.63370969506951
 6 -11.16017511411141  1.59946828592859 -1.02750446994699
 6 -11.27343974787479  0.13786915101510 -1.20911962596260
 6 -9.96292197289729 -0.38285025932593 -0.86370138623862
 6 -12.24977380108011  2.51151172217222 -1.27681445624562
 6 -12.44353890019002 -0.61579898999900 -1.66816762526253
 6 -12.47962545094510 -1.17874028522852 -3.06002112071207
 7 -7.22166163446345 -1.31388100170017 -0.22035671267127
 6 -8.31144138393839 -2.24472964506451 -0.63824878007801
 6 -7.85430157575758 -3.54474274177418 -0.63089036633663
 6 -6.51943582768277 -3.49422375937594 -0.16009774167417
 6 -6.16707930433043 -2.19790807210721  0.03494629882988
 6 -8.68048551595160 -4.81663450585059 -0.99186766516652
 6 -5.40026449674968 -4.39008289178918  0.17384025662566
 8 -5.24581341924192 -5.59274375777578  0.12890992169217
 6 -4.23439701910191 -3.36763255305531  0.48304817011701
 6 -3.58454908580858 -3.65301052235224  1.80419079197920
 8 -3.81572317291729 -2.99518625482548  2.83110579167917
 8 -2.91556274997500 -4.82781750415041  1.74704328522852
 6 -2.07208779667967 -5.10964519361936  2.90925586108611
 6  2.78398090979098 -0.83223101770177 -1.16621782218222
 6  4.21312340134013 -0.59230740704070 -0.41751190019002
 6  5.10549403380338  0.19769603500350 -0.89744951765177
 6  5.01057948094809  0.96178882818282 -2.24057822312231
 6  6.43124745754575  0.22176402660266 -0.10936742194219
 6  7.67568510641064 -0.30236058295830 -0.79803675417542
 6  8.86122799539954 -0.18898402880288  0.10571875907591
 6  10.14713533803380 -0.57505457715772 -0.67874884538454
 6  10.08869556975698 -2.09127006310631 -1.10296376137614
 6  11.44439731663166 -0.33347712851285  0.16514738333833
 6  12.80358526622662 -0.53536758785879 -0.56414643754375
 6  14.04239370777078 -0.00371157395740  0.26140320782078
 6  15.40518664356436 -0.03132686178618 -0.40342858265827
 6  15.75049671857186 -1.43321095489549 -0.80312993069307
 6  16.51312541844185  0.64438879887989  0.45505001220122
 6  17.86400098949895  0.63629502790279 -0.21211702630263
 6  18.93733410291029  1.39580779777978  0.68052848584859
 6  20.29144781398140  1.45703603710371 -0.00518575537554
 6  20.44125547934793  2.10278857605761 -1.35961695439544
 6  21.19943087388739  2.07153008930893  1.01505686908691
 1 -3.93866535103510  3.43632915431543  1.47176176307631
 1 -10.15117551025102  3.63147398239824 -0.62960835233523
 1 -10.25630892029203 -2.23818315911591 -1.17940459265927
 1 -2.52905936283628 -0.93377169106911  1.95516620782078
 1 -2.09846345154515  1.59401298389839  1.26805745614561
 1 -1.78902335983598  0.76412686558656  3.41085479897990
 1 -3.22099715971597  2.19395345284528  3.55852801820182
 1 -3.71450489318932  0.37367205120512  3.72178459125913
 1 -1.99546203110311 -1.57419738013801 -0.61837574677468
 1 -1.93961563406341  0.27552480288029 -0.80942098169817
 1 -0.36469998739874  0.50062467636764  0.75237563666367
 1 -0.48130593259326 -1.30531504670467  1.55738969416942
 1 -5.67273604900490  6.75678432253225  0.76990269946995
 1 -5.50404739413941  5.79446280938094  2.35488178527853
 1 -4.38830278627863  5.64900606700670  0.97681085668567
 1 -9.31527357985799  5.96065221332133 -0.49546977517752
 1 -9.31142235813581  8.01401214011401  0.58487810961096
 1 -7.88500796659666  7.37929432893289  1.73012139763976
 1 -11.78330243534353  3.34305463146315 -1.90544354905491
 1 -13.24067373657366  2.11907579877988 -1.82026321782178
 1 -12.51152288338834  3.03185183988399 -0.33539478347835
 1 -12.55460023842384 -1.60234968006801 -1.15740069496950
 1 -13.46095481438144 -0.07214395119512 -1.29385491299130
 1 -13.64341069366937 -1.58481316751675 -3.31069095359536
 1 -12.22254581878188 -0.24612915051505 -3.73684718041804
 1 -11.71803808310831 -2.18161302840284 -3.20073869386939
 1 -9.05689529252925 -4.70207094999500 -2.13750701480148
 1 -7.99271863666366 -5.71280128432843 -0.92457207020702
 1 -9.51989187408741 -5.12379740104010 -0.17915973857386
 1 -3.42520321622162 -3.57542079277928 -0.15739101060106
 1 -1.33750191669167 -4.25722216191619  3.29218213351335
 1 -2.74752436103610 -5.09036065366537  3.76954979387939
 1 -1.66166427792779 -6.16085535873587  2.74315826872687
 1  2.41941124522452 -1.80913274917492 -1.42854681968197
 1  2.68997647524752 -0.05182090249025 -1.91679483168317
 1  4.37387829342934 -1.29028124332433  0.48906212221222
 1  4.07682664616462  1.08648735913591 -2.50552892259226
 1  5.53520893259326  1.90516077497750 -1.96216268446845
 1  5.57741504910491  0.55368647614762 -3.06918564956496
 1  6.58640070297030  1.28426242624262  0.17861050385038
 1  6.02749686908691 -0.32933097049705  0.71604132083208
 1  7.47579496419642 -1.36329556475648 -1.08354967856786
 1  7.92359479537954  0.34453766186619 -1.57958088168817
 1  8.86792884448445  0.83389127412741  0.57548518071807
 1  8.73241172987299 -0.79817532373237  1.04026188988899
 1  10.25015256665666  0.10439297699770 -1.66256114561456
 1  9.29592457795779 -2.37285526202620 -1.81530745554556
 1  11.11941449714971 -2.47597438133813 -1.56688093199320
 1  10.18966185218522 -2.79104104610461 -0.20828026772677
 1  11.22611029192919  0.51407363756376  0.59045053255326
 1  11.67035008840884 -1.09550551185119  1.20579120072007
 1  13.16340965986599 -1.67495565676568 -0.74563223082308
 1  12.90664441694169  0.14459515051505 -1.59001236253625
 1  13.81958339503950  1.00899345534553  0.68944628762876
 1  13.99772252535254 -0.69288889358936  1.21322783928393
 1  15.28720200870087  0.74298378337834 -1.26256061406141
 1  15.90149759265926 -2.26797708980898 -0.03368482238224
 1  15.03553660436044 -2.01332370797080 -1.54059147424742
 1  16.81473110251025 -1.52482800770077 -1.25763723322332
 1  16.11626682738274  1.59300713441344  0.83720026432643
 1  16.60398484568457  0.06381720662066  1.29639240044004
 1  18.34550548924893 -0.37745429282928 -0.45131847224722
 1  17.88535560006001  1.25938325722572 -1.15322889868987
 1  18.64580537313731  2.49447360506051  0.92424042934293
 1  18.98259541984199  0.95885006600660  1.69441944224422
 1  20.49724463716372  0.42099824802480 -0.13077601360136
 1  20.30217432403240  3.12127568946895 -1.34087768116812
 1  21.19229348144815  1.96183283608361 -2.06134749804981
 1  19.67214111851185  1.58533034383438 -1.90016698569857
 1  21.56645262046204  1.58770687978798  1.91267088428843
 1  22.14209591589159  2.22025325502550  0.61190615691569
 1  20.87450718061806  3.19749983328333  1.28862930343034

