%nproc=4
%Mem=2GB
# td=(NStates=1) CAM-B3LYP/6-31G(d,p) 

TD

0 1
12 -7.16147672067207  0.63806255435544  0.01260894829483
 6 -4.87642226022602 -1.98960013841384  0.52169870257026
 6 -4.72507243614361  2.74250269756976  0.98764512941294
 6 -9.33500823632363  3.13877937343734 -0.55098795849585
 6 -9.54222453615362 -1.75537104810481 -0.78700512961296
 7 -5.05642906750675  0.40499031713171  0.73830424872487
 6 -4.34924463056306 -0.78536835883588  0.83176119931993
 6 -2.88709771517152 -0.42363178887889  1.18749910411041
 6 -2.98406184458446  1.05263793209321  1.68673940464046
 6 -4.36843383828383  1.40284103290329  1.13558058795880
 6 -2.89079416151615  1.24804709280928  3.14680608950895
 6 -1.89365282628263 -0.74552981438144  0.10531448974897
 6 -0.51908933153315 -0.65968031523152  0.56976110541054
 6  0.50016115331533 -0.64415792869287 -0.61979736023602
 8  0.22527376747675 -1.05064047164716 -1.78609494119412
 8  1.72078388888889 -0.45298269466947 -0.20801759065907
 7 -7.14272472037204  2.64628021782178  0.40896959245925
 6 -6.03920319931993  3.28962993879388  0.76926045964596
 6 -6.29383663676368  4.75281957135714  0.72038272547255
 6 -7.63677638463846  4.86809744124412  0.30428882018202
 6 -8.11076534813481  3.51923111841184  0.01536408270827
 6 -5.42877083378338  5.78520098599860  1.18745350585059
 6 -8.49463726132613  6.08910994469447  0.13215020042004
 6 -8.36228011931193  7.17618373697370  0.93753000280028
 7 -9.08535080768077  0.65606846794679 -0.53895792949295
 6 -9.84391065076507  1.82236218931893 -0.64464078817882
 6 -11.14172326892689  1.55712405150515 -1.06102782228223
 6 -11.30574297819782  0.13404876897690 -1.06896561056106
 6 -9.94523020372037 -0.32907488178818 -0.82671768786879
 6 -12.28560738443844  2.46604717571757 -1.48377515231523
 6 -12.42794734103410 -0.68652606270627 -1.64177498599860
 6 -12.27454494289429 -0.90025243644364 -3.19840495909591
 7 -7.29792926122612 -1.38051766536654 -0.18052272927293
 6 -8.38098833863386 -2.24663983608361 -0.55951090629063
 6 -7.87529367496750 -3.67313558105811 -0.46958423572357
 6 -6.55046893099310 -3.55315965296530 -0.05418715061506
 6 -6.25770836723672 -2.21114939623962  0.02977578177818
 6 -8.74589205660566 -4.89236207860786 -0.75999447784779
 6 -5.50754522482248 -4.40380426392639  0.20540341294129
 8 -5.42013085098510 -5.55982046544654  0.29035606630663
 6 -4.33250683008301 -3.41995778557856  0.56281614691469
 6 -3.61332196309631 -3.66569179047905  1.86569694259426
 8 -3.82137373797380 -3.17559429562956  2.90700338143814
 8 -2.77116831053105 -4.79375409780978  1.68878745964596
 6 -2.22461304920492 -5.20272450155016  2.90182511801180
 6  2.74964747644764 -0.72972076667667 -1.27715891629163
 6  4.07643973297330 -0.44972314861486 -0.56943709270927
 6  5.09975345974597  0.32346861226123 -1.02794256695670
 6  5.24289271227123  1.00427307660766 -2.42629679497950
 6  6.39971430423042  0.41801365156516 -0.30708719391939
 6  7.66945448334833 -0.01841218811881 -1.05275222572257
 6  8.94741661426143  0.00264513411341 -0.07415922872287
 6  10.22702332683268 -0.44179125082508 -0.96070704120412
 6  10.03057975817582 -1.86374731083108 -1.27530099509951
 6  11.44335721262126 -0.27282106290629 -0.03015214661466
 6  12.90435534323432 -0.56518056915692 -0.58744876777678
 6  14.00140960936094 -0.05188639143914  0.30818788628863
 6  15.35702182708271 -0.29585331443144 -0.37747598739874
 6  15.74438610751075 -1.75401303510351 -0.55838545624562
 6  16.49582368826883  0.45643000300030  0.55358986618662
 6  17.89023361276127  0.54551594999500 -0.09909572417242
 6  18.88512888238824  1.42512072907291  0.66249668266827
 6  20.29994866406641  1.47413774727473  0.14237900110011
 6  20.34929628342834  2.28101639883988 -1.17342833553355
 6  21.23931486228623  2.05973891019102  1.19251461486149
 1 -4.04183566806681  3.37979350075007  1.34147873477348
 1 -10.17671806450645  4.00334116911691 -0.68982437393739
 1 -10.47263055245524 -2.46407574837484 -0.93427007920792
 1 -2.49156561346135 -1.00164847874787  2.05863655485549
 1 -2.22273587878788  1.62689627222722  1.17646829722972
 1 -1.82011646914691  0.86803725662566  3.39480319381938
 1 -2.95727078707871  2.16481053855386  3.36500866626663
 1 -3.69494293699370  0.80538522252225  3.64866727952795
 1 -1.80433291819182 -1.90667062746275 -0.05102901210121
 1 -2.08114978747875 -0.26218896849685 -1.03257329692969
 1 -0.64671818921892  0.24635924982498  1.24677507660766
 1 -0.13893169516952 -1.48621313651365  1.28051200640064
 1 -5.45708448384839  6.65363400750075  0.51907761696170
 1 -5.65909289868987  6.07345070817082  2.10094639173917
 1 -4.28304226022602  5.46328749514951  1.24611778737874
 1 -9.13214526702670  5.77607375547555 -0.79328955715572
 1 -9.08430964686469  8.13019375827583  0.85336495829583
 1 -7.73558302410241  7.28165456495650  1.75543392889289
 1 -11.97468157325733  3.04133445944594 -2.45218822352235
 1 -13.18838850805080  1.92417630883088 -1.67729892139214
 1 -12.25464719581958  3.31134978967897 -0.76623786778678
 1 -12.47698247664766 -1.66731617671767 -1.25913086798680
 1 -13.44523324222422 -0.23964070087009 -1.35031055855586
 1 -13.09710606320632 -1.59948463466347 -3.55067495199520
 1 -12.51041460566057  0.06268173057306 -3.64397789348935
 1 -11.29649592889289 -1.42598746584658 -3.10136875687569
 1 -9.15348495149515 -4.70328107100710 -1.74266753085309
 1 -8.25126449124912 -5.86203620782078 -0.76052566556656
 1 -9.70855073997400 -4.83065808710871 -0.05763758635864
 1 -3.48761945784578 -3.60355360606061 -0.21800707220722
 1 -1.70613878037804 -4.26038247794780  3.48448136343634
 1 -3.08750835943594 -5.40608222582258  3.62360519941994
 1 -1.46093420492049 -6.02664193739374  2.76238019091909
 1  2.73919322342234 -1.78239007490749 -1.60781474647465
 1  2.64804228182818 -0.03731945234523 -2.02296544874487
 1  4.21958286388639 -0.97481969716972  0.55698891489149
 1  4.26129509300930  0.94682339273927 -3.11202957265727
 1  5.49962537423742  2.12886314521452 -2.12144861306131
 1  6.03039034663466  0.72330343784378 -3.37138586958696
 1  6.61050311321132  1.55263926392639 -0.11834919211921
 1  6.22550667006701 -0.08343638103810  0.64551426812681
 1  7.30135752045205 -0.99585882108211 -1.31871319491949
 1  7.95994843074307  0.64941814991499 -1.66462938653865
 1  9.07010906250625  0.89220710571057  0.35615324752475
 1  8.82394088278828 -0.80058556475648  0.51285914961496
 1  10.41150870227023  0.29763230093009 -1.80516540604060
 1  9.11257624312431 -2.01208918541854 -2.17451337613761
 1  10.93465602130213 -2.17257404130413 -1.65400964486449
 1  10.04630751675168 -2.34655659765977 -0.22431187088709
 1  11.31205888678868  0.75921815201520  0.47959944744474
 1  11.37142019541954 -1.01514747604760  0.75911653325333
 1  13.01580489938994 -1.77101526272627 -0.50695836343634
 1  13.08473222572257 -0.29565887488749 -1.52685604690469
 1  14.00213164986499  0.99514207020702  0.65478282128213
 1  13.89841259435944 -0.62393199789979  1.37563407990799
 1  15.31892518101810  0.37922740774077 -1.28483284128413
 1  15.78037548044805 -2.10565085718572  0.47153569966997
 1  14.87350040074007 -2.21245362096210 -1.28217563266327
 1  16.69865949534953 -1.82746827172717 -1.18857032653265
 1  15.99908510921092  1.55412324602460  0.81146769106911
 1  16.50297474467446 -0.05696487158716  1.50158291949195
 1  18.17500843954396 -0.45003155055506 -0.35027836823682
 1  17.84454151865187  0.87936525542554 -1.09929350515052
 1  18.66187698029803  2.31740589828983  0.99710771607161
 1  18.85536269656966  0.88637281828183  1.84932493279328
 1  20.64231914461446  0.43118926712671 -0.03869680568057
 1  19.89810391699170  3.24823838573857 -1.04577817121712
 1  21.42834708680868  2.51940859365937 -1.63985534883488
 1  19.85447935233524  1.51424323512351 -1.92657962696270
 1  21.14459043424343  1.38685679477948  2.10896051325132
 1  22.14070577687769  2.03937516721672  0.69395436173617
 1  20.78790852075208  3.11586166946695  1.38859930043004

