%nproc=4
%Mem=2GB
# td=(NStates=1) CAM-B3LYP/6-31G(d,p) 

TD

0 1
<<<<<<< HEAD
12 -7.15246581958196  0.57517626572657  0.06907459485949
 6 -4.97611222922292 -2.02065324372437  0.50943747644764
 6 -4.85933586248625  2.81680012731273  1.03027939283928
 6 -9.47174190969097  3.13767926342634 -0.34204706440644
 6 -9.57328764246425 -1.74042955395540 -0.82798922802280
 7 -5.13600702530253  0.43205302340234  0.78762918121812
 6 -4.44004371047105 -0.69731955395540  0.90241826502650
 6 -2.94511351675168 -0.43140256595660  1.13397375157516
 6 -2.94292773117312  0.99874254255426  1.64183491419142
 6 -4.33039003390339  1.48311906070607  1.17650468036804
 6 -2.93979906200620  1.32239452755276  3.10927233613361
 6 -1.94580804180418 -0.61562682408241  0.08032199049905
 6 -0.51546896949695 -0.48559290649065  0.60580470977098
 6  0.56511764896490 -0.70090360326033 -0.63543892439244
 8  0.27538877897790 -1.12073748134814 -1.67030336203620
 8  1.76649846034603 -0.50276767316732 -0.09907669656966
 7 -7.22442289018902  2.65611120092009  0.39409810531053
 6 -6.07040631963196  3.31516249204920  0.73569710331033
 6 -6.50818807190719  4.77149143854385  0.80678136533653
 6 -7.75574828182818  4.89059969146915  0.30659905120512
 6 -8.19913418501850  3.49256845214521  0.13292583888389
 6 -5.45803376007601  5.81664413031303  1.04181894239424
 6 -8.47576537413741  6.11872290599060  0.19920690609061
 6 -8.37286117741774  7.33450956955696  0.78212446224622
 7 -9.22399467206721  0.63138599969997 -0.39809384308431
 6 -9.92860912061206  1.81494144724472 -0.68958528262826
 6 -11.22664176077608  1.48041638073807 -1.19625134463446
 6 -11.25743814771477  0.09976534063406 -1.21027974197420
 6 -9.97624330503050 -0.42663463776378 -0.78513352945295
 6 -12.31404022772277  2.47157772877288 -1.38321509630963
 6 -12.28327287358736 -0.75846325642564 -1.89933074157416
 6 -12.15964345274528 -1.01232364356436 -3.31018613721372
 7 -7.28230769906991 -1.43860347394739 -0.08089276627663
 6 -8.27678791859186 -2.16298147024702 -0.40435539073907
 6 -7.90563670927093 -3.62987125462546 -0.44086136343634
 6 -6.51110499459946 -3.57565190219022 -0.21684341624162
 6 -6.28445104150415 -2.25698397969797  0.09441224542454
 6 -8.67741520892089 -4.87215005740574 -0.88052653105311
 6 -5.37468193849385 -4.41861574507451  0.22592546514651
 8 -5.09055789368937 -5.55675015841584  0.15408243894389
 6 -4.22647622702270 -3.29786557635764  0.60549041434143
 6 -3.45491612251225 -3.62397761906191  1.90450082298230
 8 -3.86695829642964 -3.12250898709871  2.93581626272627
 8 -2.67006820052005 -4.67402212461246  1.66385496639664
 6 -2.25905649354935 -5.16175040414041  3.02360729622962
 6  2.81611412311231 -0.68008580318032 -1.10468166856686
 6  4.12877496649665 -0.36280445674567 -0.51120126912691
 6  5.12375585998600  0.33753001840184 -1.04064383708371
 6  5.11863028602860  1.11673432273227 -2.28788295359536
 6  6.46522085488549  0.42074392459246 -0.23214970017002
 6  7.60948848674867 -0.37009735663566 -0.90832778327833
 6  8.88761063366337 -0.23812894329433 -0.22038385118512
 6  10.23750437493749 -0.60734780648065 -0.90681165166517
 6  10.02891959215921 -2.03614455055506 -1.36002946794679
 6  11.44081695859586 -0.39555333613361 -0.00841997339734
 6  12.77467237493749 -0.61016506760676 -0.74897492039204
 6  13.96524599299930 -0.09661086388639  0.10319738723872
 6  15.38984510941094 -0.11963569266927 -0.45326356615662
 6  15.75711738063806 -1.48600623442344 -0.80682029972997
 6  16.53019712561256  0.47379173917392  0.54941944914491
 6  17.82324691409141  0.70025142354235 -0.12240805540554
 6  18.90812118161816  1.30308852585259  0.74472490549055
 6  20.33532220142014  1.40502083558356  0.17872263546355
 6  20.45597695149515  2.23280157735774 -1.08489948264826
 6  21.28684961576158  1.93002593889389  1.23280864426443
 1 -4.05239672417242  3.41247676907691  1.19999458635864
 1 -10.17519791249125  3.86356719171917 -0.39286467796780
 1 -10.19825311471147 -2.50371971277128 -1.18563521572157
 1 -2.49913637053705 -0.93610192409241  2.05634632583258
 1 -2.13282688788879  1.59102268486849  1.15730638103810
 1 -1.73325778327833  1.23269372227223  3.55896961046105
 1 -3.18595365536554  2.31743580108011  3.44403656905691
 1 -3.64215765846585  0.62921760576058  3.73774618741874
 1 -2.11250373527353 -1.71027098749875 -0.20315422462246
 1 -2.11839351185119 -0.01942469206921 -0.88743878347835
 1 -0.05526904430443  0.50616523042304  0.77256765586559
 1 -0.30753855585559 -1.14950946614661  1.64674863006301
 1 -5.85649442484248  6.61694033813381  0.37953366256626
 1 -5.56506349574958  6.33588695179518  2.07138343544354
 1 -4.42887684368437  5.70105127152715  0.82736591219122
 1 -9.34971702420242  6.29718586668667 -0.43153338153815
 1 -9.02589380528053  8.18412915181518  0.61488110991099
 1 -7.58361782758276  7.73980037953795  1.68834722022202
 1 -11.96080018511851  3.35647597359736 -1.79954295899590
 1 -13.17539720892089  1.76868075927593 -1.97115830733073
 1 -12.71455318641864  2.96546520122012 -0.42834407840784
 1 -12.10836561496150 -1.79831927702770 -1.49228418331833
 1 -13.11230994989499 -0.18117485428543 -1.34083961146115
 1 -12.88646499909991 -1.85432011821182 -3.77377726222622
 1 -12.28352191639164 -0.22905744334433 -3.93212670837084
 1 -11.40183646294630 -1.50999586668667 -3.86628524852485
 1 -8.82632223522352 -4.78784952785279 -2.05444870897090
 1 -8.09950931573157 -5.71450145434543 -0.73018263126313
 1 -9.67605749064906 -4.94335935723572 -0.32348417101710
 1 -3.61306200210021 -3.46243949464947 -0.19168443994399
 1 -1.42032019851985 -4.59752619231923  3.41364427972797
 1 -3.08997860646065 -5.35858747634764  3.59605244414441
 1 -1.68915702720272 -5.99544881808181  2.71314526742674
 1  2.69862916701670 -1.65104694059406 -1.36233019801980
 1  2.57315479307931 -0.13379910031003 -2.09858301050105
 1  4.24952585818582 -0.97604982018202  0.17686090209021
 1  4.13712267576758  1.45533424382438 -2.80073844354435
 1  5.61524693639364  2.05217547644764 -2.22704917311731
 1  5.81257856545654  0.68201930943094 -3.01534026502650
 1  6.70957302020202  1.61290529052905 -0.04023138033803
 1  6.57069118851885 -0.13950198759876  0.80925064176418
 1  7.41414879957996 -1.39732896809681 -0.89808113171317
 1  7.84472690859086 -0.13298008990899 -1.99851277487749
 1  8.96702875447545  0.78910679567957  0.22639027122712
 1  8.74097258595860 -0.70396590279028  0.59615747944794
 1  10.30873842524252  0.12708524622462 -1.81452634213421
 1  9.35592057755776 -2.21114909140914 -2.24152007680768
 1  11.12306486218622 -2.47430421432143 -1.58016226012601
 1  9.86019890589059 -2.77476941894189 -0.45983542324232
 1  11.41140882178218  0.54092632283228  0.27877936543654
 1  11.49032208560856 -0.94138009930993  0.78883950555056
 1  12.82675599449945 -1.75991415261526 -0.89686735433543
 1  12.81260501300130  0.06254694569457 -1.70175353665367
 1  13.81509294599460  0.86198875487549  0.58560590359036
 1  13.94441719481948 -0.77863746844684  0.87512402890289
 1  15.40717400590059  0.36956644164416 -1.36675103310331
 1  15.88650609350935 -2.17248754085409  0.15449399549955
 1  15.21427447814781 -2.00913328892889 -1.55029244434443
 1  16.72973260266027 -1.75160068496850 -1.23466493599360
 1  16.26229142984298  1.49971780548055  0.74601114541454
 1  16.56717116431643 -0.15500467556756  1.43253601480148
 1  18.20390132883288 -0.23254980238024 -0.57502084248425
 1  17.53807087158716  1.31634895379538 -1.07788136393639
 1  18.72790358295829  2.37764192189219  0.91358936423642
 1  18.83368052835284  1.10745492649265  1.83189318961896
 1  20.61213612631263  0.21628777697770  0.15222228622862
 1  20.01101520812081  3.25163872577258 -0.89917351075107
 1  21.39318357045705  2.39129578237824 -1.65169653295330
 1  19.77148105250525  1.89034084488449 -1.98439540854085
 1  21.33128910411041  1.48977708680868  2.24155377257726
 1  22.35748745504550  2.01223245294529  1.06667163346335
 1  21.06510624052405  3.06083616691669  1.63521396189619
=======
12 -7.14658523152315  0.65204395249525  0.09082677007701
 6 -4.87209182718272 -1.95363654205421  0.51223775647565
 6 -4.80262019091909  2.87924637193719  1.03952031693169
 6 -9.37562229772977  3.11355685118512 -0.33978683838384
 6 -9.49260957465747 -1.64768027902790 -0.90547697679768
 7 -5.15386881148115  0.39723954205421  0.67586800510051
 6 -4.33351305740574 -0.68691851385138  0.79369739293929
 6 -2.92496150155015 -0.32982240794079  1.16199655385539
 6 -3.03322676107611  1.04020668896890  1.66480721142114
 6 -4.42699969486949  1.47175792459246  1.10061709160916
 6 -2.93123820592059  1.28767105520552  3.16141755065507
 6 -1.90589405040504 -0.44509977137714 -0.09744578627863
 6 -0.50611803440344 -0.48288263546355  0.45010914021402
 6  0.49184032123212 -0.63426693959396 -0.75291067156716
 8  0.29828106820682 -0.96310171777178 -1.87789412111211
 8  1.78192000250025 -0.53593098949895 -0.16195298419842
 7 -7.06971741964196  2.69495508530853  0.19900859635964
 6 -5.98209748874887  3.42017299309931  0.71604513811381
 6 -6.39077633073307  4.74549883928393  0.60003069026903
 6 -7.68720142714271  4.84469510101010  0.37966635793579
 6 -8.17919219081908  3.57072626792679  0.00733327962796
 6 -5.48950690739074  5.79994246014602  1.14240900140014
 6 -8.65079287688769  5.99763079677968  0.29502648804881
 6 -8.54001789308931  7.05178129672967  1.03628987878788
 7 -9.06165843844384  0.65028788988899 -0.54880891459146
 6 -9.88187444714471  1.77764771787179 -0.63195952005201
 6 -11.16061515811581  1.42778111721172 -1.11819353885389
 6 -11.28923132703270  0.03174853895390 -1.21320003400340
 6 -9.97970365106511 -0.40654262856286 -0.96499151525153
 6 -12.31117994169417  2.44143471447145 -1.27640441524152
 6 -12.43824837113711 -0.83122053215322 -1.72578338683868
 6 -12.21287877627763 -1.09684209540954 -3.28239335793579
 7 -7.23933340164016 -1.44004361796180 -0.09707438443844
 6 -8.21932217201720 -2.25594076617662 -0.60988594379438
 6 -7.83403954955496 -3.60179844734473 -0.46512378967897
 6 -6.52665654975498 -3.60748508550855 -0.05327705960596
 6 -6.20739333573357 -2.16808508980898  0.14613741794179
 6 -8.64730219761976 -4.80656349874987 -0.73219169756976
 6 -5.38556302660266 -4.42924680818082  0.28127099969997
 8 -5.16252509040904 -5.63819830323032  0.31225825652565
 6 -4.17829140854085 -3.26904269406941  0.60901076637664
 6 -3.60768139903990 -3.60943616491649  1.98779915281528
 8 -3.73739534013401 -3.07832456865687  3.01192387348735
 8 -2.69537073077308 -4.66239096149615  1.81962054295430
 6 -2.26579716761676 -5.18635286438644  3.02576751225123
 6  2.83587609930993 -0.67511530613061 -1.17209841024102
 6  4.12863495249525 -0.42669084538454 -0.55521567056706
 6  5.16254973937394  0.27280354575458 -1.05262503520352
 6  5.15293371637164  1.11580422972297 -2.23743790909091
 6  6.44713904670467  0.28517036723672 -0.10004648984898
 6  7.59247678557856 -0.14059440634063 -1.00322727322732
 6  8.96527840044005 -0.01563669406941 -0.17193900670067
 6  10.14143476797680 -0.40197726942694 -0.96600757125713
 6  10.10879757995800 -1.96088702480248 -1.27046051105110
 6  11.44286716361636 -0.22608638943894 -0.13879301070107
 6  12.76440134783478 -0.45378943004300 -0.83358338123812
 6  14.00159962836284 -0.04680588338834  0.05175224272427
 6  15.44676080098010 -0.22246597569757 -0.45777401720172
 6  15.74128579747975 -1.76532416621662 -0.87497711541154
 6  16.46391049694969  0.21178553855386  0.56471097829783
 6  17.81763635303530  0.56403780218022 -0.03106892149215
 6  18.73554392389239  1.28083630063006  0.82080251325133
 6  20.21909057825782  1.38800913441344  0.30583534673467
 6  20.37043839763976  2.17669596679668 -1.06712770547055
 6  21.06880781158116  1.90436337263726  1.32553791719172
 1 -4.23200468496850  3.75045056645664  1.47149173607361
 1 -10.23336372907291  3.70950178517852 -0.52835822732273
 1 -10.17975126452645 -2.51565090589059 -1.27084373657366
 1 -2.56155261216122 -0.94725303920392  1.87763845504550
 1 -2.20563416861686  1.77851143374337  1.29855050545054
 1 -1.89538399589959  0.70385083798380  3.51482519601960
 1 -3.05903096309631  2.35830988848885  3.43306547194719
 1 -3.54981842454245  0.85779046304630  3.70649306210621
 1 -2.05557804270427 -1.33748370877088 -0.51622553175318
 1 -2.05327700020002  0.29588683908391 -1.01353139273927
 1 -0.37161067846785  0.51317593149315  1.11908230733073
 1 -0.45643344534453 -1.29398391359136  0.99557351255125
 1 -5.54346312171217  6.90298894299430  0.75187089628963
 1 -5.45156214561456  5.85010837393739  2.13165946304630
 1 -4.39765372137214  5.58362952935293  0.77667084268427
 1 -9.26665871837184  5.95755190329033 -0.56990721892189
 1 -9.02049326522652  7.93279401830183  0.76268589038904
 1 -7.91959142494249  7.04409080858086  2.04770315581558
 1 -12.12533663876388  3.23650397639764 -1.98584158885889
 1 -13.27130679987999  1.91194508570857 -1.59923111461146
 1 -12.42618434953495  2.88995765046505 -0.31187243124312
 1 -12.51382616101610 -1.65965541064106 -1.18904385928593
 1 -13.42067078597860 -0.30681741854185 -1.47464299179918
 1 -12.89597595019502 -1.90700538673867 -3.78396828132813
 1 -12.31431499569957 -0.08414295189519 -4.00347384308431
 1 -11.26240251955196 -1.57533240034003 -3.49083770377038
 1 -8.90953055605561 -4.88100884378438 -1.90235349944994
 1 -8.07837720252025 -5.90688069226923 -0.67259687268727
 1 -9.50655053995400 -4.85477049834983  0.00621879927993
 1 -3.29458015391539 -3.32330558125813 -0.10874614611461
 1 -1.56427459395940 -4.54572101180118  3.53752666796680
 1 -2.97514712331233 -5.45406702430243  3.84910774967497
 1 -1.64963307480748 -6.00184945814581  2.79705365826583
 1  2.76412571667167 -1.68661049694969 -1.56567053205320
 1  2.45039251685168 -0.00175589598960 -2.01492464466447
 1  4.32798370397040 -0.84305652085209  0.47079029502950
 1  4.08636760026003  1.29752846324632 -2.43178154785479
 1  5.81687709940994  2.05264552345235 -2.08043451165116
 1  5.73251055865587  0.69566067356736 -3.12174090509051
 1  6.66416847974798  1.31674567456746  0.23446608940894
 1  6.23021714111411 -0.51237927532753  0.73753347004700
 1  7.24133151785179 -1.38225746094609 -1.08086941054105
 1  7.57402983888389  0.29413262136214 -2.11521444504450
 1  9.21584363596360  1.00947883288329  0.12685031723172
 1  8.87618610731073 -0.88768427462746  0.72413027672767
 1  10.28216576797680  0.04835737343734 -1.90800569006901
 1  9.23708869436944 -2.27146512301230 -1.81890781558156
 1  10.97552010771077 -2.24982176607661 -1.82085632953295
 1  10.08457134313431 -2.51053299529953 -0.56713615331533
 1  11.55971365226523  0.75660789098910  0.39810129762976
 1  11.18398145154515 -0.80816677797780  0.76813743534353
 1  12.93881720062006 -1.47091525272527 -1.24823249084908
 1  12.81859561206121  0.13804449544955 -1.65456881818182
 1  13.98611004770477  0.97852040804080  0.38697604060406
 1  14.07915066816682 -0.51885148984899  1.17002351885189
 1  15.57713100160016  0.39045853085309 -1.47123148114811
 1  15.50892833573357 -2.52759305140514 -0.12275372927293
 1  15.12750580128013 -2.02610498609861 -1.83769118421842
 1  16.78981861126113 -2.02743826872687 -1.11779324882488
 1  15.79310451115111  1.05586342004200  1.08319486378638
 1  16.55165961316132 -0.27232640774077  1.44768752995299
 1  18.20073101180118 -0.55480202760276 -0.05257859825983
 1  17.53913097759776  1.09637695659566 -0.99393296909691
 1  18.22710350295030  2.49823398109811  0.97604560986099
 1  18.79518667896790  0.70340452145215  1.69615961626163
 1  20.51741665436544  0.33235938413841  0.06552361636164
 1  20.19581368796879  3.32969653155316 -1.10339393279328
 1  21.50846509860986  2.20029668246825 -1.39179054235424
 1  19.83465737013702  1.69677148794879 -1.96611358035804
 1  21.07958393359336  1.26930503960396  2.14075369256926
 1  22.07940964726473  1.87705893559356  0.95260022632263
 1  20.78999872977298  3.01613169646965  1.76816725722572
>>>>>>> 8e03b5b5abfc0030b3aa597dc0de36371bfbd096

