%nproc=4
%Mem=2GB
# td=(NStates=1) CAM-B3LYP/6-31G(d,p) 

TD

0 1
<<<<<<< HEAD
12 -7.11448202120212  0.52694144224422  0.14296198359836
 6 -4.88009262726273 -1.92661383978398  0.49020555325533
 6 -4.81396132503250  2.86292473977398  1.11358772367237
 6 -9.39107384288429  3.06046154165417 -0.34723758345835
 6 -9.59950026372637 -1.77817332833283 -0.88422485158516
 7 -5.07291071567157  0.44848466656666  0.71714213251325
 6 -4.32839254535454 -0.74670449244924  0.87500552375238
 6 -2.91474047944794 -0.40511993769377  1.18191854605461
 6 -3.10891432983298  1.02003467176718  1.59861059175918
 6 -4.44363135803580  1.52839358815882  1.10194722462246
 6 -2.87457253935394  1.28485077317732  3.08221963086309
 6 -1.92081554255426 -0.61545680708071  0.09801375967597
 6 -0.53822124472447 -0.41931627882788  0.55329945924592
 6  0.51421255845585 -0.40877439033903 -0.65016039653965
 8  0.19014025412541 -0.74453986158616 -1.73960029172917
 8  1.73482529302930 -0.27014441084108 -0.08270505940594
 7 -7.12166261416142  2.54694028382838  0.33152184768477
 6 -6.09187846684669  3.33385436123612  0.78905243884388
 6 -6.39764701780178  4.70364465386539  0.76346703390339
 6 -7.73519622662266  4.80654128562856  0.30141853315332
 6 -8.16953122472247  3.42784197949795 -0.01700915461546
 6 -5.47965592229223  5.90307277317732  1.07984274477448
 6 -8.54599239683968  5.99701073477348  0.02006899229923
 6 -8.46023991529153  7.09279539813981  0.78581483128313
 7 -9.18977124972497  0.64128698979898 -0.46969100280028
 6 -9.91194745444544  1.67785773887389 -0.55964228832883
 6 -11.24659375597560  1.48693703280328 -1.17529924942494
 6 -11.32011441534153  0.02117748184818 -1.19314802880288
 6 -10.01312699339934 -0.35854782908291 -0.87531254735474
 6 -12.27511633533353  2.44751532253225 -1.33460023482348
 6 -12.45882042834283 -0.78603601370137 -1.67890869936994
 6 -12.48791628002800 -1.06809922112211 -3.18130324892489
 7 -7.19443891219122 -1.42351196479648 -0.12859753675368
 6 -8.30322056185619 -2.19877504960496 -0.52523747894789
 6 -7.84303044864486 -3.61386965446545 -0.45944322162216
 6 -6.48161204530453 -3.57233157015702 -0.12448418031803
 6 -6.20798339473947 -2.20278856015602  0.07777058125813
 6 -8.69060652805280 -4.79248209060906 -0.69292777117712
 6 -5.34352882318232 -4.25169905340534  0.24356722932293
 8 -5.06821565946595 -5.46223070647065  0.18789582028203
 6 -4.27884146354635 -3.27210300010001  0.50876074137414
 6 -3.54045467636764 -3.71513673497350  1.91982235513551
 8 -3.77369897049705 -3.25596233243324  2.96624930603060
 8 -2.58840003370337 -4.62481720412041  1.68916749764977
 6 -2.02939352725273 -5.16932116121612  2.87703263876388
 6  2.81874438613861 -0.55012280688069 -1.04937613801380
 6  4.16198828782878 -0.39435761206121 -0.50590073907391
 6  5.16029951435143  0.34484074947495 -1.04614438713871
 6  5.10136855985599  1.03408605790579 -2.34475864116412
 6  6.49361369416942  0.39729157935794 -0.27009349454945
 6  7.57233477137714 -0.23467381428143 -0.97775472597260
 6  8.89709158175818 -0.13330846124612 -0.27857967076708
 6  10.27761838633863 -0.59187625932593 -1.00884185468547
 6  10.09652635283528 -2.03522445854585 -1.56856032103210
 6  11.43451632853285 -0.24606838763876 -0.08812794419442
 6  12.77927283498350 -0.54417846894689 -0.74153417631763
 6  13.98084755315532 -0.08428963176318  0.09716678417842
 6  15.33473959885989 -0.21198492759276 -0.50908914871487
 6  15.72664433333333 -1.74164179797980 -0.67336695439544
 6  16.41759586548655  0.44532889288929  0.45650015721572
 6  17.93222781218122  0.42777417581758 -0.07556337093709
 6  18.80362073157316  1.35772398939894  0.82346277927793
 6  20.26175484468447  1.30291062456246  0.39952471567157
 6  20.46371772557256  2.05735403260326 -0.98822981568157
 6  21.24353528432843  2.04589752605261  1.36290165356536
 1 -4.11579306380638  3.47634315571557  1.45329991689169
 1 -10.10901129382938  3.88222905790579 -0.31910730223022
 1 -10.28305159455946 -2.44624396519652 -1.13814046624662
 1 -2.76629308620862 -0.89167748164816  2.20834152535254
 1 -2.30072367756776  1.69047262986299  0.91522217261726
 1 -1.74545900340034  1.13359381228123  3.31779549304931
 1 -3.15334039403940  2.27334139163916  3.31449361476148
 1 -3.54267771047105  0.78548323232323  3.66124853765376
 1 -2.15775826072607 -1.67397735813581 -0.13582749194919
 1 -1.97684935743574 -0.16722947254726 -0.70646068566857
 1 -0.45523904130413  0.45937055095510  1.33456385548555
 1 -0.10561836383638 -1.22682719791979  1.13919787498750
 1 -5.51773054845485  6.69098774287429  0.35278098729873
 1 -5.66718370777078  6.22223558665867  2.19013531063106
 1 -4.42086604260426  5.56997816421642  1.36726990259026
 1 -9.13260531303130  6.00571671977198 -0.82830305850585
 1 -9.11053226912691  7.93650438933893  0.52407202900290
 1 -7.90431989778978  7.29853625312531  1.57703608910891
 1 -11.83308741384139  3.19456978297830 -1.99193219791979
 1 -13.09491916111611  1.89010290149015 -1.76742793429343
 1 -12.37530926202620  3.00519917461746 -0.46376762076208
 1 -12.53842862126213 -1.85331477657766 -1.34571952685269
 1 -13.38448716761676 -0.16558329512951 -1.50475600310031
 1 -13.39207556015602 -1.56923160936094 -3.43193307780778
 1 -12.27535109930993 -0.08124266186619 -3.71011450715072
 1 -11.71527780708071 -1.76560142724272 -3.66834545454545
 1 -9.09978958195820 -4.74883562646265 -1.63455671977198
 1 -8.14479384418442 -5.77980798499850 -0.52119173217322
 1 -9.51437132203220 -4.93039806110611 -0.01282310491049
 1 -3.25820651655166 -3.17408065876588 -0.23815908740874
 1 -1.55006317281728 -4.46090252995300  3.58045096039604
 1 -2.99037864646465 -5.52945456305631  3.40838367726773
 1 -1.56177428892889 -6.15036430963096  2.48905285818582
 1  2.75577488158816 -1.63119495539554 -1.31380534553455
 1  2.54845232283228 -0.02715843624362 -1.99936308850885
 1  4.23173407900790 -0.82425464066407  0.40679389538954
 1  4.12557152065207  1.18978768916892 -2.73352172187219
 1  5.45983139483948  2.16772703160316 -2.10020648884889
 1  5.93285059265927  0.59517062456246 -3.12126085708571
 1  6.73774583748375  1.45749974997500 -0.11367872507251
 1  6.29666378577858  0.03144510711071  0.68604832153215
 1  7.46363374807481 -1.21605084028403 -1.31390271387139
 1  7.67931036693669  0.28410161826183 -1.93211613521352
 1  9.25767781938194  0.93354123912391  0.00106773897390
 1  8.91378986768677 -0.92633814001400  0.56421428512851
 1  10.15771332273227 -0.09683714601460 -2.01231612111211
 1  9.18024300980098 -2.19878785528553 -2.34384030883088
 1  10.99708226392639 -2.42897968186819 -1.94079832373237
 1  9.74520740674068 -2.70257219921992 -0.66787622732273
 1  11.37750543144314  0.80011224142414  0.22942442994299
 1  11.43976703010301 -1.08492445374537  0.77774839643964
 1  12.77583090199020 -1.55462362356236 -0.73094076167617
 1  13.12855660816082 -0.12276158515852 -1.66293965526553
 1  13.83188462516252  0.86812936893689  0.55991333433343
 1  14.09651240434043 -0.70976058075808  1.01090760726073
 1  15.32879616811681  0.32078156315632 -1.64184854285429
 1  16.07654509740974 -1.91522181428143  0.54596314241424
 1  15.02321537223722 -2.48732110771077 -1.10259767486749
 1  16.76335596499650 -1.80918644354435 -1.26028749824982
 1  15.93270847154715  1.37928576227623  0.71679822412241
 1  16.43860830803080 -0.17293646874687  1.35910867206721
 1  18.12419335803580 -0.57557410481048 -0.36403974437444
 1  17.93638070257026  0.87883520242024 -1.16592016781678
 1  18.29851064366437  2.42474663236324  0.82227023232323
 1  18.63509066936694  0.96358053905390  1.77730773107311
 1  20.47988290099010  0.31844799299930  0.12428949294929
 1  20.02294640124012  3.07757131903190 -0.78871246464646
 1  21.45265951805181  2.01796844964496 -1.15800716401640
 1  19.82018592299230  1.51127293809381 -1.73666063506351
 1  20.91932790799080  1.73186129522952  2.37280689788979
 1  22.40489219551955  1.83240447014701  1.19163412971297
 1  21.14847457735774  3.15029511281128  1.36792723322332
=======
12 -7.15960653365337  0.59291803990399  0.03158084548455
 6 -4.82340695869587 -2.01560273867387  0.51570810351035
 6 -4.83043297219722  2.79839828712871  1.27846421132113
 6 -9.39903463896390  3.06787228272827 -0.47644050375037
 6 -9.55868618231823 -1.71178668966897 -0.83833026212621
 7 -5.08337176177618  0.37686750485049  0.67587800610061
 6 -4.27033673977398 -0.73799362136214  0.80753877707771
 6 -2.90461946734673 -0.49409883558356  1.20757111131113
 6 -3.04224766316632  0.98593126142614  1.73592432313231
 6 -4.46626362126213  1.47117786658666  1.28617564746475
 6 -2.95351043314331  1.22599488758876  3.28542995189519
 6 -1.90437389838984 -0.59498475987599  0.13712767106711
 6 -0.45748317091709 -0.49738408560856  0.57754188348835
 6  0.49227036423642 -0.59167268016802 -0.58355373587359
 8  0.21882312241224 -0.99732514011401 -1.67810414211421
 8  1.76250806130613 -0.34879227562756 -0.12134892379238
 7 -7.08869931783178  2.60152574237424  0.32367106260626
 6 -6.12026130513051  3.38960993679368  0.83185671927193
 6 -6.38369562266227  4.85056934633463  0.77020770797080
 6 -7.69204191119112  4.83223385488549  0.33278166946695
 6 -8.13014728632863  3.44118331363136  0.11938448474847
 6 -5.47685564226423  5.90568303420342  1.09108386888689
 6 -8.57646544414441  5.96349738343834 -0.01786480108011
 6 -8.57099099039904  7.07959407800780  0.70079632943294
 7 -9.10276254885489  0.66811967306731 -0.48682271597160
 6 -9.84741100080008  1.72514246734674 -0.74638096219622
 6 -11.22694179077908  1.43775211431143 -1.14953667316732
 6 -11.24375677957796  0.11384674877488 -1.33668238223822
 6 -9.92564824552455 -0.39256123042304 -0.88430344644464
 6 -12.22375119881988  2.53201377237724 -1.40958773357336
 6 -12.42897744404440 -0.70477788788879 -1.72555336383638
 6 -12.32933042144214 -0.93151556275628 -3.34628974757476
 7 -7.25806527482748 -1.44214382798280 -0.19403408040804
 6 -8.38457869766977 -2.26222139423942 -0.62164711991199
 6 -7.90319646524653 -3.60107837533753 -0.48427570487049
 6 -6.52081596569657 -3.54392872987299  0.01930019811981
 6 -6.21387398379838 -2.22758103940394  0.12743554775478
 6 -8.78464593199320 -4.81600444284428 -0.63839231763176
 6 -5.40294476477648 -4.32937682118212  0.30170304290429
 8 -5.22563140104010 -5.57940242364236  0.25787281798180
 6 -4.17715129452945 -3.34981077087709  0.50924078937894
 6 -3.55513614451445 -3.72829805110511  1.88802917581758
 8 -3.69369096969697 -3.20833756995700  2.95250793189319
 8 -2.64458565226523 -4.73245796819682  1.73781236213621
 6 -1.92128271617162 -5.05618984808481  2.96475141064106
 6  2.73679619131913 -0.40986878147815 -1.11336253665367
 6  4.13026511551155 -0.38530670697070 -0.66394654365437
 6  5.19564304870487  0.37313357875788 -0.99379915261526
 6  5.18327675067507  1.22294494379438 -2.26155032033203
 6  6.44597893069307  0.37346919711971 -0.21376786198620
 6  7.61365890379038 -0.27449779667967 -1.03962091259126
 6  8.94445631823182 -0.07488261866187 -0.24394620742074
 6  10.26768739323932 -0.61387845954595 -0.92681365186519
 6  10.13424012421242 -1.99738067416742 -1.42632609760976
 6  11.46201907880788 -0.22177595839584 -0.01996112751275
 6  12.81412632033203 -0.51717576867687 -0.73271329422942
 6  13.92367183558356 -0.12632383518352  0.08306537403740
 6  15.30098622352235 -0.22460618971897 -0.51216945674567
 6  15.71978364726473 -1.54449208300830 -0.87561717941794
 6  16.46786089198920  0.43601796179618  0.37228173537354
 6  17.87069165856586  0.53098449684968 -0.09789560416042
 6  18.85390576007601  1.25299351635164  0.80667110011001
 6  20.23825249444944  1.27423775727573  0.37992275547555
 6  20.35570692449245  2.11492979017902 -1.08907990069007
 6  21.14438536933693  1.98385132143214  1.33717908130813
 1 -4.13723520802080  3.47982350375038  1.69570415731573
 1 -10.09115950865086  3.94269510451045 -0.52306769826983
 1 -10.25922921232123 -2.37937727852785 -0.97795444764476
 1 -2.69489594649465 -1.13895220912091  2.16023671487149
 1 -2.33959756495650  1.66713029562956  1.38879953035304
 1 -2.07659211671167  0.97740819371937  3.72861657515752
 1 -3.30330539053905  2.42900695819582  3.51928409380938
 1 -3.63138658135814  0.43440812481248  3.51776418921892
 1 -1.85787827272727 -1.72165212561256 -0.29170307950795
 1 -2.31589326182618  0.19875712611261 -0.67552759235924
 1 -0.59637315471547  0.53396801070107  1.06955735483548
 1 -0.28012581458146 -1.10636515171517  1.40666462166217
 1 -5.87734651005101  6.77578622272227  0.62402811201120
 1 -5.43464045344534  6.00614397749775  2.25976227332733
 1 -4.58024198019802  5.62627379377938  0.63925710131013
 1 -9.32632468496850  5.75234138223822 -0.81354158235824
 1 -9.31038225412541  7.85344608350835  0.47703732553255
 1 -7.96731619741974  7.22736913641364  1.46289467496750
 1 -11.95314942004200  3.02290261626163 -2.44058706340634
 1 -13.09547921712171  2.15859975117512 -1.70050124162416
 1 -12.30104183528353  3.35691434613461 -0.61227247124713
 1 -12.47450222862286 -1.76166561166117 -1.23934888978898
 1 -13.53115183408341 -0.27071380818082 -1.58357388488849
 1 -13.18521487408741 -1.53522820902090 -3.71456134063406
 1 -12.40926449064907 -0.03275781338134 -3.73391688738874
 1 -11.43225950525053 -1.49364423152315 -3.63955257525753
 1 -9.31052065506551 -5.11438218111811 -1.64364762886289
 1 -8.28509787458746 -5.69653965816582 -0.79417903090309
 1 -9.64607449234924 -4.86502152345235  0.16383456085608
 1 -3.44769546544654 -3.36439969066907 -0.35904117561756
 1 -1.37355552205220 -4.22161860156016  3.46817973327333
 1 -2.80094970357036 -5.29498111571157  3.59877271617162
 1 -1.36205431693169 -5.98305757895790  2.81521547444744
 1  2.58172747684768 -1.32853468936894 -1.63264722972297
 1  2.57546502410241  0.40978525812581 -1.90358351055105
 1  4.28000890649065 -0.96035825102510  0.27452066806681
 1  4.16547551105111  1.38375708610861 -2.50888925862586
 1  5.56719213091309  2.11326158505851 -2.00221668986899
 1  5.98065537313731  0.67745885338534 -3.01000973197320
 1  6.83433549644964  1.44502850285029 -0.14279163636364
 1  6.15986010541054 -0.22920095749575  0.60185990269027
 1  7.34015139983998 -1.35327456265627 -1.11682300590059
 1  7.67815025092509  0.40926413451345 -1.95713863746375
 1  9.26300835243524  1.01784966996700 -0.13962633043304
 1  8.68086657535754 -0.66293179937994  0.58533639733973
 1  10.40516806820682  0.09392192989299 -1.77395228472847
 1  9.19402438793879 -2.26421439793979 -2.10634655945595
 1  10.76093864956496 -2.39198598249825 -2.17222146604660
 1  10.15780866686669 -2.71387332933293 -0.60685012471247
 1  11.44351203210321  0.85352758295830  0.28249973747375
 1  11.48978203160316 -0.63694965626563  0.93934455605561
 1  12.84887820672067 -1.52653081428143 -1.09482715031503
 1  12.73672742524252  0.11833252425243 -1.61194455575558
 1  13.59463089978998  1.04554711071107  0.42233957695770
 1  13.79990274337434 -0.81213081778178  0.98973549004900
 1  15.40163345184518  0.33852333733373 -1.49585394339434
 1  16.03659110201020 -2.24070436253625  0.07992653875388
 1  14.75871892259226 -2.20174254985499 -1.46050346544655
 1  16.54836446584659 -1.53824934983498 -1.44318578807881
 1  15.92414761546155  1.52286011971197  0.46925346964697
 1  16.48942338953895 -0.11182035713571  1.31610437163716
 1  18.32648358705871 -0.36269281668167 -0.15186852725272
 1  17.68159522402240  1.09536685558556 -1.18452202800280
 1  18.50451124372437  2.29822398009801  1.11298930423042
 1  18.74827198749875  0.61676585758576  1.72494249454946
 1  20.59361427412741  0.27853400160016  0.05493255725573
 1  20.02346645324532  3.21458502040204 -0.93389698309831
 1  21.44306855895590  1.93581023382338 -1.35647701100110
 1  19.84600850525053  1.47404921572157 -1.76834380338034
 1  21.08495447064707  1.45545365446545  2.35854547174717
 1  22.09523122942294  1.73312454215422  0.93689865616562
 1  20.83684341424143  2.94014409770977  1.51636207670767
>>>>>>> 8e03b5b5abfc0030b3aa597dc0de36371bfbd096

