%nproc=4
%Mem=3GB
# td=(NStates=1) iop(3/107=0140000000,3/108=0140000000) CAM-B3LYP/6-31G(d,p) 

TD

0 1
12 -7.14392908460846  0.64394277777778  0.03654002400240
 6 -4.87235605210521 -1.96085331593159  0.52013741614161
 6 -4.91648767936794  2.78548726662666  1.37061716691669
 6 -9.46889365386539  3.15610316331633 -0.54248672397240
 6 -9.47514361236124 -1.73370513621362 -1.04256106100610
 7 -5.10969800100010  0.53279937053705  0.75682350635064
 6 -4.37116936423642 -0.72552369556956  0.78348624332433
 6 -2.95196141674167 -0.43791218921892  1.25440110921092
 6 -3.06245947284729  1.12022072367237  1.74293057235724
 6 -4.38087832253225  1.52364701580158  1.20550494439444
 6 -2.92343852465247  1.20461328062806  3.32475779037904
 6 -1.98268399809981 -0.62576856605661  0.31721553185319
 6 -0.54130984018402 -0.40629387738774  0.56110949324932
 6  0.51475339853985 -0.57895451735174 -0.49581937203720
 8  0.21167138393839 -0.92327610531053 -1.62532992609261
 8  1.74976357475748 -0.52811274967497 -0.01162655025503
 7 -7.04080172357236  2.57653086298630  0.31389231333133
 6 -6.11563170697070  3.40017378477848  0.87625350145014
 6 -6.35345025342534  4.73642050565057  0.82069032773277
 6 -7.66280106540654  4.82839464466447  0.30864699109911
 6 -8.07922745024502  3.39227616641664  0.05169316791679
 6 -5.52302433633363  5.93941341504150  1.19966012121212
 6 -8.51403141114111  5.95061533113311  0.16948756125613
 6 -8.45913432343234  7.06960611031103  0.76370042934293
 7 -9.07466650775078  0.69007600200020 -0.63781035493549
 6 -9.83015050135013  1.78194151845185 -0.76687950145015
 6 -11.22733668636864  1.46752619711971 -1.19146400610061
 6 -11.19552904010401  0.12539008480848 -1.46843687198720
 6 -9.86127373097310 -0.39600979437944 -1.09032123342334
 6 -12.44175511321132  2.34916015741574 -1.36997645034503
 6 -12.32929672257226 -0.73032915671567 -1.71779110971097
 6 -12.36931884078408 -1.18268846114611 -3.19857050825083
 7 -7.20949391179118 -1.40055489118912 -0.21030370547055
 6 -8.25105943224323 -2.23283182868287 -0.56972855275528
 6 -7.79343138293829 -3.55877642904290 -0.50887118691869
 6 -6.45418320882088 -3.53521650375038 -0.13628571027103
 6 -6.16472020372037 -2.18052600840084  0.04084591999200
 6 -8.64124646414641 -4.71534763316332 -0.88961234433443
 6 -5.24926038893889 -4.30439400280028  0.11682665676568
 8 -5.08217921022102 -5.53363022002200  0.06049199779978
 6 -4.17737223982398 -3.30178762616262  0.66396471807181
 6 -3.52072624942494 -3.64560250295029  1.89718568706871
 8 -3.80935371877188 -3.09202656055606  2.98646200440044
 8 -2.64839019181918 -4.64112273077308  1.85191422892289
 6 -2.17191614861486 -5.03943914981498  3.00139754015402
 6  2.92362868326833 -0.65051334023402 -1.03920743794379
 6  4.14680556575658 -0.38689395729573 -0.47198976177618
 6  5.12965845714571  0.50896742474247 -0.92922579957996
 6  5.02891661726173  1.18498617391739 -2.25422955795580
 6  6.48679495819582  0.46656727272727 -0.24868539293929
 6  7.70093154575457 -0.23627217521752 -0.94242457115712
 6  8.94061177277728 -0.29180099619962 -0.11991809420942
 6  10.22413787438744 -0.56002766596660 -0.96218193819382
 6  10.02589586618662 -1.99916779667967 -1.35297226322632
 6  11.42994765856586 -0.31984687578758  0.06655869336934
 6  12.77356509200920 -0.60466049954995 -0.72701020612061
 6  13.96205747754775 -0.22208792309231  0.11981839343934
 6  15.30873686468647 -0.07883696729673 -0.61057671017102
 6  15.66200247124713 -1.52841122942294 -0.98079990629063
 6  16.40367736043605  0.34660117741774  0.31641637633763
 6  17.80960854855486  0.50694442404240 -0.25838236523652
 6  18.83589400800080  1.18024610311031  0.72946620332033
 6  20.23357616201620  1.30482991549155  0.19550625662566
 6  20.30357320312031  2.15313261836184 -1.05949064496450
 6  21.13108817581758  1.85564726462646  1.33283722372237
 1 -4.24068443194319  3.47906115751575  1.58410450625063
 1 -10.18532065536554  4.01072334683468 -0.60383490969097
 1 -10.18158258235824 -2.61454698979898 -1.14135195459546
 1 -2.74294158135814 -0.85565576827683  2.19915640634063
 1 -2.16938040434043  1.47761982308231  1.23672732173217
 1 -1.84710779717972  0.89110821722172  3.63780411781178
 1 -2.96817392649265  2.36062528532853  3.64122214441444
 1 -3.70623342384238  0.72988814311431  3.84959664486449
 1 -1.95886100510051 -1.64073474427443 -0.13244125122512
 1 -2.43136950595060  0.12037965776578 -0.55371210581058
 1 -0.43039846854685  0.83146273357336  1.01802566556656
 1 -0.17008542884288 -1.08831959855986  1.38363182148215
 1 -5.81461563926393  6.78320583258326  0.69381921322132
 1 -5.61048251955195  6.14541742314231  2.40816282878288
 1 -4.35024986958696  5.66188045604560  1.11960269286929
 1 -9.21915217501750  5.85548893089309 -0.62904425712571
 1 -9.11890095379538  7.78818853985399  0.45762553825383
 1 -7.80877880998100  7.23605044144414  1.70606956725673
 1 -12.45434590759076  3.34558370547055 -2.11683751525153
 1 -13.36538383608361  1.78603734613461 -1.57692342054205
 1 -12.90562159485949  3.15159249334933 -0.42906334583458
 1 -12.08036000090009 -1.77975889868987 -1.09736323722372
 1 -13.29542184128413 -0.39384209470947 -1.29177493189319
 1 -13.52600779998000 -1.64801846394640 -3.48458941704170
 1 -12.18017842354235 -0.14728319961996 -3.69162814121412
 1 -11.70974581398140 -1.98356938413841 -3.59570784898490
 1 -9.23219783838384 -4.41713821462146 -1.91151721472147
 1 -7.96818120332033 -5.66612256555656 -1.19240919601960
 1 -9.48242242124213 -5.03397184558456 -0.26670893959396
 1 -3.43367088558856 -3.28640524612461 -0.17843558165817
 1 -1.74701808940894 -4.30025223862386  3.80474219181918
 1 -3.17711414871487 -5.39923944884488  3.52575361306131
 1 -1.25066558705871 -5.87478826362636  2.80296365746575
 1  2.77894594939494 -1.85320194299430 -1.28037948664866
 1  2.69782622392239  0.05706379117912 -1.74671572907291
 1  4.26796728342834 -0.95246366016602  0.44408580878088
 1  4.02207751925192  1.13063860656066 -2.83560404610461
 1  5.32700963316332  2.21282170607061 -2.01279871827183
 1  5.52027159565957  0.82458364926493 -2.86753301020102
 1  6.71023920782078  1.49703968456846 -0.12606299239924
 1  6.37200507260726  0.00054271757176  0.82470866636664
 1  7.38480060286029 -1.27443811681168 -1.34448920612061
 1  7.92650520902090  0.13464256725673 -1.83704452735274
 1  8.97464350865086  0.86568606610661  0.39147157525753
 1  8.95445856665667 -0.88307666036604  0.77580370377038
 1  10.44883951575158  0.08988513631363 -1.86335149314931
 1  8.97406701580158 -2.25859414291429 -1.77290567246725
 1  10.89743888448845 -2.22074547384738 -2.18940429852985
 1  10.07259945704570 -2.67444155885589 -0.47908530223022
 1  11.55111675327533  0.75573200660066  0.47170494129413
 1  11.55691328682868 -1.16407770537054  0.76494281438144
 1  12.70480843334334 -1.64224164346435 -1.18258052955296
 1  12.63892972287229 -0.06940200420042 -1.66078041174117
 1  13.53615503580358  0.57336269956996  0.62449727842784
 1  14.30175848644864 -0.95483186208621  0.86639901390139
 1  15.23315371677168  0.56069946694669 -1.41621289008901
 1  15.36622041884188 -2.21445078627863 -0.09848798429843
 1  14.89034067846785 -1.93953847384739 -1.82879425292529
 1  16.65594387398740 -1.75965686268627 -1.31628814211421
 1  16.00775404890489  1.44567290099010  0.70078599489949
 1  16.46272034983499 -0.34019030383038  1.24079257395740
 1  18.34556129382938 -0.43708022202220 -0.45687588318832
 1  17.79190650025003  1.21774066816682 -1.08528427202720
 1  18.54994405130513  2.26754802280228  1.02672461926193
 1  18.94600056255626  0.64285912541254  1.62988623412341
 1  20.47290712301230  0.32111310891089 -0.19859396719672
 1  20.42278909740974  3.10723149964997 -0.89627181188119
 1  21.38355215601560  1.95003614571457 -1.37442542374237
 1  19.62437083468347  1.66666695689569 -1.70791917631763
 1  20.83067692119212  1.33119876077608  2.31857552635263
 1  22.14730262306231  1.53454392509251  1.21107776137614
 1  20.96567664616462  2.91018713591359  1.52404954165417

