%nproc=4
%Mem=2GB
# td=(NStates=1) CAM-B3LYP/6-31G(d,p) 

TD

0 1
12 -7.23487406040604  0.60594934303430  0.14405209260926
 6 -4.88228284628463 -1.85996717511751  0.55233176587659
 6 -4.71915184408441  2.85990443774377  1.04265062996300
 6 -9.35572030753075  3.02724822032203 -0.33256611631163
 6 -9.56700701440144 -1.66906241724172 -0.77285371447145
 7 -5.06089951455145  0.43363318141814  0.66280669896990
 6 -4.38458816491649 -0.65920574257426  0.67915593879388
 6 -2.98412741814181 -0.33387281298130  1.22829318351835
 6 -3.04717815621562  1.13846651495150  1.66694742544254
 6 -4.42504949984998  1.52084283308331  1.00403743364336
 6 -2.89512459455946  1.27810009810981  3.20244165306531
 6 -1.94063752475248 -0.71414667606761  0.07126108440844
 6 -0.42940036263626 -0.49699404660466  0.44989911921192
 6  0.50669180638064 -0.63385689858986 -0.55464084458446
 8  0.23306454655466 -0.89680508810881 -1.73273960566057
 8  1.78492030253025 -0.34116151255125 -0.20935772467247
 7 -7.07159760766077  2.58715430523052  0.23568226372637
 6 -5.99544882388239  3.29503047884788  0.68345187878788
 6 -6.36578383148315  4.72668695809581  0.71964265146515
 6 -7.69306201320132  4.80867149864986  0.32532092339234
 6 -8.11304557615762  3.46302549784978 -0.02719017271727
 6 -5.48351630833083  5.91311377727773  1.22772753325333
 6 -8.51272907050705  5.97304833853385  0.19619660506051
 6 -8.38311220252025  7.11663778237824  0.80864711451145
 7 -9.10488276087609  0.67518037913791 -0.45232926662666
 6 -9.84336059575958  1.76763671677168 -0.71244756885689
 6 -11.15706480308031  1.47128546764676 -1.13668538803880
 6 -11.24473687758776  0.06822218631863 -1.20835954995500
 6 -9.92296797749775 -0.33577555185519 -0.84053907000700
 6 -12.28042686638664  2.38838940994099 -1.40009678447845
 6 -12.38248279457946 -0.73994140424042 -1.73232404090409
 6 -12.18720620902090 -1.30364277547755 -3.24144926352635
 7 -7.17450691899190 -1.41999161276128 -0.20102477947795
 6 -8.34454469426943 -2.23290846294629 -0.49466442164216
 6 -7.85009115471547 -3.59823809130913 -0.52311958925893
 6 -6.49091297539754 -3.54815915291529 -0.17026875877588
 6 -6.14691728812881 -2.19456773807381  0.06554935913591
 6 -8.74520198759876 -4.71860470287029 -0.94701317971797
 6 -5.28015248554855 -4.38404228772877  0.20058293089309
 8 -5.21147998589859 -5.50936541994199  0.18192522322232
 6 -4.08805238463846 -3.22257804760476  0.53423328862886
 6 -3.57400803170317 -3.65612083338334  1.85151552445245
 8 -3.91739333993399 -3.07071380758076  2.92106478757876
 8 -2.79116030973097 -4.64806952935294  1.85034361526153
 6 -2.33509409730973 -5.28560278937894  3.09733466896690
 6  2.81440395209521 -0.54231202580258 -1.17754895529553
 6  4.09525161416142 -0.44418259455946 -0.53215336433643
 6  5.12783626802680  0.31287755315532 -0.83155292799280
 6  5.06360478347835  1.25901855115512 -2.07995216051605
 6  6.40418475127513  0.31877372757276 -0.08291477667767
 6  7.63509104700470 -0.28296864376438 -0.88204515501550
 6  8.85751762436244 -0.31873700410041 -0.04080589338934
 6  10.21503212771277 -0.59669674137414 -0.75570654115412
 6  10.02770947114711 -2.00974191029103 -1.36312977797780
 6  11.45715859275928 -0.38580236103610  0.02018288688869
 6  12.78025293299330 -0.53637768886889 -0.74992501540154
 6  14.01602107050705 -0.18058926172617  0.17385445294529
 6  15.36982310721072 -0.17235096419642 -0.54770301010101
 6  15.88879054795479 -1.60916855065507 -0.94612423012301
 6  16.37871197709771  0.50137449744974  0.37158166536654
 6  17.86282087148715  0.60512191059106 -0.20338615321532
 6  18.78385875537554  1.30207842484248  0.67486791979198
 6  20.25547421662166  1.44132446594659  0.22308707190719
 6  20.36023737753775  2.07029532673267 -1.12884387708771
 6  21.10922185298530  2.12808574487449  1.29732509590959
 1 -3.89574105860586  3.57174269566957  1.30374496139614
 1 -10.14824521722172  3.73838467346735 -0.54120951245125
 1 -10.37602089148915 -2.47623696449645 -1.10891754395440
 1 -2.81994845174518 -1.05072338623862  2.03625431663166
 1 -2.25199880508051  1.51615519811981  1.15098574897490
 1 -1.99240369786979  0.75289574247425  3.64222793629363
 1 -3.08326338633863  2.21695575307531  3.63739590499050
 1 -3.69002244494449  0.75196988098810  3.76921933473347
 1 -2.19100158505851 -1.70249020942094 -0.35177908710871
 1 -1.92195386788679 -0.05559830943094 -0.62140217981798
 1 -0.19882339973997  0.62431704560456  0.79824022312231
 1 -0.19179698169817 -1.36817133233323  1.15418937413741
 1 -5.69895867126713  6.66762540664066  0.69894560376038
 1 -5.82609959935994  6.12172553565357  2.36790308740874
 1 -4.33515747174718  5.75595676207621  1.17828100370037
 1 -9.41303335583558  5.80308645674567 -0.28074830303030
 1 -9.23479469536954  7.80089082798280  0.58710833263326
 1 -7.57047651345135  7.29246564606461  1.56005439093909
 1 -12.16183028812881  2.91167149314931 -2.41210421512151
 1 -13.08316798599860  1.85698959015902 -1.36617780928093
 1 -12.17822955405541  3.33622227692769 -0.65430667466747
 1 -12.60748552695270 -1.41763120822082 -0.88339329422942
 1 -13.36106482538254 -0.08415515231523 -1.81402693019302
 1 -12.94059041164116 -1.89272395859586 -3.58791867636764
 1 -12.11026459065907 -0.53948848644864 -3.88704219991999
 1 -11.18435471477148 -1.97529239633963 -3.21737035703570
 1 -9.09488909190919 -4.41706244914491 -1.88268153225323
 1 -8.09899926472647 -5.67299730393039 -0.95797541054105
 1 -9.80759064396440 -4.93106812811281 -0.36209803240324
 1 -3.30219091499150 -3.29662291299130 -0.20784605610561
 1 -1.53921208770877 -4.64696113581358  3.73114602990299
 1 -3.10889049764976 -5.35364698229823  3.65925876477648
 1 -1.87379549104911 -6.39291856505651  2.85738969186919
 1  2.77852715681568 -1.40644248014801 -1.80311427642764
 1  2.72562003960396  0.11261554115411 -1.91638479067907
 1  4.14848575417542 -0.93225544074407  0.52887610361036
 1  4.04336329982998  1.46250496089609 -2.42503087278728
 1  5.63859927162716  2.25955621452145 -1.93862033023302
 1  5.61101840944094  0.82157326482648 -3.04233296429643
 1  6.59781184408441  1.29519351935194  0.27831047384738
 1  6.22514663406341 -0.16860489788979  0.81424114081408
 1  7.33982136683668 -1.34570380558056 -1.29984130773077
 1  7.84406684258426  0.24889809790979 -1.83290621422142
 1  8.76206825842584  0.68782666766677  0.30566819901990
 1  9.00610909960996 -0.89336484268427  0.99970783448345
 1  10.51370892229223  0.05064760246025 -1.62334722422242
 1  9.11021600710071 -2.18468644514451 -1.92165809060906
 1  10.82700525622562 -2.20701748564856 -2.02511675557556
 1  10.11923480948095 -2.59473141514151 -0.48815825552555
 1  11.44070175107511  0.68472070227023  0.36176766426643
 1  11.55431848524853 -0.94769073037304  0.93466408800880
 1  12.94900821972197 -1.64261242244224 -1.06811447904790
 1  12.94636838933893 -0.07478678767877 -1.72539590089009
 1  13.69167060376038  0.66170872687269  0.54989233223322
 1  14.09226197929793 -0.94609421412141  0.92680919741974
 1  15.31846513501350  0.29293877887789 -1.60508486648665
 1  15.74987243014301 -2.18046833893389 -0.01257271117112
 1  15.32027507820782 -1.85369774537454 -1.88065548064806
 1  16.70661029042904 -1.49944546944694 -1.62126359585959
 1  15.86231143184318  1.45134296799680  0.81823836813681
 1  16.37710215741574 -0.17344651975198  1.34831759295930
 1  18.30806174487449 -0.60863741114111 -0.25319866026603
 1  17.99484654915492  1.11636895579558 -1.32745632143214
 1  18.34573536613661  2.24017817551755  0.95789379467947
 1  18.81571873217322  0.61061524252425  1.45345534583458
 1  20.63170808350835  0.34060020822082  0.15548261226123
 1  19.84052815941594  3.04332789468947 -0.98887248064807
 1  21.44274852695269  2.25118177097710 -1.15133649694969
 1  20.01348525292530  1.46349816061606 -1.93187015601560
 1  20.88531450665067  1.76719482858286  2.29144876207621
 1  22.20674238053805  2.08042927262726  1.07962292859286
 1  20.59641937183719  3.21974205750575  1.08717915841584

