%nproc=4
%Mem=2GB
# td=(NStates=1) CAM-B3LYP/6-31G(d,p) 

TD

0 1
12 -7.08034860786079  0.60954970307031  0.20617830523052
 6 -4.83946856485649 -1.91711288968897  0.33901043374337
 6 -4.68720864976498  2.86714516181618  1.28838520342034
 6 -9.41172590809081  3.03723921942194 -0.30235309500950
 6 -9.60457077077708 -1.80631614261426 -0.81194762386239
 7 -5.08943236783678  0.33556337443744  0.82219263756376
 6 -4.30417012311231 -0.69282910491049  0.69708773197320
 6 -2.90144915031503 -0.33489291499150  1.23127348154815
 6 -2.95389882828283  1.12657532583258  1.61577230793079
 6 -4.46642363726373  1.52587333613361  1.21867889778978
 6 -2.76071115321532  1.36521880998100  3.13796520542054
 6 -1.92491595259526 -0.67883314471447  0.00837479577958
 6 -0.52542996559656 -0.27620196739674  0.51794592389239
 6  0.53350448764876 -0.70130364326433 -0.52547792829283
 8  0.30660190029003 -1.12016742434243 -1.62959929162916
 8  1.81035284578458 -0.43055045144514 -0.19335612451245
 7 -7.00493094099410  2.54688027782778  0.44787348284829
 6 -6.05792507150715  3.34288526432643  0.83177671127113
 6 -6.34343159625963  4.74891918131813  0.80644133133313
 6 -7.63428613561356  4.79574020552055  0.28027641894189
 6 -8.08599287088709  3.39146834213421  0.07276982328233
 6 -5.53636159285929  5.93131559745975  1.08237299779978
 6 -8.55381317891789  5.96595762946295  0.05949293469347
 6 -8.44082797409741  7.12648876747675  0.67046329612961
 7 -9.17199947254725  0.63908676977698 -0.53732776647665
 6 -9.87472373207321  1.82048200130013 -0.61934825892589
 6 -11.24490358695870  1.50114845394539 -1.06470819031903
 6 -11.27366977087709  0.11469683378338 -1.28022673667367
 6 -10.00856653735373 -0.33793576787679 -0.84383940004000
 6 -12.32677150085008  2.45366593759376 -1.23253002780278
 6 -12.42306685298530 -0.79341675177518 -1.60209101760176
 6 -12.43019050745075 -1.03449586078608 -3.12127724632463
 7 -7.23503297159716 -1.43174278787879 -0.19203388038804
 6 -8.33180342014201 -2.26956212831283 -0.55430038523852
 6 -7.82960910651065 -3.57695596309631 -0.60143742104210
 6 -6.45184906900690 -3.47055139213921 -0.16463819571957
 6 -6.19613220962096 -2.13955223652365 -0.04926212201220
 6 -8.59124659205921 -4.87735057745775 -0.88594707310731
 6 -5.33900837113711 -4.30208409190919  0.20130300290029
 8 -5.15406424432443 -5.50646512991299  0.30170720142014
 6 -4.17191077047705 -3.29101489128913  0.49812967826783
 6 -3.59415004590459 -3.62126734803480  1.97151752465247
 8 -3.87592919351935 -3.07410414661466  3.04612729382938
 8 -2.67556875057506 -4.63837856025603  1.83221180208021
 6 -2.17756834473447 -5.16540076917692  3.04280921642164
 6  2.77415992769277 -0.69292708730873 -1.28042924332433
 6  4.24751684068407 -0.66319449574957 -0.73440358935894
 6  5.08300178457846  0.23685995139514 -1.12280205290529
 6  4.99010743374337  1.20632328162816 -2.37643180848085
 6  6.44344867766777  0.30848269846985 -0.36361284648465
 6  7.63295083298330 -0.27653800070007 -1.10130708120812
 6  8.88393026562656 -0.01971710211021 -0.20723253605361
 6  10.12516314081408 -0.64297136883688 -1.02209317981798
 6  10.02380908110811 -2.02560349644964 -1.62069553455346
 6  11.44984786168617 -0.30664444524452 -0.22297142854285
 6  12.83329823752375 -0.50898494959496 -0.88994901780178
 6  13.89268873727373 -0.12295349814982  0.02380944844484
 6  15.43278940384038 -0.27438116721672 -0.51608984878488
 6  15.82121379027903 -1.69771740554055 -0.79357897559756
 6  16.51458556445645  0.37792215221522  0.49698420562056
 6  17.85325991539154  0.52110350875088 -0.04588040264026
 6  18.71149151865187  1.24178239523952  0.91436186918692
 6  20.17948661786178  1.49092942644264  0.49951471467147
 6  20.36355770957096  2.21209950715072 -0.87294828752875
 6  21.01208213901390  2.08446138243824  1.52102746614661
 1 -4.00085156965697  3.68140366176618  1.35181976887689
 1 -10.02502289498950  3.88008884388439 -0.52122751425142
 1 -10.39096238563856 -2.78039738053805 -1.25625227742774
 1 -2.56443290019002 -0.93829214311431  2.13610430163016
 1 -2.19672327752775  1.50930451305131  0.88123877427743
 1 -1.69039349684969  1.15645609850985  3.38456216971697
 1 -2.74198925892589  2.30735479297930  3.46002816821682
 1 -3.46771021372137  0.82410709470947  3.61777419021902
 1 -2.05223770867087 -1.65791575197520 -0.27701161036104
 1 -2.10798247074707 -0.20003275287529 -0.85968600820082
 1 -0.38761227862786  0.75217983188319  0.81895229432943
 1 -0.56805460746075 -0.82848736393639  1.48965292049205
 1 -5.86609538493849  6.94366301040104  0.54741045024503
 1 -5.54998198759876  6.25076843994399  2.14639093619362
 1 -4.54227818381838  5.86871803820382  0.75337851345135
 1 -9.12672472497250  6.05545169326933 -0.90367059525953
 1 -9.32839405530553  7.89190992989299  0.28708833063306
 1 -7.64522398819882  7.16611301080108  1.29966835233523
 1 -12.26465057015702  3.26448677467747 -2.04058706340634
 1 -13.49126879607961  1.84618851005100 -1.44120531203120
 1 -12.46985871697170  3.05486414111411 -0.35519676367637
 1 -12.32416719511951 -1.74717416251625 -1.08634358925893
 1 -13.43465218411841 -0.39692642944294 -1.16478200570057
 1 -13.50996734933493 -1.55558024422442 -3.36269615411541
 1 -12.59065262946295 -0.24025856345635 -3.82676617231723
 1 -11.48164444374438 -1.60596546364636 -3.55826444644465
 1 -9.16919652265227 -5.03242398529853 -1.90541380548055
 1 -8.02609197399740 -5.92314231843184 -0.97640725372537
 1 -9.40091997689769 -5.14926994829483 -0.16423824642464
 1 -3.26703739963996 -3.45095834653465 -0.32691796329633
 1 -1.40107827432743 -4.44862130183018  3.27764067936794
 1 -3.08185779437944 -5.32047366496650  3.77430026892689
 1 -1.61060917241724 -6.10513978717872  2.63097705060506
 1  2.66173547764776 -1.81413324922492 -1.48683264826483
 1  2.80774825242524 -0.08021374177418 -2.04332748494849
 1  4.49845075067507 -1.18242045724572  0.26749996599660
 1  4.13003196669667  1.28631734213421 -2.88313668336834
 1  5.14327973967397  2.24440469936994 -1.98442491069107
 1  5.77861516911691  1.02243335083508 -3.03545227622762
 1  6.65637770067007  1.42762676267627  0.10398304110411
 1  6.24327844724472 -0.26178421582158  0.44099381608161
 1  7.54818220292029 -1.23150238543854 -1.40275159875988
 1  7.85318775467547  0.31145435353535 -1.95024794839484
 1  9.27756980858086  0.99967785278528 -0.04746711451145
 1  9.04190267896790 -0.60047555375538  0.82515037873787
 1  10.28099565096510  0.23844638233823 -1.88628351785178
 1  9.22112709820982 -2.30245822232223 -2.34198012281228
 1  10.98638119381938 -2.22208899279928 -2.09256350025003
 1  10.00604349034904 -2.58054999699970 -0.67262670237024
 1  11.37649533043304  0.65831806200620  0.10572205970597
 1  11.52086513991399 -0.78040400170017  0.79392001360136
 1  12.93925724462446 -1.70838900010001 -1.27281494909491
 1  12.74896864936494  0.24091478247825 -1.88832219351935
 1  13.94060549724972  0.87449000500050  0.40897824082408
 1  13.75783853695370 -0.74435404010401  0.97160367686769
 1  15.35270855935594  0.31802128712871 -1.43001735973597
 1  16.07870531343134 -2.34334462656266  0.18404695079508
 1  15.16682973367337 -2.24056643224322 -1.47301471657166
 1  16.92544217361736 -1.71862738763876 -1.09255072457246
 1  16.10072527322732  1.52186001970197  0.77432397669767
 1  16.59191363856386 -0.25034420952095  1.35041780298030
 1  18.42445338403840 -0.45130167756776 -0.27713105350535
 1  17.88159522402240  1.01532885178518 -0.92678625442544
 1  18.14586537913791  2.45041919961996  1.15847385268527
 1  18.56479363966397  0.68955313631363  1.97258725902590
 1  20.51718663136314  0.42978912711271  0.31494855885589
 1  19.78476258285828  3.29945350725072 -0.86928052145215
 1  21.43540779287929  2.21356800960096 -1.06857822112211
 1  19.71762566696670  1.68820063086309 -1.58969593859386
 1  21.02489846504650  1.56550465956596  2.49604922212221
 1  22.07038874517452  2.18526975667567  1.47890285658566
 1  20.80399012891289  3.18655873917392  1.77860830133013

