%nproc=4
%Mem=2GB
# td=(NStates=1) CAM-B3LYP/6-31G(d,p) 

TD

0 1
12 -7.12959353235324  0.65599434753475  0.03423111051105
 6 -4.91000561856186 -1.98488966736674  0.45012154485449
 6 -4.78388831773177  2.79813826112611  1.21653801870187
 6 -9.39123385888589  3.05048054355436 -0.45050791049105
 6 -9.52237255095510 -1.77697320832083 -0.83055948504850
 7 -5.16678010261026  0.40896071417142  0.74191460976098
 6 -4.41714142024202 -0.63517333933393  0.78121614481448
 6 -2.92954195959596 -0.39617904360436  1.32943329752975
 6 -3.05852929132913  1.07244991329133  1.78706943764376
 6 -4.39436643154315  1.56432718151815  1.18950598049805
 6 -3.03573865596560  1.27128941704170  3.38713012191219
 6 -1.97546100710071 -0.61355661706171  0.09873383168317
 6 -0.49029645224522 -0.33991833903390  0.66573070237024
 6  0.53222435963596 -0.70805431833183 -0.45131051155115
 8  0.27044828492849 -1.18225363296330 -1.55613194489449
 8  1.82187399789979 -0.45493288968897 -0.10000678957896
 7 -7.05889633753375  2.63591918171817  0.26470516601660
 6 -6.03905318431843  3.36293726952695  0.79184271787179
 6 -6.36436368946895  4.80849513891389  0.70333102030203
 6 -7.71718442544254  4.82215284678468  0.28314670597060
 6 -8.19870414201420  3.44596379167917  0.03352589888989
 6 -5.47373533023302  5.84004647054705  1.10411517201720
 6 -8.54046184378438  6.08578961266127  0.04379136453645
 6 -8.29324321562156  7.23268938753875  0.65039128892889
 7 -9.12026429902990  0.59762262336234 -0.51412544624462
 6 -9.77151341104110  1.76255620872087 -0.73901022512251
 6 -11.21354045064506  1.44472281138114 -1.12030374987499
 6 -11.36352875677568  0.12276764086409 -1.15448416241624
 6 -9.99196487718772 -0.41757373167317 -0.90349536563656
 6 -12.21523034673467  2.49169974097410 -1.44542131693169
 6 -12.33941848814881 -0.77368477857786 -1.62488329682968
 6 -12.32327981638164 -1.00239265046505 -3.21332645124512
 7 -7.24153362166217 -1.36747636123612 -0.28937361436144
 6 -8.21959219901990 -2.24297947004700 -0.71280623582358
 6 -7.77805395099510 -3.60923919141914 -0.56662393969397
 6 -6.42691657575758 -3.57975231223122 -0.25684741664166
 6 -6.18138073447345 -2.20340862216222  0.02006481068107
 6 -8.57052451985198 -4.82326516891689 -0.90157863626363
 6 -5.37080155045505 -4.38152203570357  0.15998887148715
 8 -5.27279611751175 -5.61298578197820  0.31200823152315
 6 -4.16144972437244 -3.25562135193519  0.56415628092809
 6 -3.61817244814481 -3.71327654895490  1.84882525542554
 8 -3.87461906250625 -3.09700643684368  2.90094277537754
 8 -2.86927812151215 -4.83820854325432  1.68757733863386
 6 -2.30839142704270 -5.34839906900690  2.84275921142114
 6  2.84445695739574 -0.69721751635164 -1.06666786718672
 6  4.12082417141714 -0.53807198349835 -0.45247539653965
 6  5.15431891629163  0.26344260966097 -0.81430120282028
 6  5.06264468746875  1.16656930623062 -2.11582574787479
 6  6.41577591039104  0.33039488968897 -0.07248373357336
 6  7.71132867076708 -0.07626797369737 -0.88120507100710
 6  8.90057192979298 -0.08063319371937 -0.12614442724272
 6  10.19015964046405 -0.48602567426743 -0.87528849934994
 6  10.22085878607861 -1.94325526162616 -1.27566103110311
 6  11.41598447534754 -0.06765054585459  0.00825169376938
 6  12.71996690439044 -0.35505955705571 -0.61080110301030
 6  13.93666313471347  0.00721951915192  0.26360342784278
 6  15.28942506740674 -0.08672240134013 -0.52040027982798
 6  15.65761743064306 -1.46623425722572 -0.94946456415642
 6  16.40724483038304  0.50837519751975  0.35491999919992
 6  17.82793738313831  0.67034843324332 -0.26773258785879
 6  18.92114248374838  1.30643886088609  0.75746617961796
 6  20.29865853505351  1.22881321482148  0.11472623582358
 6  20.34409576337634  1.88844714191419 -1.23620461316132
 6  21.27895882668267  1.79028196449645  1.09641500490049
 1 -4.03299478397840  3.48388390979098  1.81136572347235
 1 -9.93902429512951  3.77450828582858 -0.67637302880288
 1 -10.31606489588959 -2.52236157695770 -1.07504415661566
 1 -2.67646410331033 -1.05509382328233  2.19044973617362
 1 -2.14173777897790  1.64676825942594  1.21301195159516
 1 -1.94828928642864  0.99557000990099  3.68568228172817
 1 -3.25905096509651  2.37928198569857  3.69459162456246
 1 -3.59873331603160  0.45766045004500  3.80383279607961
 1 -2.02187467236724 -1.53644360476048 -0.32525643484348
 1 -2.21380305280528  0.01204845524552 -0.50426046564656
 1 -0.24507802520252  0.75543015691569  1.08889928902890
 1 -0.29823762576258 -0.69264377957796  1.73880783598360
 1 -5.59171794719472  6.58636728082808  0.45404111331133
 1 -5.68510549994999  6.22121548464847  2.12337863496350
 1 -4.45603955995599  5.58804997139714  1.16620979657966
 1 -9.35558761126113  6.00654680278028 -0.70259048724872
 1 -9.04634585048505  7.94509524842484  0.31947156895690
 1 -7.67818728452845  7.50980738023802  1.39458784428443
 1 -11.79053315841584  2.91543186918692 -2.38695169986999
 1 -13.00721039023902  1.82458634983498 -1.73863505500550
 1 -12.40970270137014  3.32537119181918 -0.81940318431843
 1 -12.29636441484148 -1.81213065816582 -1.16630158505851
 1 -13.30830954985498 -0.54545128192819 -1.33887941544154
 1 -12.95544189678968 -1.83284797099710 -3.53196308080808
 1 -12.51680524472447 -0.18838337593759 -3.82418591429143
 1 -11.47892417171717 -1.57132199929993 -3.44519313931393
 1 -8.80083968696870 -4.73972471537154 -2.02023528762876
 1 -7.98596796159616 -5.61403140734073 -0.84674428742874
 1 -9.59802968786879 -4.84209923122312 -0.43873569616962
 1 -3.68919961586159 -3.36546979767977 -0.26317158865887
 1 -1.77338550505051 -4.61902834253425  3.43769668496850
 1 -2.95494510311031 -5.71918353595360  3.56683952285228
 1 -1.87404551605161 -6.24829410261026  2.53896784968497
 1  2.39469877397740 -1.63142497839784 -1.33630759575958
 1  2.61718919651965 -0.32178789918992 -2.08256140834083
 1  4.24366527212721 -1.15078729392939  0.47370058605861
 1  3.95454441794179  1.06009471987199 -2.29983835353535
 1  5.36373178487849  2.27066732563256 -2.06086255445545
 1  5.77691499909991  0.74607571507151 -2.90909964096410
 1  6.41934399729973  1.31336533653365  0.19600224302430
 1  6.39909402880288 -0.40020805820582  0.66771648834883
 1  7.48035542024202 -1.13663289848985 -1.19157048064806
 1  7.77891032693269  0.71814502260226 -1.73021594519452
 1  9.18652070367037  0.91884976997700  0.22563019521952
 1  8.91060954965497 -0.82408791499150  0.86385424912491
 1  10.14930248164816  0.17199973767377 -1.96461135063506
 1  9.44264925042504 -2.43380135663566 -1.83414933973397
 1  11.37394995069507 -2.03266004990499 -1.73884812871287
 1  10.50298318431843 -2.63664560656066 -0.27363680338034
 1  11.21883956485649  0.95162739293929  0.29215070257026
 1  11.29183223662366 -0.67275323662366  0.86614723632363
 1  12.74051737063706 -1.33278143934393 -1.09979764736474
 1  12.70550430293029  0.27231792279228 -1.52824618591859
 1  14.03467490419042  1.07071962796280  0.72626996999700
 1  14.10811356445645 -0.66998660336034  1.23186970347035
 1  15.29589287778778  0.54836432143214 -1.51970632863286
 1  16.04039148204820 -2.18734902700270  0.06124467056706
 1  14.85348839953996 -1.95105748134814 -1.36391380648065
 1  16.51735136453646 -1.54687021192119 -1.56915838533853
 1  16.02441764246425  1.46857469116912  0.68105464976498
 1  16.58314276147615 -0.02456163126313  1.39815257645765
 1  18.33373431213121 -0.31623817121712 -0.81649498989899
 1  17.86538360286029  1.37225454435444 -1.10659423522352
 1  18.61413220582058  2.21020517821782  1.03104110941094
 1  18.82874003430343  0.90367454845485  1.62430243054305
 1  20.39757467016702  0.07523367156716  0.03242030603060
 1  20.06566067266726  3.08589215111511 -1.21396498989899
 1  21.25370962306231  2.04383103590359 -1.65588695199520
 1  19.91127503190319  1.53128493929393 -2.24178114711471
 1  21.02388836403640  1.39729783888389  2.13507312451245
 1  22.27256896319632  1.65183641334133  0.74560952725273
 1  20.97710744064407  2.92132221552155  1.24035447594759

