%nproc=4
%Mem=3GB
# td=(NStates=1) iop(3/107=0140000000,3/108=0140000000) CAM-B3LYP/6-31G(d,p) 

TD

0 1
12 -7.06263095479548  0.59874825832583  0.04592096209621
 6 -4.89895871237124 -1.93101033163316  0.44495989838984
 6 -4.71573760436044  2.80216893479348  1.12568267346735
 6 -9.35720248474848  3.13366091909191 -0.44494696999700
 6 -9.58618471647165 -1.63374514021402 -0.79659646454645
 7 -5.07481451265127  0.44276036663666  0.73390121412141
 6 -4.34620686798680 -0.72903404660466  0.74372226692669
 6 -2.91585780638064 -0.46144454245425  1.16338200730073
 6 -2.93440666756676  1.06890559215922  1.67534381368137
 6 -4.33324355905591  1.50351500260026  1.18658305220522
 6 -2.66843302410241  1.31787460676068  3.09796511111111
 6 -1.94743047274727 -0.82710870007001  0.04163797409741
 6 -0.45832154135414 -0.53327657565757  0.41712509480948
 6  0.47477940114011 -0.88051467336734 -0.64860465056506
 8  0.25435565236524 -1.34271804950495 -1.72551994509451
 8  1.77938653705371 -0.64865480388039 -0.21989737733773
 7 -7.04494213761376  2.60087329722972  0.26541746584658
 6 -5.97211735553555  3.40005377277728  0.74141001710171
 6 -6.26007091549155  4.74190105370537  0.71941019971997
 6 -7.64246903220322  4.87017882308231  0.28122424882488
 6 -8.04369389688969  3.48632557135714 -0.01370337173717
 6 -5.41129316321632  5.87187666136614  1.06803695889589
 6 -8.44980498849885  6.05402567216722  0.13051366386639
 6 -8.27371578157816  7.29400855055505  0.65163922322232
 7 -9.07342638373837  0.66170316471647 -0.50718729262926
 6 -9.84007149344934  1.86871019531953 -0.64877769126913
 6 -11.17125107780778  1.65702514701470 -0.98619347904790
 6 -11.34312379957996  0.27364491029103 -1.10437046534653
 6 -9.98996660026003 -0.30206039943994 -0.73670587188719
 6 -12.27447838553855  2.65062030343034 -1.17531698439844
 6 -12.53173696659666 -0.58807493129313 -1.69373870447045
 6 -12.39803171207121 -1.05279547184718 -3.06216686788679
 7 -7.19745270767077 -1.38572340804080 -0.20665334043404
 6 -8.33186751305131 -2.22196074157416 -0.49702128202820
 6 -7.88335037483748 -3.55860641204120 -0.58683898369837
 6 -6.45522331283128 -3.55349833193319 -0.18794087578758
 6 -6.21859559125913 -2.18730668646865  0.07147898329833
 6 -8.65171751125112 -4.75921201960196 -0.83709709280928
 6 -5.32653811671167 -4.39172273567357  0.22372734683468
 8 -5.07829882218222 -5.62068892589259  0.09230517911791
 6 -4.18344284688469 -3.28453590099010  0.53122144374437
 6 -3.53508768556856 -3.73700164286429  1.76820278877888
 8 -3.77853063646365 -3.16391374927493  2.89980333853385
 8 -2.75531088388839 -4.80694931343134  1.68900793829383
 6 -2.23564252125213 -5.38776398229823  2.88448584898490
 6  2.82542886328633 -0.86856514541454 -1.11383490069007
 6  4.07306819201920 -0.50613588148815 -0.41085364816482
 6  5.06069156045605  0.27951447944794 -0.88513139013901
 6  4.97788151375137  1.09988766406641 -2.31366550155016
 6  6.49393567226723  0.44532514851485 -0.11711223562356
 6  7.61652310491049 -0.17451599959996 -0.89527985668567
 6  8.93841155275527 -0.07089890599060 -0.01608771117112
 6  10.21622708330833 -0.51738340154015 -0.82999871987199
 6  10.01477475407541 -2.03353123302330 -1.28869583558356
 6  11.39475413921392 -0.24459935103510  0.14778681618162
 6  12.74686242174218 -0.33740377387739 -0.58780628572857
 6  13.94405567736774  0.03747803350335  0.23141955355536
 6  15.32361835283528 -0.13579266286629 -0.42382803530353
 6  15.55000127112711 -1.65848423672367 -0.93319514581458
 6  16.45603259595959  0.38443496079608  0.42382711741174
 6  17.64641222892289  0.60526425602560 -0.25073160016002
 6  18.73321373997399  1.21111919041904  0.74055731243124
 6  20.10786359075908  1.39546897939794  0.23108981498150
 6  20.28522136793680  2.32521982708271 -1.04342903880388
 6  21.12910797779778  1.97576927682768  1.21908584858486
 1 -4.06671703520352  3.48005125652565  1.56558265406541
 1 -10.11205332863286  3.91645391989199 -0.69685421162116
 1 -10.28625304940494 -2.39193472857286 -0.96642446184618
 1 -2.86955424262426 -0.93366356905691  2.21760825152515
 1 -2.33776724302430  1.66036809790979  0.92415606460646
 1 -1.69423250965096  0.91724083048305  3.39102944034403
 1 -2.65683279237924  2.29894911771177  3.29904792699270
 1 -3.22923572407241  0.75839099339934  3.89040072527253
 1 -2.11497661666167 -1.77657832863286 -0.36348435553555
 1 -2.17685405440544 -0.15224760496050 -0.79738647324733
 1 -0.53042847154715  0.45733532083208  0.88714257725773
 1 -0.26340476077608 -1.41221198779878  1.17412087038704
 1 -5.80191436913691  6.64388190019002  0.63286311761176
 1 -5.53706517781778  6.10976385778578  2.10237224972497
 1 -4.35091993659366  5.70896516451645  0.90524125672567
 1 -9.22124238403840  5.92967634963496 -0.46843819651965
 1 -8.94474353805380  8.08302802380238  0.20653042874287
 1 -7.51690962306231  7.52876971337134  1.40167912821282
 1 -12.08526899989999  3.42620176727673 -2.00873670517052
 1 -13.30218751645164  2.06368511091109 -1.32517824602460
 1 -12.21080211291129  3.22940027412741 -0.17026746624662
 1 -12.79909187408741 -1.30214113691369 -0.93495699659966
 1 -13.33225552465247 -0.00432314281428 -1.32268802320232
 1 -13.15655085428543 -1.86532019411941 -3.24189514761476
 1 -12.62707311301130 -0.38666713801380 -3.84904388278828
 1 -11.45570040944094 -1.56272729992999 -3.27450572877288
 1 -9.08658327692769 -4.48929543034303 -1.96217228022802
 1 -8.09073345854585 -5.61443739703970 -0.87756771187119
 1 -9.45949012801280 -4.86923537193719 -0.49470173887389
 1 -3.35191270977098 -3.22598920452045 -0.10867860596060
 1 -1.52488587618762 -4.55368758215822  3.17847956555656
 1 -2.89552598989899 -5.66926645154515  3.59450048774877
 1 -1.66313683418342 -6.31159194399440  2.66191955305531
 1  2.93941199599960 -1.95878250105010 -1.54407585628563
 1  2.60726716801680 -0.30801271647165 -2.08984004150415
 1  4.15483597029703 -0.62006041984198  0.78936033623362
 1  3.96733204470447  1.24350989368937 -2.57152763846385
 1  5.41653858605861  2.15546597049705 -2.07641507990799
 1  5.70619018751875  0.60792198309831 -2.94250050695070
 1  6.72721090499050  1.36787676827683  0.34658427232723
 1  6.28830670277028  0.11421408470847  0.81425762126213
 1  7.51591371417142 -1.24436510951095 -1.00812556975698
 1  7.98251080958096  0.33639274227423 -1.88483930683068
 1  9.22815886018602  0.88310780828083  0.37579000710071
 1  8.83987710851085 -0.57862621532153  0.82166829022902
 1  10.25864049584959  0.15447159495950 -1.80697585558556
 1  9.36067567666767 -2.18214649814981 -2.12631101300130
 1  11.09079822042204 -2.62247564686469 -1.48176353445345
 1  9.46351854895490 -2.67399151385139 -0.38039543324332
 1  11.15763740534053  0.83469990339034  0.53825159595960
 1  11.24730232573257 -0.99397069466947  1.14548086818682
 1  12.78826677917792 -1.34956237553755 -0.78563083458346
 1  12.69339516941694  0.32389732573257 -1.43181751545155
 1  13.88704012431243  1.25728109140914  0.44187901660166
 1  13.90435874647465 -0.69041542044204  1.13759613361336
 1  15.27176757815782  0.51412480948095 -1.37034830363036
 1  15.66112990979098 -2.22149149034904  0.04281614611461
 1  14.73693533793379 -1.75545006500650 -1.65492686618662
 1  16.52448072767277 -1.80394129112911 -1.30458697199720
 1  16.24676795029503  1.38364669836984  0.88634455075508
 1  16.54687876567657 -0.40922720752075  1.17785628032803
 1  17.85464220192019 -0.35871238523852 -0.60810100570057
 1  17.43921123072307  1.26774566866687 -1.02644838843884
 1  18.35615467236724  2.14551581958196  0.93031497829783
 1  18.63133909640964  0.63279811931193  1.64347759325933
 1  20.56596642894290  0.42108310591059 -0.01099520732073
 1  20.08611543004301  3.35781655815582 -0.82168435313531
 1  21.33564736553656  2.20997213931393 -1.41433941514151
 1  19.41539993759376  2.35662595279528 -1.82193057745775
 1  21.12646650015001  1.40922656355636  2.06295996479648
 1  22.06287418021802  2.33775424612461  0.89394604820482
 1  20.58081816031603  3.02006812401240  1.62875001170117

