%nproc=4
%Mem=3GB
# td=(NStates=1) iop(3/107=0140000000,3/108=0140000000) CAM-B3LYP/6-31G(d,p) 

TD

0 1
12 -7.12976766846685  0.61248963246325  0.03857022702270
 6 -4.86074489098910 -1.89073630423042  0.41535693809381
 6 -4.78019405000500  2.84763348124812  1.33034313951395
 6 -9.47491425592559  3.09057661066107 -0.28372084738474
 6 -9.52497859585959 -1.72942470817082 -1.07562436733673
 7 -5.09875690689069  0.45559164976498  0.67613543754375
 6 -4.29172141944194 -0.68534967816782  0.70100799549955
 6 -2.94370059065907 -0.38826722472247  1.20439610871087
 6 -3.05686891379138  1.12084078567857  1.73984026332633
 6 -4.36411664636464  1.56573122422242  1.18210260416042
 6 -3.01262744354435  1.24559737903790  3.17196251085109
 6 -1.94003973367337 -0.54221021022102  0.09799360966097
 6 -0.50968667786779 -0.42224547254725  0.61899528182818
 6  0.57404932813281 -0.75515213711371 -0.48781857195720
 8  0.26772698949895 -1.15535931363136 -1.56478387148715
 8  1.83706230463046 -0.51480141854185 -0.10607599519952
 7 -7.17048469186919  2.58111132103210  0.48891981608161
 6 -6.10036017981798  3.29855362276228  0.79522539863986
 6 -6.40456536493649  4.72002886648665  0.83600185888589
 6 -7.69391417671767  4.86145795099510  0.28139426582658
 6 -8.15131465896590  3.51138807760776  0.06835483408341
 6 -5.53868590249025  5.98133760746075  1.24874502970297
 6 -8.57086709470947  5.98332860246025  0.14657527002700
 6 -8.50660907090709  7.23488263796380  0.75017907720772
 7 -9.13451249234923  0.68891588598860 -0.64934150805081
 6 -9.88022550885088  1.82346567086709 -0.70589340284028
 6 -11.23904785748575  1.42252169666967 -1.20859571927193
 6 -11.27357684488449  0.10451799759976 -1.38240826912691
 6 -9.94784238783878 -0.38376857025703 -0.96341854315432
 6 -12.38778971667167  2.48957419881988 -1.30398985168517
 6 -12.39906369926993 -0.80466659045905 -1.77712704330433
 6 -12.24258616751675 -1.04726491879188 -3.30997164836484
 7 -7.27719068146815 -1.38382321802180 -0.17956063116312
 6 -8.17720204650465 -2.17306585208521 -0.60868244814481
 6 -7.81719375917592 -3.55896644804480 -0.52644294409441
 6 -6.51423921442144 -3.53662664476448 -0.14176625832583
 6 -6.07594132583258 -2.14679263506351  0.00553238863886
 6 -8.58844118361836 -4.76063216161616 -0.88564194729473
 6 -5.32542800570057 -4.30833439683968  0.25567054115412
 8 -5.19800079237924 -5.49728658565857  0.22419836843684
 6 -4.25534003660366 -3.21159860726073  0.64322264386439
 6 -3.52145632243224 -3.66659460216022  1.97564353285329
 8 -3.74678746214621 -3.14325168306831  3.02473583178318
 8 -2.78724407720772 -4.78718733723372  1.70848988648865
 6 -2.20031898889889 -5.34667987388739  2.95860326072607
 6  2.91592791319132 -0.68176646554655 -1.15357887508751
 6  4.18252913811381 -0.42960822872287 -0.51466402920292
 6  5.12364785608561  0.30683721172117 -0.97240011701170
 6  5.15772949854985  1.23744141944194 -2.14310844584458
 6  6.38837511621162  0.38592920892089 -0.15711623602360
 6  7.64388584118412 -0.26130467846785 -0.95839616831683
 6  8.90402811441144 -0.20198201430143 -0.14561066346635
 6  10.24570003060306 -0.63583524672467 -0.89235495549555
 6  10.17754103070307 -2.08830671057106 -1.33215018101810
 6  11.45429009280928 -0.33041793289329 -0.06782474497450
 6  12.85484321982198 -0.37384741824182 -0.77745525062506
 6  13.91306257805780 -0.03040875517552  0.21381779337934
 6  15.28853484448445 -0.25219430303030 -0.45006065856586
 6  15.61576784778478 -1.73299168746875 -0.79992181848185
 6  16.44640163286329  0.39890640794079  0.44317905260526
 6  17.86117370507051  0.41907563716372 -0.13407993499350
 6  18.73890430903090  1.42927100560056  0.67045030173017
 6  20.15992879727973  1.40063949644964  0.12967967396740
 6  20.34356720252025  2.19400670577058 -1.21988668456846
 6  21.21166623362336  1.78908060796080  1.23374731473147
 1 -4.15837620112011  3.49908315971597  1.82515861166117
 1 -10.12159428272827  4.03302557705771 -0.43238776497650
 1 -10.20673509760976 -2.38620415551555 -1.34350216961696
 1 -2.64739202640264 -0.94921512421242  1.87764425512551
 1 -1.91600506680668  1.56625868696870  1.50418406740674
 1 -1.95626871327133  1.03187229362936  3.66748708610861
 1 -3.30054716381638  2.18862808560856  3.66612463466347
 1 -3.83478627912791  0.50629578387839  3.63337502270227
 1 -2.02594771377138 -1.48352902370237 -0.17960596769677
 1 -1.94011038003800  0.21983960376038 -0.75763249784978
 1 -0.41458688738874  0.41884147144714  0.97885174817482
 1 -0.32175059535954 -1.07009777637764  1.60093355165517
 1 -5.76378055575558  6.86286379837984  0.73184301560156
 1 -5.44111558285829  6.20327320872087  2.40943295579558
 1 -4.36378122272227  5.69978424642464  0.97971870447045
 1 -9.09918017781778  6.01021440344034 -0.93806515921592
 1 -9.21063012671267  8.10154987598760  0.41683145884589
 1 -7.80995892799280  7.60850768716872  1.64388334863486
 1 -12.12457293029303  3.46086523362336 -1.99731556305631
 1 -13.09601689938994  2.03348209060906 -1.94456018421842
 1 -12.46739777247725  2.85662299639964 -0.29105954545455
 1 -12.36752871777178 -1.66471739453945 -1.12978647954795
 1 -13.50480277937794 -0.32689540004000 -1.55805155955596
 1 -13.14557975717572 -1.69649331143114 -3.28581954005401
 1 -12.37299770547055 -0.10420889218922 -3.75947492589259
 1 -11.41073591299130 -1.61375240244024 -3.63185146334633
 1 -8.95026964556456 -4.93763026382638 -1.88517458045805
 1 -7.89386377157716 -5.51057701100110 -0.68536849194919
 1 -9.42348652765277 -4.97423587198720 -0.05841811051105
 1 -3.34952247074708 -3.50656726232623 -0.19435717381738
 1 -1.84244763236324 -4.51622383578358  3.63944566216622
 1 -3.03557999529953 -6.01687121202120  3.70695173287329
 1 -1.46974749524953 -5.97135792059206  2.43558691979198
 1  2.77484553935394 -1.73633025582558 -1.41016246494649
 1  2.73492993429343 -0.06434835003500 -2.03773483098310
 1  4.30089057575758 -1.05781419521952  0.28764016421642
 1  4.16589190069007  1.28013355605561 -2.64095458115812
 1  5.67141407360736  2.17769819371937 -2.25464290269027
 1  5.65664523302330  0.55815700660066 -3.01004726162616
 1  6.55605378927893  1.43046302690269  0.23342295619562
 1  6.12828070017002 -0.01924926162616  0.83491968746875
 1  7.33923604640464 -1.37560823382338 -1.22499725692569
 1  7.81195375387539  0.33054215721572 -1.72646346924692
 1  9.22806885118512  0.76419591709171  0.15825825392539
 1  8.68923204400440 -0.71384973767377  0.79685580898090
 1  10.32917754955496  0.11504765256526 -1.71257641564156
 1  9.32365197429743 -2.23619190269027 -2.00164854675468
 1  11.02288142874288 -2.33041644094409 -2.02001735983598
 1  10.18175037213721 -2.77725183988399 -0.45392278597860
 1  11.20574221582158  0.64973140654065  0.33052082288229
 1  11.51325892139214 -1.02792409000900  0.77314363446345
 1  12.89219717221722 -1.43462088138814 -0.97822009350935
 1  12.90779660956096 -0.00442550655066 -1.68330266396640
 1  13.83141456175618  1.07088245154515  0.60111494019402
 1  13.83363167376738 -0.65168154705471  1.04006638063806
 1  15.50924132553255  0.33162655965597 -1.54051532033203
 1  15.72988678547855 -2.18786812801280  0.05819768426843
 1  14.80289193359336 -1.85310983098310 -1.52689406290629
 1  16.74925320492049 -1.80457135413541 -1.26401291459146
 1  16.15115838933893  1.40789912361236  0.73261917821782
 1  16.42839691749175 -0.19989627442744  1.36933542824282
 1  18.11674841254126 -0.67754426842684  0.02605240964096
 1  17.86129343894390  0.95649454355436 -1.26750249384938
 1  18.40319937683768  2.60159142714271  0.74588653545355
 1  18.60897686018602  1.02702754225422  1.64417766326633
 1  20.62680251255126  0.34503550115011 -0.05883999179918
 1  20.23148996749675  3.39171994849485 -1.11377356205621
 1  21.43515731653165  2.09824096619662 -1.62718069926993
 1  19.64079247684769  1.89834012421242 -1.99971835623562
 1  21.28170202370237  1.29632527342734  2.01346501530153
 1  22.39211710451045  1.73471394209421  0.93371002460246
 1  21.07999807830783  2.89167528472847  1.45334247094710

