%nproc=4
%Mem=3GB
# td=(NStates=1) iop(3/107=0140000000,3/108=0140000000) CAM-B3LYP/6-31G(d,p) 

TD

0 1
12 -7.15657034873487  0.62284066756676  0.20997736773677
 6 -4.86574539103910 -1.97614484508451  0.48341374377438
 6 -4.70259629022902  2.81325004290429  1.19526963216322
 6 -9.33936070057006  3.07654520752075 -0.35098757405741
 6 -9.49636573457346 -1.80161192689269 -0.84775158005801
 7 -5.09347637883788  0.39206529712971  0.93087091109111
 6 -4.34967721502150 -0.69660080328033  0.89229712441244
 6 -2.89134535513551 -0.43266166416642  1.16383205230523
 6 -2.93817704460446  1.04196289788979  1.64899117841784
 6 -4.32083231793179  1.48108275937594  1.20427482138214
 6 -3.00885706650665  1.08475129442944  3.23873918851885
 6 -1.88139386908691 -0.56898288748875  0.02796660696070
 6 -0.54020973017302 -0.37334058205821  0.36828021032103
 6  0.52803472667267 -0.57805442734273 -0.72251204130413
 8  0.12438265506551 -0.79180295799580 -1.91944933803380
 8  1.72642124052405 -0.39969990839084 -0.28530391799180
 7 -7.09211685508551  2.60328353825383  0.34646557065707
 6 -5.98750889468947  3.37567133453345  0.69397527362736
 6 -6.31366627502750  4.77924478807881  0.70870912961296
 6 -7.61857664296430  4.78974077927793  0.28822494889489
 6 -8.12079160666067  3.49900683948395  0.01128912751275
 6 -5.48761079497950  5.92016148984898  1.17814796999700
 6 -8.49330933893389  5.95464573417342  0.16341695419542
 6 -8.36383479347935  7.23841299099910  0.66808086738674
 7 -9.04600364146415  0.56016301070107 -0.51469804370437
 6 -9.75985347164716  1.76869019331933 -0.64701751525153
 6 -11.10470442314232  1.42527197169717 -1.14828968866887
 6 -11.26314580178018  0.04462200800080 -1.33366339463946
 6 -9.83280088368837 -0.42542273567357 -0.89559176047605
 6 -12.13263420112011  2.50209545094509 -1.29985943864386
 6 -12.38092188508851 -0.79614573837384 -1.79641897249725
 6 -12.15300720962096 -1.13172336463646 -3.30124077527753
 7 -7.23925688808881 -1.39886472217222  0.01398872377238
 6 -8.22822714901490 -2.17666621212121 -0.48278985888589
 6 -7.82628466826683 -3.54991554295430 -0.55861616141614
 6 -6.45016280678068 -3.64808779087909 -0.13758584028403
 6 -6.21843557525753 -2.21789974577458  0.21142297769777
 6 -8.73746608610861 -4.71096719511951 -0.83840722382238
 6 -5.35718118101810 -4.41424498789879  0.10840581468147
 8 -5.14085507780778 -5.65284214121412  0.08829477807781
 6 -4.21611611421142 -3.34398184558456  0.61674999659966
 6 -3.66846102290229 -3.74841278397840  1.98886485498550
 8 -3.79788257165717 -3.23940129802980  3.05435879407941
 8 -2.83490884368437 -4.76622524102410  1.78421745924592
 6 -2.16369532653265 -5.09737494339434  2.96483388378838
 6  2.84705102550255 -0.52790107900790 -1.15268878607861
 6  4.19967085228523 -0.33392866076608 -0.53837640044004
 6  5.17727321862186  0.52376890489049 -0.99662253925393
 6  5.09075280088009  1.44387206250625 -2.26635077007701
 6  6.44095037373737  0.63973458945895 -0.25330585498550
 6  7.54286573917392  0.00549200120012 -1.04080440914091
 6  8.80485819741974 -0.10199201530153 -0.21100720312031
 6  10.09168462906291 -0.56647831103110 -0.91286700670067
 6  10.03466674327433 -2.01105898579858 -1.37496446244624
 6  11.33086775057506 -0.25358024912491 -0.02072003450345
 6  12.69373710921092 -0.52566259975998 -0.71796930203020
 6  13.90857212901290 -0.01555727002700  0.20930734233423
 6  15.25843183418342 -0.21103018661866 -0.35044069656966
 6  15.53359963096310 -1.70321871017102 -0.77446927322732
 6  16.39122611531153  0.28406492379238  0.49592432713271
 6  17.84366195389539  0.42285601520152 -0.10895742274227
 6  18.81227164576458  1.12340041854185  0.75091834853485
 6  20.29699250365037  1.25182461496150  0.24430113611361
 6  20.25119796559656  1.96672397749775 -1.12062675857586
 6  21.16309137613761  1.95993769366937  1.27863180318032
 1 -4.01918228172817  3.57612086348635  1.65607170297030
 1 -10.34885700900090  3.74571684618462 -0.83049757595760
 1 -10.01378580268027 -2.56329186428643 -1.04568238763876
 1 -2.50429771697170 -1.12076227892789  1.91169766046605
 1 -2.25803927022702  1.76169823092309  1.23017666666667
 1 -2.01590467686769  0.67116622302230  3.68159849724973
 1 -3.50514762386239  1.89268849164916  3.56105412761276
 1 -3.71906470697070  0.31940709500950  3.68908059325932
 1 -1.97663278227823 -1.67454812561256 -0.38851685878588
 1 -2.16883325232523  0.17102472227223 -0.72159889448945
 1 -0.12349777847785  0.57064665196520  0.77513137613761
 1 -0.25409382968297 -1.06608737533753  1.04587804610461
 1 -5.48967314501450  7.07764527652765  0.70429026032603
 1 -5.71710318161816  6.09448232963296  2.25322733523352
 1 -4.30054489908991  5.78749301730173  0.84548528112811
 1 -9.48342860266026  5.62022540454045 -0.18052940564056
 1 -8.85646471017102  8.16969669066907  0.17968774447445
 1 -7.34983291539154  7.38507534393439  1.15797475777578
 1 -11.93436390939094  3.26665581268127 -2.01163699519952
 1 -13.17677497519752  2.09802854525453 -1.51407713591359
 1 -12.20028106080608  2.87305463956396 -0.25274571407141
 1 -12.34684664956496 -1.82315323812381 -1.29728322922292
 1 -13.35847814691469 -0.29168187868787 -1.55216097049705
 1 -12.98879407860786 -1.88887254935494 -3.47267822592259
 1 -12.23671407710771 -0.19431790309031 -3.59291827022702
 1 -11.19090392979298 -1.49404043124312 -3.16479475767577
 1 -9.02728734733473 -4.61755825662566 -1.84138020102010
 1 -8.17575196039604 -5.62745869916992 -0.78692864796480
 1 -9.70816499549955 -4.56391483988399 -0.07354962366237
 1 -3.26988450695070 -3.24918152375238 -0.09732747084709
 1 -1.36629001660166 -4.36650886428643  3.14965668326833
 1 -2.82530896819682 -5.19530905580558  3.73734477217722
 1 -1.65258577907791 -5.95622640744074  2.62244560566057
 1  2.90415847064707 -1.57125374817482 -1.55387683638364
 1  2.51999844114411  0.00575866066607 -2.14893595109511
 1  4.11897238393839 -0.94751316511651  0.30036143634363
 1  4.14862017351735  1.23450899359936 -2.60447093279328
 1  5.26523345554555  2.45483590749075 -1.75956339473947
 1  5.84532410091009  0.96575776667667 -2.89759601650165
 1  6.66041422532253  1.59236921752175  0.05307492139214
 1  6.22368024012401 -0.24677201390139  0.56242243774377
 1  7.16622874567457 -1.11920259325933 -1.41079583678368
 1  7.68544110261026  0.43734283728373 -2.01875269816982
 1  8.91033707800780  0.80207970547055  0.14742717081708
 1  8.66172929372937 -0.66783513621362  0.65396151955196
 1  10.24013864566457  0.03412956075608 -1.73237839583958
 1  9.26426603570357 -2.33319160266027 -2.05913429532953
 1  10.88887802840284 -2.15886928622862 -1.89311466956696
 1  9.86417861496150 -2.55201931663166 -0.48074546824683
 1  11.19978161976197  0.90650708410841  0.42761053185319
 1  11.26854444994500 -0.82725402300230  0.99828614871487
 1  12.82021997449745 -1.52499991929193 -0.98381065256526
 1  12.59862569246925 -0.07480254425443 -1.57785211891189
 1  13.73653507380738  0.96608197149715  0.39750457915792
 1  13.99525783638364 -0.70015639453945  1.18735110911091
 1  15.49640004140414  0.40799419641964 -1.17944921372137
 1  15.51946574337434 -2.41342068326833  0.15640750525053
 1  14.77016866126613 -1.94733925392539 -1.59703107660766
 1  16.43624190379038 -1.84340523752375 -1.10986750005000
 1  16.22510578407841  1.15775410911091  0.96925284158416
 1  16.27802187998800 -0.33681996679668  1.31748024272427
 1  18.46238297599760 -0.52717923192319 -0.34671486708671
 1  17.88440575017502  0.83704259835984 -1.11483722732273
 1  18.14642369926993  2.02206347434743  1.09555150195019
 1  18.79807577007701  0.75270010951095  1.76508975447545
 1  20.62932276457646  0.17995899349935  0.16611250345034
 1  19.89704652315232  3.06300707720772 -0.81545373007301
 1  21.21889569036904  2.11512265436544 -1.51304928612861
 1  19.73910230783078  1.34962525272527 -1.84436282068207
 1  21.15131898539854  1.70887652855286  2.37531119991999
 1  22.25409330213021  1.70271074177418  1.02211886548655
 1  20.96779685818582  3.02677879507951  1.09094623132313

