%nproc=4
%Mem=2GB
# td=(NStates=1) CAM-B3LYP/6-31G(d,p) 

TD

0 1
12 -7.17964853785378  0.60988973707371  0.06661434883488
 6 -4.88944356235624 -1.92950412881288  0.51958849154915
 6 -4.82641257015702  2.84315276257626  1.15582194709471
 6 -9.39802453795379  3.07772326782678 -0.40622348204820
 6 -9.59488980268027 -1.78362387338734 -0.77934436353635
 7 -5.18846227082708  0.45896571467147  0.71831224952495
 6 -4.35518522462246 -0.69359918191819  0.84690271347135
 6 -2.87374638003800 -0.31587101280128  1.24044439863986
 6 -3.05664910331033  1.16917958625863  1.64739547024703
 6 -4.45554254915491  1.52370311911191  1.07533456335634
 6 -2.85655073717372  1.27545983408341  3.15643705260526
 6 -1.92993645464546 -0.61015627702770  0.00936489478948
 6 -0.54958238083808 -0.36682102930293  0.51360548984899
 6  0.51213235043504 -0.64649816271627 -0.56442182268227
 8  0.15836707680768 -1.14445985358536 -1.67407373907391
 8  1.80442225272527 -0.50214761116112 -0.19904669356936
 7 -7.02742319021902  2.56001159095910  0.31782047754775
 6 -5.99281856085609  3.40827180298030  0.73483701730173
 6 -6.36077333043304  4.79361365076508  0.67372806000600
 6 -7.71452415941594  4.82439307080708  0.30718911021102
 6 -8.13857812941294  3.46272546784678  0.09224177047705
 6 -5.43433138983898  5.81400386628663  1.13706846734673
 6 -8.47882568016801  6.03042407610761  0.32732971837184
 6 -8.31179507080708  7.13146926552655  0.98581483128313
 7 -9.21121339393939  0.71217407850785 -0.51282531623162
 6 -9.97370363006300  1.78469842294229 -0.68062438653865
 6 -11.26460555715571  1.44037237633763 -1.18302002150215
 6 -11.24883728762876  0.06552191629163 -1.22087080108011
 6 -9.90205588628863 -0.46427840214021 -0.89819483558356
 6 -12.31183000670067  2.49450002100210 -1.52683945874587
 6 -12.26354090039004 -0.83620103020302 -1.72823363186319
 6 -12.01629911831183 -1.12557496869687 -3.28472359095910
 7 -7.24850431873187 -1.44785439903990 -0.16723140014001
 6 -8.37355759555956 -2.22379755185519 -0.53051800700070
 6 -7.97398354395440 -3.65448371587159 -0.39606688398840
 6 -6.53392727682768 -3.58652298929893 -0.08401013291329
 6 -6.26284888128813 -2.21497977927793  0.11796460066007
 6 -8.73136060346035 -4.87923076547655 -0.70332881128113
 6 -5.41330580088009 -4.42627651115111  0.11933480608061
 8 -5.22445128302830 -5.58203268666867  0.24712174287429
 6 -4.25154873427343 -3.33927971777178  0.62954281958196
 6 -3.52328295919592 -3.68081330263026  1.95929630253025
 8 -3.72099369997000 -3.08892562876288  3.00601328242824
 8 -2.77007820152015 -4.75385010741074  1.73486206710671
 6 -2.21237182508251 -5.09155338443844  2.96768170367037
 6  2.78729124082408 -0.54148194279428 -1.24658585898590
 6  4.14803689268927 -0.37957613391339 -0.52727287628763
 6  5.14087757215722  0.39296556195620 -1.03611338403840
 6  5.13019144214421  1.20196284558456 -2.29998416371637
 6  6.41755608840884  0.42888473867387 -0.30252673787379
 6  7.69624716261626 -0.11406175307531 -1.11585853635364
 6  8.90395226782678 -0.10265539593959 -0.26772858565857
 6  10.17057768226823 -0.49277634933493 -0.97983895439544
 6  10.18166486668667 -1.87836877297730 -1.41543500850085
 6  11.36770964786479 -0.24242802360236 -0.03946307770777
 6  12.89562447014701 -0.49526357745775 -0.59258928182818
 6  14.02717218561856 -0.14026522932293  0.27073414091409
 6  15.28616474137414 -0.13639736883688 -0.44706294609461
 6  15.74894656355636 -1.58089572337234 -0.77385700340034
 6  16.44227833373337  0.40980534053405  0.56122062926293
 6  17.84795938533853  0.40829222762276 -0.08964477907791
 6  18.76350672017202  1.30641885888589  0.75701613461346
 6  20.27694636383638  1.35775610911091  0.19714447764776
 6  20.39200055385539  2.06755505270527 -1.08343933663366
 6  21.21626255705571  1.93777671397140  1.30315567896790
 1 -4.20180166466647  3.54693021442144  1.41585617251725
 1 -10.05667606030603  3.84739557455746 -0.61632702420242
 1 -10.27460074947495 -2.43946328712871 -0.97353400560056
 1 -2.53330978787879 -0.94869318321832  2.10643133433343
 1 -2.26426003120312  1.99178276087609  1.27318796919692
 1 -2.00035449294930  0.54013446634663  3.50313402690269
 1 -2.88607366736674  2.22639669716972  3.64848701410141
 1 -3.59722316501650  0.77520220422042  3.52515492829283
 1 -2.01423390829083 -1.54883484388439 -0.35843975317532
 1 -2.13436510901090  0.12227947834783 -0.84353439303930
 1 -0.44429794719472  0.62945755965597  0.74271467056706
 1 -0.26244404640464 -1.08810332553255  1.34219817501750
 1 -5.78232700810081  6.75239388348835  0.55652136133613
 1 -5.47719470887089  6.12457582068207  2.23981027812781
 1 -4.46462041804180  5.64690585698570  0.65736891249125
 1 -9.52743479597960  6.17901404950495 -0.29250947914791
 1 -8.78770998689869  8.18102884178418  0.88368799059906
 1 -7.31060052585259  7.06071247074707  1.72637102260226
 1 -11.91366547164717  3.16305663166317 -2.26488949364937
 1 -13.45809547874787  2.07298118931893 -1.88980017151715
 1 -12.69718144924492  3.06509516421642 -0.71584282828283
 1 -12.61557633603361 -1.63383282838284 -1.13285824072407
 1 -13.25531425032503 -0.35779251605161 -1.65839136663666
 1 -12.87597394999500 -1.66888157435744 -3.87046693119312
 1 -11.82847641184118 -0.35315985358536 -3.84166766246625
 1 -11.27101338063807 -2.13284815191519 -3.38913753375337
 1 -9.36360596359636 -4.73546428932893 -1.72387565166517
 1 -8.06908627342734 -5.68066807100710 -0.73731334433443
 1 -9.38282816771677 -4.99239426072607  0.08006618401840
 1 -3.57274797069707 -3.57947119781978 -0.25286055755576
 1 -1.32245041154115 -4.49747618731873  3.47970088538854
 1 -2.84567417601760 -5.44668628622862  3.78485132403240
 1 -1.74138224972497 -6.05984525772577  2.45560951385138
 1  2.71982128622862 -1.53405524142414 -1.66988095309531
 1  2.53362083968397  0.04944922452245 -2.08303145534553
 1  4.47131803740374 -0.76219843504350  0.26821003700370
 1  4.30224918841884  1.12449115951595 -2.90927929762976
 1  5.41281669336934  2.23971423032303 -2.33425989418942
 1  5.97199450705071  0.86608771627163 -3.10872960396040
 1  6.80584264716472  1.38109210921092  0.02542518531853
 1  6.37964208360836 -0.04189222662266  0.69712942964296
 1  7.38060544524452 -1.08325756095610 -1.47964928852885
 1  7.76752918881888  0.50923413151315 -1.91863478707871
 1  8.85914796639664  0.67022490749075  0.30144777697770
 1  8.79663815251525 -0.99379488568857  0.51103896759676
 1  10.40549810121012  0.20691322902290 -1.96491138063806
 1  9.11635662116212 -2.27245522202220 -1.92249817461746
 1  11.06338889458946 -2.10545732963296 -2.43970821472147
 1  10.36713959996000 -2.63153509550955 -0.65977541724172
 1  11.44004168506851  0.69949217941794  0.28992047954795
 1  11.39299235263526 -0.75734169546955  0.96184680628063
 1  12.98400171907191 -1.64664282548255 -0.80634830243024
 1  12.90510426292629  0.30204089508951 -1.45942930423042
 1  13.90813224992499  0.94201675767577  0.38593593659366
 1  14.06490924402440 -0.77200680538054  1.08729524602460
 1  15.23606689518952  0.63214269926993 -1.25272963096310
 1  15.72683012591259 -2.11284157625763  0.08710725682568
 1  14.96879993069307 -2.12635501110111 -1.38824623972397
 1  16.74297392679268 -1.84725024992499 -1.21364283378338
 1  15.96746194689469  1.31306914061406  0.99284582888289
 1  16.32799724692469 -0.28954812991299  1.40009277047705
 1  18.14962590129013 -0.56278282568257 -0.29840318071807
 1  17.73822088658866  0.95950326922692 -1.12026560236024
 1  18.36169696229623  2.19028318601860  0.85987399269927
 1  18.82159932023202  1.01514569556956  1.84189418971897
 1  20.31528644134413  0.19825597379738  0.10071713571357
 1  20.03525763236324  3.19273283518352 -0.82672626602660
 1  21.46644089618962  1.99162581538154 -1.68508987228723
 1  19.47720162456246  1.60935274607461 -1.76869383838384
 1  21.37563353855386  1.23462157125713  2.11062067926793
 1  22.23347505380538  1.92621385108511  0.83365833213321
 1  20.83738346824683  3.01757184048405  1.47647808830883

