%nproc=4
%Mem=2GB
# td=(NStates=1) CAM-B3LYP/6-31G(d,p) 

TD

0 1
12 -7.18039861286129  0.57613636173617  0.11078876627663
 6 -4.83843846184618 -1.89318049644965  0.44515104780478
 6 -4.76115604450445  2.87865631293129  1.07956432133213
 6 -9.38087282278228  3.03009850535053 -0.35820868056806
 6 -9.44754506820682 -1.72682819381938 -0.87886431553155
 7 -5.06957038163816  0.50231004910491  0.64877529582958
 6 -4.35486519261926 -0.62867268926893  0.72592061526153
 6 -2.97962696809681 -0.36457588328833  1.21952230643064
 6 -3.10172361076108  1.04848751705171  1.76727745844584
 6 -4.35624261916192  1.53478422722272  1.07141417131713
 6 -3.08727380948095  1.18558084618462  3.23099450835084
 6 -1.87885134613461 -0.54795005640564  0.09101305960596
 6 -0.38792621522152 -0.31892623982398  0.52658678797880
 6  0.57293843104310 -0.73036654955496 -0.62729811031103
 8  0.18227946804680 -1.20266567416742 -1.72934926662666
 8  1.78057986848685 -0.62703009940994 -0.14193098199820
 7 -7.09505995389539  2.65373096289629  0.37209590509051
 6 -6.01462074107411  3.41117209300930  0.70811434503450
 6 -6.42672992609261  4.75939022842284  0.68998968616862
 6 -7.73479618661866  4.83985461696170  0.42242063336334
 6 -8.13823809540954  3.43732292759276  0.09646219251925
 6 -5.42294025072507  5.86705917181718  0.98305306580658
 6 -8.52839063666367  6.00514154785479  0.20288727412741
 6 -8.52492638393839  7.20144626322632  0.88485473527353
 7 -9.07944021662166  0.72660552165217 -0.48167220092009
 6 -9.93102936263626  1.83412336543654 -0.65701202530253
 6 -11.18481757835784  1.47867620672067 -1.13142486198620
 6 -11.18943134703470  0.04468983308331 -1.21447016101610
 6 -9.91826750745074 -0.32478445274527 -0.85138015411541
 6 -12.17964678837884  2.45185575657566 -1.36578335313531
 6 -12.41371591789179 -0.71140855095510 -1.74071487998800
 6 -12.35239272767277 -1.05108751995200 -3.25924104270427
 7 -7.28143761206121 -1.35474508810881 -0.11799647664766
 6 -8.26589682948295 -2.24198937103710 -0.52216717191719
 6 -7.78505465106511 -3.69096736423642 -0.52566984428443
 6 -6.44376826092609 -3.52302663966397 -0.11842357425743
 6 -6.17957055345535 -2.11562984428443  0.01906471067107
 6 -8.66945441284128 -4.76483932633263 -0.83477195559556
 6 -5.26815128542854 -4.35581946544654  0.18088096069607
 8 -5.21865070297030 -5.51428591199120  0.04312134283428
 6 -4.15558913831383 -3.33487927772777  0.50583044834483
 6 -3.61787241814181 -3.76615183648365  1.90843121602160
 8 -3.64305590619062 -3.05855259145915  2.92146482758276
 8 -2.77167836153615 -4.81522624502450  1.78391697259726
 6 -2.17009759765977 -4.99853408250825  3.14451938743874
 6  2.74211672337234 -0.87673546814681 -1.17719892029203
 6  4.10478256725673 -0.59079725602560 -0.49430957995800
 6  5.05633911831183  0.27831409680968 -0.98254802750275
 6  4.99625804880488  1.07154980428043 -2.17431159645965
 6  6.39163349614962  0.39027087728773 -0.21172765796580
 6  7.52483002090209 -0.16929727662766 -0.99766671717172
 6  8.90580245284528 -0.12209734013401 -0.27038885168517
 6  10.29639026352635 -0.56270334203420 -0.89207017751775
 6  10.21194789498950 -2.08603954005401 -1.31012447744774
 6  11.44527740464046 -0.22259604040404  0.02564343294329
 6  12.78197310501050 -0.42128617971797 -0.71444146704670
 6  14.04391385978598 -0.06458766156616  0.10781784928493
 6  15.37525365026503 -0.15451918101810 -0.53142138193819
 6  15.67638930783078 -1.71296893069307 -0.84565418311831
 6  16.47547165306531  0.36316067606761  0.42145665286529
 6  17.89603419281928  0.58202960136014 -0.16910272487249
 6  18.84317468696870  1.22755097209721  0.72977341034103
 6  20.23106177537754  1.47587792129213  0.25827059025903
 6  20.23719507330733  2.16001429862986 -1.07258825152515
 6  21.07358828962897  2.07083001930193  1.36306166956696
 1 -3.86671815631563  3.62498802020202  1.07852243914391
 1 -10.01349174187419  3.90270110511051 -0.55693108460846
 1 -10.12985627502750 -2.54433377417742 -1.37731438363836
 1 -2.87518397529753 -0.98331664556456  2.14028471967197
 1 -2.22562616781678  1.81715529812981  1.40954160456046
 1 -2.13566802430243  0.68275872877288  3.60084379787979
 1 -3.30892595259526  2.06179023652365  3.84329649504950
 1 -3.73423686638664  0.52802748674867  3.92521493429343
 1 -2.03618610351035 -1.58399836023602 -0.28135204440444
 1 -2.08838051055106  0.02310956135614 -0.56511655125513
 1 -0.25164868226823  0.63523813771377  0.87180757985799
 1 -0.05619342134214 -1.24142865806581  1.42178613381338
 1 -5.59620839623962  6.87089573367337  0.38358406760676
 1 -5.38871586098610  6.04906826992699  2.00388668576858
 1 -4.53990794679468  5.56429759615962  0.76300947654765
 1 -9.14015606810681  5.72399854795480 -0.86924715291529
 1 -9.27361857775777  7.93889462836284  0.77908753055305
 1 -7.80287975377538  7.34742114161416  1.71632001750175
 1 -12.07761186628663  3.03954428042804 -2.12486549124913
 1 -13.33419308850885  2.21136502770277 -1.44616580808081
 1 -12.24024575567557  3.06710536523652 -0.64134537853785
 1 -12.50396517491749 -1.57282672777278 -1.08755371027103
 1 -13.38095681458146 -0.23897063386339 -1.68138366586659
 1 -13.12539889248925 -1.67340202640264 -3.79131901640164
 1 -12.29916348054805 -0.07153169076908 -3.94931842754275
 1 -11.32372865216522 -1.33612847994799 -3.52057067706771
 1 -9.15384498749875 -4.82253299619962 -1.84334759885989
 1 -8.07438680348035 -5.86783678787879 -0.75737535053505
 1 -9.57610749564956 -4.73929895119512 -0.19261108370837
 1 -3.34584528042804 -3.43445669636964 -0.28309358085809
 1 -1.58186635313531 -4.05655209490949  3.55896881218122
 1 -2.87377698629863 -5.37702932053205  3.73621646054605
 1 -1.38495660716072 -5.88040731393139  2.99994394729473
 1  2.68979828392839 -1.92951478737874 -1.47920188518852
 1  2.64019149674967 -0.32634835523552 -1.98962211441144
 1  3.89073997959796 -1.01963417861786  0.65925914191419
 1  3.82187115061506  1.20051876227623 -2.42374074377438
 1  5.26245165686569  1.97934819371937 -1.82125859405941
 1  5.53510081768177  0.62607371487149 -2.98361709270927
 1  6.49106116901690  1.47324132413241 -0.24194155135514
 1  6.28961308070807 -0.17494553195320  0.72610232693269
 1  7.46573395809581 -1.03300253545355 -1.24759608320832
 1  7.57875031093109  0.43509671777178 -1.90442336593659
 1  8.91904395599560  0.83759164416442  0.05052268446845
 1  8.73711219991999 -0.71122662886289  0.75641350505051
 1  10.60482803420342  0.23451598929893 -1.72271716121612
 1  9.62964795029503 -2.26708468496850 -2.22559848464846
 1  11.20380293599360 -2.43748053195320 -1.74984922882288
 1  10.04949783578358 -2.59607154915492 -0.41128056775678
 1  11.32413009390939  1.08124035423542 -0.00467898039804
 1  11.47436048944894 -0.68859482078208  0.98767938953895
 1  12.86418973787379 -1.57025518671867 -1.16285395299530
 1  12.68147189968997  0.21267195819582 -1.63393675497550
 1  14.04850628732873  0.92305486148615  0.64817216021602
 1  14.07473022612261 -0.74095370007001  0.99934645114512
 1  15.26923021152115  0.37672715771577 -1.57381173917392
 1  15.92680012291229 -2.23187347944794  0.10020856695670
 1  14.78636168686869 -2.31026340194019 -1.25553296839684
 1  16.39525915531553 -1.69216474137414 -1.70301177067707
 1  16.15366056675667  1.40027786148615  0.72570911521152
 1  16.31664611181118 -0.03139231433143  1.62823558475848
 1  18.18730966966697 -0.50696724412441 -0.20607394779478
 1  17.74199126362636  0.95777309620962 -1.01693526932693
 1  18.42139293189319  2.08629278697870  1.14551255655566
 1  19.01541870217022  0.73917809880988  1.72360236053605
 1  20.80558547124712  0.52578872707271 -0.17508044404440
 1  19.82047615421542  3.24927848974897 -0.82433602700270
 1  21.32631688378838  2.49291594439444 -1.43581494479448
 1  19.79276318071807  1.63437524832483 -1.74013098209821
 1  20.89037501270127  1.45672378147815  2.18999861706171
 1  22.12047375367537  2.21398262796280  1.00416538283828
 1  20.63877360726073  3.20623070637064  1.40965140564056

