%nproc=4
%Mem=3GB
# td=(NStates=1) iop(3/107=0140000000,3/108=0140000000) CAM-B3LYP/6-31G(d,p) 

TD

0 1
12 -7.10839553125313  0.65279366286629 -0.00692432243224
 6 -4.90244906140614 -1.93338056865687  0.59859526192619
 6 -4.69357538813881  2.86096481438144  1.27521762696270
 6 -9.27523428792879  3.07123467646765 -0.40076255155516
 6 -9.55270136813681 -1.86091785748575 -0.92793959885989
 7 -5.08640567176718  0.46065215581558  0.64365218921892
 6 -4.35805805310531 -0.75811695489549  0.84485237993799
 6 -2.93484970557056 -0.40734913291329  1.27825349444945
 6 -3.03072629952995  1.05127382898290  1.68221450075008
 6 -4.33719395409541  1.54478913001300  1.13066746064606
 6 -3.00401658245825  1.15894871417142  3.20407572217222
 6 -1.89525525522552 -0.56909289848985  0.07964177447745
 6 -0.48986469566957 -0.51718496649665  0.46952033433343
 6  0.54168609180918 -0.66572319421942 -0.67396718681868
 8  0.21628184498450 -1.05126890459046 -1.84994238733873
 8  1.82061065946595 -0.49524946334633 -0.19959534713471
 7 -6.97967561096110  2.64348755865587  0.33382430653065
 6 -6.01066120992099  3.39618338573857  0.89146502260226
 6 -6.27980288868887  4.74532139573957  0.89713797249725
 6 -7.69438422372237  4.84248605380538  0.51751787818782
 6 -8.04437396489649  3.53997093589359  0.03263126172617
 6 -5.44887692159216  5.94890436413641  1.31210136533653
 6 -8.58540854885488  6.00166043564356  0.12228284078408
 6 -8.52502091209121  7.20776992669267  0.70132419171917
 7 -8.99679872097210  0.66627362176218 -0.57994456835684
 6 -9.76718420472047  1.82361568586859 -0.69351216471647
 6 -11.17968192089209  1.50091953645365 -1.19607446714671
 6 -11.14380386758676  0.13143068886889 -1.31367139543954
 6 -9.78560616421642 -0.35629582298230 -0.90953315461546
 6 -12.18961989968997  2.45520076147615 -1.43107255995600
 6 -12.39758355125513 -0.79265538933893 -1.62226155675568
 6 -12.18241014991499 -1.19428962126213 -3.15765641684168
 7 -7.24253721612161 -1.43390822652265 -0.13531620672067
 6 -8.30515484178418 -2.35477402290229 -0.52979455935594
 6 -7.85752779257926 -3.62590314171417 -0.57137743754375
 6 -6.52545033553355 -3.60121310341034 -0.14193627532753
 6 -6.28080181188119 -2.20303825962596  0.01778361376138
 6 -8.61817415691569 -4.84765086348635 -0.91123450655065
 6 -5.39010447334733 -4.32837640104010  0.23830880498050
 8 -5.10702169446945 -5.52139899689969  0.25533148174817
 6 -4.23619812241224 -3.33010045744574  0.66142446404640
 6 -3.59497367416742 -3.71456939963996  2.02453842234223
 8 -3.74337712111211 -3.06890424832483  3.03915727392739
 8 -2.79349470227023 -4.69271789028903  1.81785082258226
 6 -2.20188914591459 -5.39361456735674  2.95449284968497
 6  2.84503082348235 -0.76257454635464 -1.23392690989099
 6  4.11771265646565 -0.39535480338034 -0.67472003480348
 6  5.12742823412341  0.45354188218822 -1.16702957995800
 6  4.93332705830583  1.22739041434143 -2.40890502550255
 6  6.28798507720772  0.67306792279228 -0.32005252965297
 6  7.57802925552555  0.10502195419542 -1.04567489618962
 6  8.77697540914091  0.12403058695870 -0.23494959735974
 6  10.13633909450945 -0.32016367956796 -0.93234895489549
 6  9.99269254585458 -1.89257713761376 -1.15298226422642
 6  11.35808047184718 -0.09045393649365 -0.01186914941494
 6  12.73390112561256 -0.44133416691669 -0.72443994909491
 6  13.88914018581858  0.08024230993099  0.19254566616662
 6  15.33639963096310 -0.20054913851385 -0.48064371687169
 6  15.64747101810181 -1.62680106840684 -0.84441626792679
 6  16.43265025772577  0.32150866816682  0.52940767546755
 6  17.80839842754276  0.32200593019302 -0.08055458245825
 6  18.84402482108211  1.07577565606561  0.79264252095210
 6  20.23903670807081  1.10486991949195  0.21702840884088
 6  20.28139098489849  2.10162746784678 -0.96616131203120
 6  21.21912697969797  1.59013071297130  1.26444038403840
 1 -3.97667803130313  3.51916516791679  1.62866896269627
 1 -9.99211133443344  4.00616289078908 -0.42552707890789
 1 -10.40237466156616 -2.50674620972097 -1.00568838823882
 1 -2.56177346454646 -0.93216341904190  2.16905339603960
 1 -1.91003446974697  1.61669373047305  1.30868451745175
 1 -2.00362344874488  1.02296140254025  3.41707204460446
 1 -3.38006511561156  2.11120034283428  3.68829685188519
 1 -3.59982278277828  0.39351450575058  3.63283496869687
 1 -1.92721784078408 -1.68955962676268 -0.32281028812881
 1 -2.21165753475348  0.08234585438544 -0.82735947054706
 1 -0.40686611531153  0.47349693699370  1.12194605760576
 1 -0.22468088838884 -1.33775454205421  1.14633809210921
 1 -5.65812999069907  6.69688720072007  0.31933176447645
 1 -5.58524999629963  6.22880576197620  2.21648366086609
 1 -4.35183002760276  5.74723899189919  1.42831356395640
 1 -9.33715397519752  5.76279966196620 -0.61248260096010
 1 -9.27668673237324  8.04366408740874  0.41759153485349
 1 -7.75699363146315  7.39232606900690  1.33431239153915
 1 -11.94428490149015  3.49491863896390 -2.11011684318432
 1 -13.10845814351435  1.99982872527253 -1.93278900710071
 1 -12.41058209090909  3.00271760586059 -0.56947738723872
 1 -12.34017598249825 -1.71186210901090 -1.04575807670767
 1 -13.26489878897890 -0.06697940844084 -1.46858261266127
 1 -13.13409860906091 -1.87806146824682 -3.32534349244925
 1 -12.21340174587459 -0.55283375467547 -4.04624360276028
 1 -11.36436127552755 -1.88105913311331 -3.25316359455946
 1 -9.67764238283828 -4.77699420022002 -1.67992405540554
 1 -7.89572395759576 -5.72856881018102 -1.21759171427143
 1 -9.28647282628263 -5.38057650605060  0.29318705000500
 1 -3.31384890339034 -3.31791839743974 -0.14967270537054
 1 -1.59413280088009 -4.81091330473047  3.38056977457746
 1 -2.92872931023102 -5.66297582248225  3.76831786948695
 1 -1.59227974847485 -6.13352413721372  2.40342370347035
 1  2.85754380918092 -1.78912553535354 -1.42578402710271
 1  2.59638607990799 -0.29151106630663 -2.14569562706271
 1  4.29410989768977 -0.78918733253325  0.44020542074207
 1  3.91106641814181  1.23390893359336 -2.77204769046905
 1  5.00742767496750  2.26285670957096 -2.31679911831183
 1  5.83401296979698  1.00796198709871 -3.26587284418442
 1  6.45123330723072  1.76369635023502 -0.13420380648065
 1  6.42423029512951  0.17842050535053  0.68853504900490
 1  7.43665578837884 -0.92990366336634 -1.29489424662466
 1  7.87795035353535  0.62647175017502 -2.09271009390939
 1  8.95794183848385  1.26987648514852  0.03571599969997
 1  8.57597071787179 -0.44847320002000  0.61323744714471
 1  10.34455908770877  0.17578372617262 -1.81409656765677
 1  8.98745835493549 -2.06643492699270 -1.68648703060306
 1  10.61067020762076 -2.33817721702170 -1.99110446854685
 1  10.14106630373037 -2.52522663736374 -0.13788118181818
 1  11.33720536213621  1.00541697509751 -0.00820304950495
 1  11.38602619811981 -0.57586888448845  0.95017133723372
 1  12.81217917041704 -1.48502592189219 -0.79244151565157
 1  12.73961979187919  0.06122105810581 -1.65003933763376
 1  13.82668408870887  1.12489785308531  0.37565239393939
 1  13.86494480508051 -0.34478085698570  1.19669204320432
 1  15.36424682608261  0.37110050705071 -1.37285855465547
 1  15.55375917271727 -2.33962330353035  0.12588445294529
 1  14.92062370677068 -2.16786130613061 -1.61430280378038
 1  16.55780406000600 -1.81124202120212 -1.38244475777578
 1  16.01297457095709  1.39752808650865  0.65440135643564
 1  16.50874495229523 -0.19525581038104  1.43739223392339
 1  17.97376411411141 -0.65232174617462 -0.44579477507751
 1  17.78819612921292  1.10309920402040 -1.00125586918692
 1  18.56651570847085  1.97624889288929  1.02194414121412
 1  18.89256521902190  0.40387522702270  1.64780802630263
 1  20.27586741904191  0.14818581618162 -0.31494560236024
 1  19.97620443894390  3.29616039253925 -0.65078726342634
 1  21.21841564236424  2.39253039513951 -1.30151813301330
 1  19.80441883948395  1.85963625382538 -1.94097248164816
 1  21.10753460696069  0.90273591449145  2.28415208400840
 1  22.12582047484748  1.53173364406441  1.07080373397340
 1  21.12977305580558  2.66419253645365  1.56022315901590

