%nproc=4
%Mem=2GB
# td=(NStates=1) CAM-B3LYP/6-31G(d,p) 

TD

0 1
12 -7.14122469546955  0.54664341244124  0.07746543394339
 6 -4.86693131113111 -2.04805598399840  0.40899743244324
 6 -4.71305123402340  2.80222867016702  0.96560292519252
 6 -9.33354809030903  3.10809630513051 -0.38261112081208
 6 -9.59284959865987 -1.76570208120812 -0.86852328142814
 7 -5.10079350395039  0.33176299439944  0.64137455575558
 6 -4.32061176727673 -0.79808963096310  0.77010503370337
 6 -2.91962096749675 -0.44944437013701  1.24622497669767
 6 -2.98420185858586  1.03295596389639  1.66936766746675
 6 -4.32457945284528  1.39680042884288  1.11944897479748
 6 -2.94252933503350  1.08258054615462  3.18419982888289
 6 -1.95908936993699 -0.70471573297330  0.08133209150915
 6 -0.54499192179218 -0.51269561676168  0.54833896319632
 6  0.47889902710271 -0.69561307420742 -0.58845422592259
 8  0.14177541764176 -1.01751715931593 -1.68511484318432
 8  1.71313312381238 -0.35624302070207 -0.29713650255026
 7 -7.02168261616162  2.56428201800180  0.35007370287029
 6 -5.88560783978398  3.30005098089809  0.62213574717472
 6 -6.31904915801580  4.77647193659366  0.65032571977198
 6 -7.62877558455846  4.81757238873887  0.25699409070907
 6 -8.02594686628663  3.45941513681368 -0.02600005370537
 6 -5.41037899459946  5.87171963786379  1.12078683918392
 6 -8.45179297689769  5.96570760446045  0.20514750015001
 6 -8.27294118541854  7.05828194679468  0.82770902070207
 7 -9.11260353295330  0.64446730783078 -0.46252028572857
 6 -9.81886814651465  1.81899185228523 -0.64194051815182
 6 -11.14718381498150  1.49180751985199 -1.13559527902790
 6 -11.26494889878988  0.11298666276628 -1.24149286328633
 6 -9.93246892759276 -0.35982795709571 -0.83433844994499
 6 -12.26862568626863  2.61930250125013 -1.34561133593359
 6 -12.40255480178018 -0.71273868396840 -1.72408321682168
 6 -12.34194168256826 -0.96730914211421 -3.25703082168217
 7 -7.20714018231823 -1.38460807440744 -0.24766944394439
 6 -8.33419365916592 -2.19911508360836 -0.55394034923492
 6 -7.91070721632163 -3.66295456295630 -0.53121039833983
 6 -6.62917680178018 -3.52892722972297 -0.03087481938194
 6 -6.19806240264026 -2.26954523582358  0.09362216641664
 6 -8.72833030043004 -4.85184802720272 -0.65069354775478
 6 -5.40753522382238 -4.31943582708271  0.30445331793179
 8 -5.32174101200120 -5.58700318371837  0.39518654935494
 6 -4.18769234863486 -3.44658044784478  0.66769663496350
 6 -3.60161079197920 -3.76513173447345  1.93370374327433
 8 -3.80780238083808 -3.15838257445745  2.93289597069707
 8 -2.64665585928593 -4.78560328272827  1.76981556245625
 6 -2.09480006790679 -5.18359258835884  3.06867180268027
 6  2.77741025272527 -0.53305109970997 -1.25569677007701
 6  4.07711980098010 -0.31405958225823 -0.57251740074007
 6  5.01952543694369  0.43108937433743 -1.06739651235124
 6  4.90825924892489  1.23980662996300 -2.44157832313231
 6  6.40531486428643  0.52852470267027 -0.32146863206321
 6  7.64785232313231 -0.00215056195620 -1.13326027652765
 6  8.91228310091009  0.15174004360436 -0.06671848464846
 6  10.27180780528053 -0.45145221692169 -0.81659262976298
 6  10.10206690689069 -1.85416635273527 -1.16743020802080
 6  11.49272214911491 -0.13007678847885  0.04467533613361
 6  12.77478238593859 -0.54194824592459 -0.70660068296830
 6  13.94237370577058 -0.07697890069007  0.12636970447045
 6  15.41452757765777 -0.21437516661666 -0.53798203800380
 6  15.69030069896990 -1.63689132293229 -0.83938355605561
 6  16.46609071497150  0.36347070707071  0.47759226642664
 6  17.74326891629163  0.56664806320632 -0.14476029062906
 6  18.83277364686469  1.22258047504750  0.72196262926293
 6  20.23627229642964  1.28517885138514  0.29395415861586
 6  20.26337769156916  2.02372066926693 -0.94012500520052
 6  21.07490842164216  1.94101703800380  1.31787715111511
 1 -4.08484996949695  3.47688320972097  1.43443803070307
 1 -9.85639603230323  3.99002983798380 -0.57261265276528
 1 -10.25342863226323 -2.41440078087809 -1.40363701590159
 1 -2.79454591149115 -1.16712502640264  2.11326201740174
 1 -2.21400500570057  1.52156573917392  1.00734138453845
 1 -1.93878833633363  0.94695514841484  3.50132384588459
 1 -3.37246230623062  2.18115217271727  3.72257442284228
 1 -3.65674911761176  0.20952563656366  3.49408182098210
 1 -2.11030351525153 -1.83582354275428 -0.18950285948595
 1 -2.05255692819282  0.04839208960896 -0.75931597119712
 1 -0.33002652005201  0.61411602550255  0.63553395249525
 1 -0.27722552455246 -1.03423793899390  1.40126408160816
 1 -5.85491426682668  6.93949259335934  0.73005871507151
 1 -5.11451844124412  5.83245660876088  2.25819211631163
 1 -4.33344730073007  5.57466863326333  0.91041421702170
 1 -9.17007906040604  5.91751789988999 -0.35131535973597
 1 -9.14288550445044  7.96382712161216  0.83173279507951
 1 -7.54265373117312  7.42197859735974  1.72811119661966
 1 -11.73628773387339  3.26857718371837 -2.09942294699470
 1 -13.19619928912891  2.11289518071807 -1.83743493499350
 1 -12.49388111921192  3.28628728342834 -0.45735697969797
 1 -12.30814559295930 -1.63943338843884 -1.17858281318132
 1 -13.16632535143514 -0.04273100990099 -1.59034456195619
 1 -13.18442479507951 -1.78597328352835 -3.71729161366137
 1 -12.31152471667167 -0.07599213681368 -3.92336583228323
 1 -11.36792307160716 -1.38034290139014 -3.52521114111411
 1 -9.65317492049205 -4.74180492339234 -1.50656392049205
 1 -8.02704206900690 -5.65558556275628 -0.76648626162616
 1 -9.40627051195120 -5.07148216951695  0.37728590599060
 1 -3.26955765166517 -3.80180343104310 -0.02679795129513
 1 -1.34264243074307 -4.35579201890189  3.09938285358536
 1 -2.94253386198620 -5.21107272487249  3.61945478437844
 1 -1.53137124862486 -6.07154642784278  2.85575952885288
 1  2.65948525262526 -1.54769660556056 -1.67825179017902
 1  2.56852433003300  0.26491077067707 -2.12330548274827
 1  4.31283218881888 -0.91983419861986  0.46680989698970
 1  3.86702566606661  1.10347905830583 -2.59111748144814
 1  5.21261667336734  2.19125938483848 -2.06039250745075
 1  5.52302961056106  0.63783489098910 -3.12650138113811
 1  6.48345040794079  1.43298729872987  0.04880752355235
 1  6.32690681008101 -0.12525056245625  0.45008472517252
 1  7.66646403110311 -0.87396663186319 -1.54308563216322
 1  7.85322775867587  0.69529273737374 -2.17134005760576
 1  8.97973002460246  1.05769365436544  0.45180281248125
 1  8.77919640834083 -0.70675618181818  0.54004186788679
 1  10.35959351075107  0.27524006170617 -1.77903279277928
 1  9.18663364886489 -1.95338331483148 -1.71594751955196
 1  10.83684624032403 -2.21133791769177 -2.06852109600960
 1  10.23282616861686 -2.56698864086409 -0.22479191889189
 1  11.49266694759476  0.84647687788779  0.18885037253725
 1  11.51749480288029 -0.72665862716272  0.96929755135513
 1  12.77884120302030 -1.59493765496550 -0.84964263186319
 1  13.01053480598060  0.05219591059106 -1.65585894719472
 1  13.63631506820682  0.77690024602460  0.45069241224122
 1  14.07534028712871 -0.76044564926493  1.10640715721572
 1  15.50207349584958  0.49941942694269 -1.38858321632163
 1  15.41481892479248 -2.25520581268127  0.07089563566357
 1  15.04534758545855 -1.97262963856386 -1.73952136723672
 1  16.60366999639964 -1.86748227312731 -1.28842031153115
 1  16.11800700140014  1.26553438713871  0.74684122842284
 1  16.48445289248925 -0.25417459255926  1.32047480868087
 1  18.16539747844784 -0.53089963736374 -0.55704904530453
 1  17.57215427992799  1.23713103200320 -0.97222079787979
 1  18.63770456305631  2.25081923962396  1.07032503780378
 1  18.89633679397940  0.77268144914491  1.80271027132713
 1  20.72522743544354  0.24956110431043  0.29316638063806
 1  19.99198330493049  3.14339790169017 -0.77548114151415
 1  21.36683093519352  2.47610426322632 -1.34806616991699
 1  19.72956686108611  1.78595040584058 -1.87554452345235
 1  21.05026100130013  1.28124623372337  2.25816543374337
 1  22.30407211351135  1.78821005070507  1.19229419571957
 1  21.07915764566457  3.23346342964296  1.39824026452645

