%nproc=4
%Mem=3GB
# td=(NStates=1) iop(3/107=0140000000,3/108=0140000000) CAM-B3LYP/6-31G(d,p) 

TD

0 1
12 -7.09782447414741  0.62285066856686  0.04791116111611
 6 -4.85800461696170 -1.96524375497550  0.53825922832283
 6 -4.71622765336534  2.84248296619662  1.25732583778378
 6 -9.33359012351235  3.07224477747775 -0.37778025332533
 6 -9.52655875387539 -1.72115388108811 -1.03634043894389
 7 -5.08585561676168  0.44307039763976  0.83453127712771
 6 -4.27722997029703 -0.70505164836484  0.92474036873687
 6 -2.95703192379238 -0.51373977197720  1.36594226332633
 6 -3.06839006590659  1.04738343994399  1.71585786508651
 6 -4.35872610731073  1.51465611671167  1.26029042294229
 6 -2.96829301010101  1.17052987228723  3.31246656125613
 6 -1.95610133983398 -0.67270325952595  0.12440625092509
 6 -0.45552126132613 -0.63837708570857  0.58816219851985
 6  0.55882780598060 -0.73964058595860 -0.55502529262926
 8  0.33929414621462 -1.09369314701470 -1.64761215431543
 8  1.75902450085009 -0.43142308070807 -0.09503489108911
 7 -7.02557020042004  2.55791900180018  0.31114203830383
 6 -5.92657280108011  3.36117988538854  0.79802567866787
 6 -6.28895380378038  4.69325618921892  0.85386364506451
 6 -7.54936972227223  4.80352215741574  0.21004713111311
 6 -8.07728725622562  3.46262320112011  0.05273327192719
 6 -5.31886392029203  5.81026049974998  1.25207536273627
 6 -8.51008101610161  5.94355462506251  0.10032064456446
 6 -8.41294970497050  7.26744589428943  0.52421648094809
 7 -9.01103014411441  0.68633562796280 -0.69618619251925
 6 -9.85714320062006  1.80603392769277 -0.63648646214621
 6 -11.32525647834784  1.49932937743774 -0.98532339203920
 6 -11.26735622282228  0.19638718451845 -1.30723075137514
 6 -9.81784938853885 -0.35551574497450 -1.08088028932893
 6 -12.32197313501350  2.60492573397340 -1.33912336503650
 6 -12.35138893179318 -0.68313443724372 -1.82779210981098
 6 -12.36994890379038 -0.98716890919092 -3.24663531473147
 7 -7.19807276967697 -1.32118695439544 -0.13052572767277
 6 -8.25057938423842 -2.19161770727073 -0.60975255515552
 6 -7.87383942374237 -3.51444199559956 -0.49683998379838
 6 -6.51316910741074 -3.51080406250625 -0.16539862156216
 6 -6.20200393209321 -2.12315027082708  0.03249508490849
 6 -8.79594193369337 -4.71955805420542 -0.97140052315232
 6 -5.47590305320532 -4.40063362676268  0.23080805490549
 8 -5.34830582288229 -5.63020987798780  0.17514346294629
 6 -4.20925542814281 -3.39834728212821  0.54394271587159
 6 -3.55580975777578 -3.74434237693769  1.92829879837984
 8 -3.89770255365537 -3.17160451835184  2.93481683988399
 8 -2.87294264706471 -4.86384500300030  1.88470750825083
 6 -2.34901385838584 -5.28909411531153  3.11805920632063
 6  2.83906022642264 -0.57947623652365 -1.09441295849585
 6  4.16126701190119 -0.41633690159016 -0.45729829262926
 6  5.17866335763576  0.33286981498150 -0.95883876087609
 6  5.12364609020902  1.00682835813581 -2.25636977197720
 6  6.50238651735174  0.43840445644564 -0.23364388878888
 6  7.63361481408141 -0.26680522852285 -0.94001433013301
 6  9.00051776337634 -0.03880569666967 -0.25052115451545
 6  10.18512397299730 -0.51192285548555 -1.02689840984098
 6  10.19383265986599 -2.07840572047205 -1.31679864586459
 6  11.47898256205620 -0.24822971407141 -0.15458342084208
 6  12.76613434893489 -0.52774280778078 -0.84201170627063
 6  13.95097636943694  0.01822610831083  0.00706711831183
 6  15.29669566056606  0.01769268566857 -0.58707435993599
 6  15.73710998199820 -1.48304669296930 -1.05071689798980
 6  16.25993298599860  0.41047756505651  0.44457919261926
 6  17.63954154185419  0.73031676127613 -0.13213974097410
 6  18.73688410701070  1.35310338883888  0.78850210691069
 6  20.23733653805381  1.36244567706771  0.35410211621162
 6  20.38631147694770  1.95848315341534 -1.06604130003000
 6  21.22464753175317  1.91475317521752  1.43089702970297
 1 -4.23359372287229  3.58363161456146  1.85362145794579
 1 -9.97869999329933  4.02132440694069 -0.47558208440844
 1 -10.21951637573757 -2.64697023212321 -1.09702752215222
 1 -2.90289757695770 -1.22356255895590  2.27468395909591
 1 -2.21574504080408  1.77789985108511  1.35596924592459
 1 -1.86670975737574  1.13872297869787  3.65828616601660
 1 -3.36044315341534  2.14737396019602  3.76107412961296
 1 -3.52176497699770  0.10955610991099  3.82341402660266
 1 -2.06625174417442 -1.81305197599760 -0.42408041514151
 1 -2.14689105810581  0.01878949874987 -0.73277001160116
 1 -0.18425385408541  0.37398698599860  0.94118798179818
 1 -0.29451787208721 -1.51008177477748  1.22773623192319
 1 -5.66505068276828  6.70329784178418  0.75858568986899
 1 -5.45516698799880  5.89991287268727  2.29943195569557
 1 -4.30581542614261  5.69985425342534  1.08645937853785
 1 -9.25620588038804  5.64330771277128 -0.81028238093809
 1 -9.28777784148415  8.03445316631663  0.31573134883488
 1 -7.51480941304130  7.68537537393739  1.02363132343234
 1 -11.78350882388239  3.09012815991599 -2.27245307680768
 1 -13.28003530123012  2.04821356375637 -1.65585131333133
 1 -12.42238327102710  3.36612394649465 -0.51574201370137
 1 -12.27344930983098 -1.61958288108811 -1.12262576347635
 1 -13.34479677877788 -0.05193790429043 -1.75416117051705
 1 -13.19859505870587 -1.61925558765877 -3.32385334343434
 1 -12.46851725742574  0.05143667236724 -3.91306028442844
 1 -11.40971581098110 -1.46636766396640 -3.51336961516152
 1 -9.35101972057206 -4.58413491429143 -1.77005306830683
 1 -8.09356374157416 -5.72444839813981 -0.98699865496550
 1 -9.38920309930993 -5.05039348774878 -0.25765803450345
 1 -3.60722824132413 -3.59027563316332 -0.22475021312131
 1 -1.80609399699970 -4.57693990739074  3.85434715231523
 1 -3.35500193749375 -5.46328585348535  3.67114815251525
 1 -1.74545506600660 -6.13151393619362  3.15346870797080
 1  2.84244229902990 -1.59014563736374 -1.61766321502150
 1  2.62298874017402  0.04202228702870 -1.93222427992799
 1  4.19174966166617 -0.89111752555256  0.54941634183418
 1  4.22054736623662  1.12970851355136 -2.77811829752975
 1  5.29607653985398  2.20866129002900 -2.09153659205921
 1  5.78390795929593  0.55179637053705 -3.03578983588359
 1  6.66416460036004  1.53340332093209 -0.01093147924793
 1  6.40380825292529 -0.03784112081208  0.79102529802980
 1  7.13015513831383 -1.32137281028103 -1.09157391459146
 1  7.78446100460046  0.14645374837484 -1.86558738163816
 1  8.88976502080208  1.06305580308031 -0.15985355725573
 1  8.90850397119712 -0.60436878957896  0.78683480688069
 1  10.34392902470247  0.18088423622362 -2.06917207520752
 1  9.24276388548855 -2.26656493999400 -1.91834021592159
 1  11.08305744634464 -2.17116051535154 -1.99699505760576
 1  10.21097329442944 -2.93150726542654 -0.57052444614461
 1  11.42221386298630  0.72747918131813  0.19138690949095
 1  11.52225982148215 -0.85234653225323  0.89331565166517
 1  12.91392934543454 -1.54747216651665 -1.02491476297630
 1  12.72700853075307  0.01039597559756 -1.72839717341734
 1  13.57361878217822  1.09868523182318  0.25757058575858
 1  14.07781609220922 -0.60132651155115  0.99898227222722
 1  15.31107150855086  0.77631102810281 -1.41411268006801
 1  15.82957675447545 -2.16803614481448 -0.22375051055106
 1  14.93595523992399 -2.03186770677068 -1.78056943044304
 1  16.76288456805680 -1.56186708370837 -1.51162767606761
 1  15.93248652215221  1.40963929762976  1.04803071937194
 1  16.50400447824783 -0.10890717551755  1.35052354705471
 1  18.21232797049705 -0.32141865586559 -0.49484968056806
 1  17.18789609920992  1.26214510861086 -0.94595033863386
 1  18.23745280218022  2.51013228122812  0.88765071187119
 1  18.84701066356636  0.77717255675568  1.82901614711471
 1  20.50569040134014  0.42459345694569  0.09942583478348
 1  19.98552537103711  3.03923469997000 -1.01623380808081
 1  21.38650245104511  2.02426356845685 -1.40730871207121
 1  19.77562596019602  1.33811410161016 -1.79830821522152
 1  21.10626447994800  1.19537517841784  2.27796146494649
 1  22.12209010181018  1.92119258995900  0.68189484308431
 1  20.99633971247125  2.86194231143114  1.77854499119912

