%nproc=4
%Mem=2GB
# td=(NStates=1) CAM-B3LYP/6-31G(d,p) 

TD

0 1
12 -7.15104567756776  0.63476222432243  0.19531721912191
 6 -4.86597121512151 -1.82724390279028  0.54326085878588
 6 -4.75292522142214  2.90734918221822  1.08431479637964
 6 -9.31053578907891  3.10246574207421 -0.34589744944494
 6 -9.45805611931193 -1.71005651665167 -0.89507593669367
 7 -5.03368679327933  0.49423924202420  0.79580999929993
 6 -4.36049575567557 -0.63116293829383  0.81870989418942
 6 -2.86664566996700 -0.32772219791979  1.16827718191819
 6 -2.97844128252825  1.17514018231823  1.67775850655065
 6 -4.33034002890289  1.53662441124112  1.14145117501750
 6 -2.80279536163616  1.21926421452145  3.25749715861586
 6 -1.85746920792079 -0.51753701510151  0.08669262756276
 6 -0.39976739933993 -0.38482282948295  0.48764289358936
 6  0.50402153935394 -0.68659217211721 -0.60725610611061
 8  0.26198743884388 -0.94569997759776 -1.78450478217822
 8  1.79856166666667 -0.52098949534954 -0.21393818271827
 7 -7.09985043294329  2.68458404820482  0.33059175467547
 6 -5.93737301630163  3.33401437723772  0.68135166876688
 6 -6.41172842594259  4.80652494189419  0.74048473567357
 6 -7.68102080908091  4.87425805730573  0.32240063136314
 6 -8.05602987458746  3.48833802910291  0.03214576087609
 6 -5.50727868456846  5.85692815871587  1.15042980348035
 6 -8.51229902750275  6.01669270297030  0.05996298169817
 6 -8.54472836413641  7.09894601320132  0.82985923572357
 7 -9.17011928452845  0.70064292539254 -0.50380441414141
 6 -9.91845810551055  1.77448740184018 -0.63262958705871
 6 -11.23275237183718  1.47724606370637 -1.11776349584959
 6 -11.17392979687969  0.01465682978298 -1.26801551555156
 6 -9.88373405410541 -0.44333630793079 -0.83650866696670
 6 -12.32480130383038  2.47471804280428 -1.29446622142214
 6 -12.34945949224922 -0.77273468356836 -1.85272608110811
 6 -12.17787527592759 -1.09938234943494 -3.29300441904190
 7 -7.20079954825483 -1.32706231983198 -0.27159183618362
 6 -8.20208044784478 -2.17479265136514 -0.66138109330933
 6 -7.76645279087909 -3.51960022752275 -0.60706798409841
 6 -6.54964884898490 -3.52615695269527 -0.08354008590859
 6 -6.11569416581658 -2.16395467676768  0.13990679487949
 6 -8.59783725112511 -4.82733557595760 -0.72798127652765
 6 -5.33772824312431 -4.30412429592959  0.26167904050405
 8 -5.24364320222022 -5.59541402480248  0.23937096779678
 6 -4.12378595799580 -3.31764755455546  0.52599246454645
 6 -3.48734936583658 -3.74983020432043  1.81618199109911
 8 -3.86020762136214 -3.30642737893789  2.96352903400340
 8 -2.59015020872087 -4.67447216961696  1.72017059795980
 6 -2.16728731663166 -5.15846007510751  2.88889382488249
 6  2.80916342804280 -0.78625642024202 -1.21966316671667
 6  4.11788387738774 -0.56831500780078 -0.57341749074907
 6  5.18290177457746  0.19490575597560 -1.05051482418242
 6  5.15237366036604  1.00404305360536 -2.27490165546555
 6  6.39910424322432  0.33497534773477 -0.27785427062706
 6  7.59824736263626 -0.29743008990899 -0.93384033453345
 6  8.82118399099910 -0.25807093749375 -0.04945675847585
 6  10.10515113961396 -0.71303837553755 -0.64962593309331
 6  10.02627932813281 -2.13984492059206 -1.06003946894689
 6  11.42489536643664 -0.41625540634063  0.10716158475848
 6  12.69139404710471 -0.51650570167017 -0.72565258815882
 6  13.87088655705571 -0.03479468226823  0.15969303680368
 6  15.26371249614962 -0.10864459355936 -0.50036827662766
 6  15.67735940484048 -1.55179281308131 -0.87126674437444
 6  16.31973607950795  0.58422278227823  0.37949245644564
 6  17.78618320772077  0.58632003040304 -0.39051486608661
 6  18.66033640314031  1.41935015201520  0.70334076707671
 6  20.12168083728373  1.41002133563356  0.28237300050005
 6  20.21442279607961  2.33304160136014 -1.01033202590259
 6  21.12133306410641  1.83078601490149  1.20716608000800
 1 -4.18601008550855  3.44086960836084  1.61214580148015
 1 -10.06783717641764  3.96067690269027 -0.47511290279028
 1 -10.30732402180218 -2.48179752055206 -1.27945459765977
 1 -2.65547200410041 -0.83103141704170  2.24812550375037
 1 -2.21115472067207  1.89156273887389  1.53025367576758
 1 -1.75027948544854  1.08684913781378  3.50450416391639
 1 -3.17016207620762  2.27684174167417  3.60001216661666
 1 -3.50343378607861  0.72288697269727  3.75905831863186
 1 -1.97804028892889 -1.54368432883288 -0.21716562576258
 1 -2.00793246574657  0.31621887228723 -0.70454049364936
 1 -0.23154667206721  0.63932854675467  1.13058345744575
 1 -0.43259106110611 -1.38214272947295  1.29630358555856
 1 -5.56846562196220  6.84748339243924  0.66316202540254
 1 -5.40517750715071  6.06036940004000  2.35529182628263
 1 -4.47673162916292  5.50605177157716  0.89945312091209
 1 -9.25975802830283  5.63617976607661 -0.73046327452745
 1 -9.26785800170017  7.82468320722072  0.66989661146115
 1 -7.99447891369137  7.11217761726173  1.54525291079108
 1 -12.24719882498250  3.23047337333733 -2.23011601630163
 1 -13.34684435363536  1.78550244144414 -1.29741093259326
 1 -12.52199393049305  3.02964161886189 -0.52330357435744
 1 -12.51414619301930 -1.67819726482648 -1.13170812571257
 1 -13.46061478037804 -0.40843758055806 -1.78651417891789
 1 -13.05490184278428 -1.68507319351935 -3.62468235273527
 1 -11.90867443164317 -0.24759929752975 -3.94030752645265
 1 -11.14952123142314 -1.81171603870387 -3.20255887588759
 1 -9.06153575657566 -5.02084282718272 -1.78797206130613
 1 -8.04838420322032 -5.70056006020602 -0.39527914091409
 1 -9.43803368826883 -4.56237125842584 -0.05970779337934
 1 -3.43934463036304 -3.38348159885989 -0.26994226572657
 1 -1.83391155765577 -4.41395783548355  3.58463137843784
 1 -2.94499410801080 -5.54651626922692  3.49307214611461
 1 -1.44550266176618 -5.93804307750775  2.67575152805281
 1  2.48130743484348 -1.69941177707771 -1.58579254425443
 1  2.59072655025503  0.00536481608161 -1.97694084628463
 1  4.37627853345335 -1.11929414461446  0.26930014601460
 1  4.38736770027003  1.08063677407741 -2.92326069576958
 1  5.44398981068107  2.07379763866387 -2.19970643884388
 1  6.07355466306631  0.67110821832183 -2.99547827882788
 1  6.68536059895990  1.30150415041504 -0.18324568176818
 1  6.26502062146215 -0.22840087748775  0.71694141084108
 1  7.13475085978598 -1.33226246144614 -1.20051137473747
 1  7.64721715761576  0.28470167826783 -1.80997392099210
 1  8.96122817441744  0.66855474047405  0.49433706590659
 1  8.54776326502650 -1.03712921912191  0.75149301300130
 1  10.45199275067507 -0.16475393769377 -1.61529641914191
 1  9.17871285678568 -2.31015899239924 -1.71842776757676
 1  10.95112766846685 -2.68988577247725 -1.50697494139414
 1  9.76885977197720 -2.72319426142614 -0.04556399609961
 1  11.37278495939594  0.68046027622762  0.41681316881688
 1  11.38329138253826 -1.10822678397840  1.07714833643364
 1  12.82794611351135 -1.43211137233723 -1.34286195379538
 1  12.47360111261126  0.25619631063106 -1.32520588188819
 1  13.52224366106611  0.94138669466947  0.42819016201620
 1  13.71593434653465 -0.77059666436644  0.92006852335234
 1  15.13348663716372  0.43706319131913 -1.39705406340634
 1  15.80801824472447 -2.40479077117712 -0.01750320422042
 1  15.04885793649365 -2.03715609120912 -1.67257467256726
 1  16.74687431683169 -1.45650117501750 -1.56075754525453
 1  16.05496069676968  1.76368420212021  0.53074961926193
 1  16.55679012621262  0.02275310021002  1.42865562676268
 1  17.96772771147115 -0.43135968336834 -0.27187052745275
 1  17.89267633213322  1.07876519541954 -1.26144972077208
 1  18.29734052665266  2.38052220992099  1.00604861016102
 1  18.75533269356936  0.95407958895890  1.77341734203420
 1  20.31092600530053  0.40541668986899 -0.04268720472047
 1  19.69842394899490  3.37295085698570 -0.76488008140814
 1  21.32969722182218  2.42573922672267 -1.38402976627663
 1  19.66855075947595  1.82691450225022 -1.94190115911591
 1  21.22278825402540  1.25501361046105  1.98109772697270
 1  21.97735944224422  1.78569979967997  0.60476544284428
 1  20.98593832373237  2.80533061636164  1.56766720722072

