%nproc=4
%Mem=2GB
# td=(NStates=1) CAM-B3LYP/6-31G(d,p) 

TD

0 1
12 -7.15432600560056  0.62190093819382  0.12930061746175
 6 -4.84884950295030 -1.98208938733873  0.45368190089009
 6 -4.82679260816082  2.82604105140514  1.14344070897090
 6 -9.38520325582558  3.17888338383838 -0.34944780448045
 6 -9.65049536323632 -1.71632714371437 -0.68987541664166
 7 -5.03672709730973  0.49893971207121  0.69482990129013
 6 -4.33478318441844 -0.68771859385939  0.75641366456646
 6 -2.99148815421542 -0.36108553425343  1.17224757895790
 6 -3.05337877627763  1.14822749104911  1.68856958765877
 6 -4.39929692459246  1.57481823062306  1.07836486638664
 6 -3.11408649074908  1.16449873797380  3.16221763066307
 6 -1.92149561056106 -0.58196345774577  0.23329728802880
 6 -0.38153557615762 -0.57257160436044  0.56732086138614
 6  0.49239037623762 -0.76080959385939 -0.45224060456046
 8  0.24657589768977 -0.98181358895890 -1.67468380008001
 8  1.89759156965697 -0.51471886828683 -0.16724351325133
 7 -7.09936038393839  2.64816040584058  0.29406810231023
 6 -6.01602088108811  3.42318329412941  0.69428296189619
 6 -6.38386563966397  4.84887917731773  0.72070275747575
 6 -7.70308301530153  4.92904353585359  0.31951034233423
 6 -8.12749702130213  3.55405460076008  0.09697224352435
 6 -5.47630558725873  5.90913337923792  1.22548730923092
 6 -8.45065286288629  6.06865789948995  0.06084306970697
 6 -8.43142703400340  7.19714583318332  0.81338758855886
 7 -9.15190746334634  0.62818567966797 -0.53179721342134
 6 -9.79582584228423  1.83638359145915 -0.59515583968397
 6 -11.06432552915292  1.49916825592559 -1.11881360086009
 6 -11.21467387128713  0.15080044414441 -1.24001271527153
 6 -9.95576125682568 -0.41221319561956 -0.88543355945595
 6 -12.24272309600960  2.39723029402940 -1.35766254105411
 6 -12.43578812511251 -0.75771318141814 -1.79436024452445
 6 -12.24487197559756 -1.09462187338734 -3.24815993459346
 7 -7.28676814511451 -1.38522813641364 -0.06689136613661
 6 -8.38324856465647 -2.19380455255526 -0.36743169836984
 6 -7.92280842644264 -3.57052532003200 -0.41039831713171
 6 -6.51144502860286 -3.44947928492849 -0.11405313721372
 6 -6.21555415181518 -2.13901218251825  0.10319312351235
 6 -8.67040450785078 -4.85153799619962 -0.68826730513051
 6 -5.28229269956996 -4.41258514201420  0.17259013161316
 8 -5.14101293919392 -5.56408089148915  0.08027505820582
 6 -4.16110969036904 -3.36004179397940  0.57317718301830
 6 -3.53979461036104 -3.71618683998400  1.88587896079608
 8 -3.78426002660266 -3.20697743394339  2.93318599969997
 8 -2.66158735243524 -4.73202792519252  1.63776235713571
 6 -2.02964355225523 -5.20193442254225  2.91293622912291
 6  2.75066757845785 -0.80599839443944 -1.23258445884589
 6  4.13532562156216 -0.57391556785679 -0.73605375437544
 6  5.05792927732773  0.19398566396640 -1.21354112681268
 6  5.03818224122412  1.04094674397440 -2.41273543884388
 6  6.39620395319532  0.31486333653365 -0.44599108430843
 6  7.62402994089409 -0.32013236013601 -1.08059501000100
 6  8.84410628322832 -0.12613774417442 -0.17793960676068
 6  10.24561518601860 -0.62336940864086 -0.90066103660366
 6  10.13615031523152 -2.01448238433843 -1.37184064906491
 6  11.48860173707371 -0.30214399519952 -0.02112124352435
 6  12.84352926062606 -0.62550660176018 -0.70668069096910
 6  13.99806927532753 -0.13802500530053  0.23675074257426
 6  15.39120524542454 -0.25137886698670 -0.33662190199020
 6  15.71158282718272 -1.76221385518552 -0.78130774847485
 6  16.46688079397940  0.41430579057906  0.45476998419842
 6  17.79928451785178  0.62289368776878 -0.16341215581558
 6  18.72152252175217  1.49328754575458  0.77640807380738
 6  20.24529319851985  1.54331466496650  0.29306406960696
 6  20.26411776557656  2.18560685788579 -0.98059905260526
 6  21.06389732053205  2.17613054935494  1.37928329172917
 1 -3.99855133963396  3.59172469386939  1.47881246814681
 1 -10.15789618231823  3.99374020902090 -0.32045743724372
 1 -10.41343463286329 -2.40918025882588 -0.89981663386339
 1 -2.72110856775678 -1.11636995089509  1.99620031123112
 1 -2.22167577277728  1.76695027762776  1.44362501290129
 1 -2.26232068956896  0.81554200710071  3.52843655715572
 1 -3.31900696069607  2.22406646414641  3.46940910631063
 1 -3.91085452815282  0.65304998899890  3.56550896369637
 1 -2.14280676557656 -1.70605056545655 -0.11280518971897
 1 -2.03571524402440 -0.04977772737274 -0.74815485508551
 1 -0.10531404880488  0.43920853475348  0.99098949804981
 1 -0.38635643764376 -1.34089860506051  1.40447440264026
 1 -5.70663943934393  6.82748139223922  0.73900961016102
 1 -5.50984797419742  6.00470383348335  2.35729202630263
 1 -4.51572552855286  5.63482464886489  1.00200337593759
 1 -9.24937699019902  6.03742989108911 -0.82794302250225
 1 -9.15441665756576  7.96554729362936  0.57062668446845
 1 -7.87738720452045  7.09874627412741  1.77227561306131
 1 -12.07903200830083  3.13157348334833 -2.32376538123812
 1 -13.19767943714371  1.97491138233823 -1.40572176367637
 1 -12.28052978407841  3.10117877257726 -0.44413565756576
 1 -12.72883766216622 -1.67489693479348 -1.22084703960396
 1 -13.27914663356336 -0.06832356915692 -1.53222875037504
 1 -13.15044139673967 -1.63156784298430 -3.64869475397540
 1 -12.26533009720972 -0.22055659325933 -3.84930842654265
 1 -11.39725600490049 -1.75849071617162 -3.48399701970197
 1 -9.18037764076408 -4.60590133303330 -1.73721698579858
 1 -8.02049141394139 -5.75580558475848 -0.69640925392539
 1 -9.36321620652065 -4.92596761806181 -0.00572239483948
 1 -3.23920461636164 -3.54874812551255 -0.08105337683768
 1 -1.68817698419842 -4.27124356405641  3.30296321162116
 1 -2.82381198979898 -5.65558717631763  3.54435727462746
 1 -1.23901201270127 -5.70471974517452  2.37368132103210
 1  2.67481678577858 -1.85762759865987 -1.43575754075407
 1  2.60550802840284 -0.10773649404941 -2.23938709090909
 1  4.24843574917492 -1.02890510571057  0.11434465046505
 1  4.07118608210821  1.18591730213021 -2.90931930163016
 1  5.53941935363536  1.92115237413741 -2.16357282548255
 1  5.55241254885489  0.87129823732373 -3.33888261926193
 1  6.72371443434343  1.30960496049605 -0.03264062126213
 1  6.37784190359036 -0.42008004540454  0.46009572627263
 1  7.53984136883688 -1.23551278647865 -1.31278260186019
 1  7.67661009690969  0.25188839693969 -1.96325924952495
 1  8.96313836543654  1.00535842084208 -0.20826319411941
 1  8.86060454915492 -0.51964747094710  0.84419228292829
 1  10.30179773117312 -0.03565102740274 -1.98600348984898
 1  9.28738372387239 -2.47726570307031 -1.90117604240424
 1  10.89974252995300 -2.38861564546455 -1.94157840174018
 1  10.21380426642664 -2.59861180318032 -0.43017245694570
 1  11.38391607250725  0.81895412561256  0.23101458895890
 1  11.35369842324232 -0.91763772507251  0.96857747934793
 1  13.03684700360036 -1.77659582078208 -0.73391105870587
 1  13.06887063956396  0.06658734973497 -1.63800716201620
 1  13.66208764546455  0.97778033403340  0.39040638363836
 1  14.01150390349035 -0.36404600930093  1.44830134663466
 1  15.39102239073907  0.27294677967797 -1.27290164816482
 1  15.88038548144814 -2.46230652275227  0.01177972407241
 1  14.80381343204320 -2.03282565816582 -1.56956437153715
 1  16.49454908430843 -2.01220674557456 -1.63719518901890
 1  15.90188538923892  1.33711154485449  0.65706225052505
 1  16.60341478867887 -0.07684685978598  1.56608937013701
 1  18.32299323802380 -0.41219776717672 -0.37225056545655
 1  17.84554161866187  1.08013533243324 -1.21290486628663
 1  18.42412320492049  2.58275243294329  0.89551755705571
 1  18.59354651495150  1.03448762976298  1.76088608890889
 1  20.43616852955295  0.30595674387439  0.20370743474347
 1  19.95254936153615  3.30100366226623 -0.98764235763576
 1  21.47180143224323  2.16344299709971 -1.49912127542754
 1  19.77163106750675  1.68263007380738 -1.89866683568357
 1  21.02504848004801  1.87206531563156  2.56918653585359
 1  22.18419012531253  2.00109133883388  1.19014398069807
 1  20.73893362326233  3.38547863116312  1.56590703120312

