%nproc=4
%Mem=3GB
# td=(NStates=1) iop(3/107=0140000000,3/108=0140000000) CAM-B3LYP/6-31G(d,p) 

TD

0 1
12 -7.17276196789679  0.62314069756976  0.11100747074707
 6 -4.85752456895690 -1.98509574017402  0.55735113751375
 6 -4.72984901550155  2.83507222512251  1.22206231143114
 6 -9.42472923742374  3.11577913091309 -0.33353582888289
 6 -9.58405450345035 -1.70670243594359 -0.81425823072307
 7 -5.06110314151415  0.39114520512051  0.77673549754975
 6 -4.38480072737274 -0.81225236843684  0.84547244194419
 6 -2.93708992959296 -0.48793719171917  1.11742741184118
 6 -3.07239046594659  1.04926362796280  1.62555883518352
 6 -4.41005123982398  1.46838148924893  1.18487288118812
 6 -3.07936411721172  1.10230304960496  3.25161047564756
 6 -1.90639636933693 -0.59696568576858  0.08634244454445
 6 -0.50118582778278 -0.55518876687669  0.69777315961596
 6  0.59415133833383 -0.80134675657566 -0.43599338943894
 8  0.29084930173017 -1.14619839753975 -1.51241863496350
 8  1.78876747514751 -0.38867880628063 -0.10331571917192
 7 -7.12510015341534  2.65269847974797  0.27183810791079
 6 -6.06928707250725  3.40201396879688  0.81996787288729
 6 -6.37434234263426  4.78475533913391  0.67826608530853
 6 -7.69578436373637  4.84602640784078  0.28069419581958
 6 -8.12648217571757  3.54114105290529  0.04448244684468
 6 -5.35299733363336  5.91227070077008  0.95890604580458
 6 -8.51189119711971  6.07914818441844  0.17705831833183
 6 -8.26231464146415  7.30259940964096  0.62692675197520
 7 -9.07344638573857  0.76833382778278 -0.53542011591159
 6 -9.84616210251025  1.84753807810781 -0.61546435993599
 6 -11.22742669536954  1.51635107960796 -1.13630849054905
 6 -11.31161064826483  0.22385993179318 -1.26152618091809
 6 -9.92375997959796 -0.37469766316632 -0.89913211451145
 6 -12.30784172187219  2.56091133253325 -1.45939539223922
 6 -12.46658045094510 -0.60097622142214 -1.62741207180718
 6 -12.37502941184118 -0.99253944624462 -3.11826247744774
 7 -7.26144910731073 -1.33821865756576 -0.27407008210821
 6 -8.28311263756376 -2.23544208970897 -0.56736831673167
 6 -7.83845588538854 -3.58061861326133 -0.63369366916692
 6 -6.56336412691269 -3.64265724782478 -0.14521660336034
 6 -6.23740747244724 -2.18028598439844  0.12667450285029
 6 -8.73266560606061 -4.82059815821582 -0.85804918801880
 6 -5.33208867176718 -4.35355891929193  0.11445641974197
 8 -5.18381937423742 -5.61227808480848  0.03630957955796
 6 -4.11502600520052 -3.31575902330233  0.55172349394939
 6 -3.52364654145414 -3.75739368206821  1.89203517201720
 8 -3.73043582698270 -3.20004736263626  2.98100145834583
 8 -2.76570192299230 -4.86738535703570  1.67972701020102
 6 -2.31556051305131 -5.37259246514651  3.04090149054906
 6  2.81520784118412 -0.74577286618662 -1.06709022622262
 6  4.19480036523652 -0.43212848074807 -0.43161572437244
 6  5.16633212451245  0.40059658765877 -0.86699957695770
 6  5.11644537013701  1.14974264956496 -2.17398153315332
 6  6.46967324602460  0.55646626262626 -0.25083560796080
 6  7.67365881848185 -0.14298284628463 -0.99172950165017
 6  8.97091480308031  0.01746993089309 -0.14712081448145
 6  10.16223168376838 -0.57352901610161 -0.86215193519352
 6  10.09696297289729 -2.05186306620662 -1.27333429942994
 6  11.46495115891589 -0.42384727582758 -0.06211417391739
 6  12.77333506900690 -0.51694172767277 -0.77472497759776
 6  13.92745401720172 -0.05309102340234  0.06115252685269
 6  15.36728271927193 -0.22629171277128 -0.59434508700870
 6  15.69856612761276 -1.66736512481248 -0.88810063636364
 6  16.48421541424143  0.33253977127713  0.38257299199920
 6  17.78907649534954  0.56038976857686 -0.20169669666967
 6  18.77749816841684  1.31839991849185  0.79593284998500
 6  20.22084488888889  1.39378881138114  0.21001770777078
 6  20.29675252105211  2.23842114721472 -0.99928462436244
 6  21.12982804980498  2.02617431733173  1.27174111411141
 1 -4.05589595309531  3.59869312071207  1.58282437823782
 1 -10.16553867716772  3.92449472397240 -0.48828335453545
 1 -10.15664008810881 -2.42295783088309 -1.24547236663666
 1 -2.72826011321132 -1.23987419011901  2.03416990769077
 1 -2.32413587988799  1.77851991309131  1.16300994999500
 1 -2.06076916331633  0.85592469886989  3.60161049844984
 1 -3.32350946004600  2.18193741654165  3.41025904810481
 1 -3.72034483498350  0.42789794409441  3.75103678887889
 1 -2.00120523952395 -1.45221589238924 -0.44926293339334
 1 -2.06098246724672  0.31965958575858 -0.64058079267927
 1  0.01539611091109  0.28229781708171  1.20044390739074
 1 -0.23375179547955 -1.34848561516152  1.40379383768377
 1 -5.55264944264426  6.77795530753075  0.33859369066907
 1 -5.56719819111911  5.97850073147315  2.12393440594059
 1 -4.45804064866487  5.42515678367837  0.85188592119212
 1 -9.40276053585358  6.02276565856586 -0.55030638333833
 1 -8.95517458115811  8.11025074607461  0.37816759245925
 1 -7.38516644874487  7.58862569896990  1.29782874317432
 1 -11.92658313131313  3.17677682478248 -2.16004183568357
 1 -13.15462275997600  1.96290503290329 -1.91990771897190
 1 -12.66487752045204  2.91529886398640 -0.60328076757676
 1 -12.60783274817482 -1.70274119691969 -1.24873837473747
 1 -13.23840613971397 -0.07559026952695 -1.30835659005901
 1 -13.24011921112111 -1.68009167126713 -3.34391534963496
 1 -12.36638704440444 -0.03579205050505 -3.94137311571157
 1 -11.41732657205720 -1.65274630183018 -3.30689896809681
 1 -8.90453507210721 -4.87202370317032 -2.04262032503250
 1 -7.92978736393639 -5.74380033333333 -0.55185514061406
 1 -9.60793497249725 -4.78435688408841 -0.17137940664066
 1 -3.48299581808181 -3.41548815441544 -0.27051478957896
 1 -1.83567695529553 -4.56842905630563  3.71586330393039
 1 -3.05996243354335 -5.89023854875488  3.54277531523152
 1 -1.50690121062106 -6.04367515231523  2.70326368746875
 1  2.85833388818882 -1.83700032283228 -1.12918436713671
 1  2.64095053635364 -0.23784569976998 -2.00415147264727
 1  4.32538302500250 -1.10428884268427  0.51562296249625
 1  4.15845115661566  1.09200474317432 -2.66976746244624
 1  5.39476640884088  2.18061848574857 -2.21616905530553
 1  5.78226779527953  0.54982617351735 -3.00028628552855
 1  6.64755293919392  1.68459844044404 -0.30479086518652
 1  6.62781065316532 -0.03434077077708  0.77671386688669
 1  7.32967509030903 -1.03503417641764 -1.43137789498950
 1  7.94878743724373  0.31835093809381 -2.07959878277828
 1  9.17001304560456  0.99022852035204  0.18423085118512
 1  8.76370949174918 -0.66837519021902  0.76880300370037
 1  10.43691832363236  0.03081922972297 -1.84539969796980
 1  9.24935454455446 -2.27331561506151 -1.89933831573157
 1  10.84516365696570 -2.36325972527253 -2.11687704580458
 1  10.33795599269927 -2.81570568526853 -0.20599799349935
 1  11.24890653225322  0.53922035543554  0.41531930273027
 1  11.47083467896790 -1.13402470007001  0.86714303440344
 1  12.77424537703770 -1.41907932723272 -1.43596586808681
 1  12.84231006090609  0.25090002600260 -1.60659499319932
 1  13.74444586488649  0.96633199649965  0.54393922262226
 1  13.96384469506951 -0.55702208110811  1.03220559455946
 1  15.33167356875688  0.26024942194219 -1.59531079987999
 1  15.65089888668867 -2.22732207340734  0.13360522502250
 1  15.16022766716672 -2.22264678467847 -1.61602297579758
 1  16.64831311091109 -1.88208910591059 -1.15833234653465
 1  16.36113938743874  1.48005633933393  0.67159307560756
 1  16.59228330613061 -0.11400768556856  1.40365886058606
 1  18.14340107780778 -0.47162367636764 -0.48600879647965
 1  17.70669797939794  1.00401929602960 -1.16334207780778
 1  18.40548960586058  2.36379764776478  0.85161710851085
 1  18.80309627212721  0.81112595209521  1.74738798429843
 1  20.81272110441044  0.32374337193719  0.04710060226023
 1  19.82882970147015  3.28965974247425 -0.73220540524052
 1  21.31686548734874  2.30593173527353 -1.36062404360436
 1  19.38937733533353  2.05783607380738 -1.87444582898290
 1  21.22361621512151  1.31450709160916  2.24968863766377
 1  22.08201609440944  2.14217468816882  0.94115076867687
 1  20.62809288778878  2.93793991119112  1.63744088078808

