%nproc=4
%Mem=2GB
# td=(NStates=1) CAM-B3LYP/6-31G(d,p) 

TD

0 1
12 -7.19710028302830  0.59333808190819  0.20545823322332
 6 -4.82036665466547 -1.91907308570857  0.69076560926093
 6 -4.82253218211821  2.74647309460946  1.24579094399440
 6 -9.47593232873287  3.08197369286929 -0.30588344804480
 6 -9.51563187688769 -1.79244475547555 -0.93218964806481
 7 -5.16251967656766  0.47472729082908  0.96094651295130
 6 -4.30643034913491 -0.68422824482448  0.91736976017602
 6 -2.85155416081608 -0.33138256395640  1.20349070327033
 6 -3.05379881828183  1.14979764806481  1.75136586728673
 6 -4.49075607050705  1.52940368916892  1.26300333023302
 6 -2.88157323942394  1.28736102420242  3.25167657655766
 6 -1.91871533253325 -0.49952521392139  0.07047100540054
 6 -0.51336875947595 -0.20399474667467  0.45605973527353
 6  0.42935407260726 -0.54579809270927 -0.67907328782878
 8  0.18077931803180 -1.11757716531653 -1.79132546424642
 8  1.71721353185319 -0.28541593799380 -0.36208299719972
 7 -7.13595404330433  2.57927351715171  0.32256095159516
 6 -6.09875915491549  3.32789376517652  0.81339487308731
 6 -6.49850710381038  4.69975426482648  0.80110079727973
 6 -7.85940864786479  4.86133676517652  0.39229762106211
 6 -8.17873214481448  3.46512570787079  0.02640518681868
 6 -5.45347330403040  5.85455792169217  1.19374413491349
 6 -8.67396519411941  5.98630966466647  0.22911989738974
 6 -8.54753864516452  7.19656577517752  0.89845609540954
 7 -9.07383965656566  0.60224308540854 -0.52623665736574
 6 -9.86234249394939  1.75720567366737 -0.69138546264626
 6 -11.15663476007601  1.35415375447545 -1.30056177567757
 6 -11.20539294319432  0.04760012411241 -1.37383609760976
 6 -9.94026970767077 -0.42079405370537 -0.93824884098410
 6 -12.16217504120412  2.43233380438044 -1.72252902770277
 6 -12.34537908420842 -0.84334174427443 -1.86909771827183
 6 -12.08273576197620 -1.27536994819482 -3.29834495309531
 7 -7.18367783608361 -1.38050766436644 -0.02462713971397
 6 -8.19440968076808 -2.24931010311031 -0.42784773997400
 6 -7.69730587618762 -3.57503577107711 -0.48097537483748
 6 -6.43780766486649 -3.57920225722572 -0.05887761966197
 6 -6.12842543894389 -2.10755903720372  0.24343714791479
 6 -8.60510797819782 -4.78767160956096 -0.83119159755976
 6 -5.21077554785479 -4.33274715821582  0.24647752035203
 8 -5.08737757565757 -5.53471795519552  0.29805683638364
 6 -4.14790837023702 -3.26998278807881  0.70773063836384
 6 -3.53978460936094 -3.61859708100810  1.96972734563456
 8 -3.56971857245725 -3.09782651885189  2.98640132123212
 8 -2.77895908960896 -4.77397211961196  1.76668524942494
 6 -2.32890347824782 -5.22329655875587  3.03296823232323
 6  2.76164867656766 -0.51467926252625 -1.30096129652965
 6  4.11794388338834 -0.38182635893589 -0.57663781278128
 6  5.05964944934493  0.37575384078408 -1.08827860056006
 6  5.05742416541654  1.24281693099310 -2.33249741504150
 6  6.43115744854485  0.45847769796980 -0.32762924812481
 6  7.59666720462046 -0.12079242614261 -1.11806875737574
 6  8.82462433503350 -0.25467059745975 -0.27630944374437
 6  10.11114173867387 -0.55828289999000 -1.05259623012301
 6  10.10110681088109 -2.13499443554355 -1.42534599959996
 6  11.30416329322932 -0.15779956075608 -0.18429756115612
 6  12.81644655235523 -0.36886093719372 -0.72116213911391
 6  13.96688615701570  0.02111090829083  0.10014708220822
 6  15.31345747064706 -0.20617434653465 -0.54220246004600
 6  15.67712938183818 -1.63325095889589 -0.85727534523452
 6  16.41791589748975  0.34539889988999  0.34397890509051
 6  17.79606419581958  0.40773217161716 -0.11332714731473
 6  18.76717708720872  1.15959417641764  0.73870430343034
 6  20.33482215141514  1.28919925342534  0.44426919011901
 6  20.46026738053806  2.07948624582458 -0.95390638333833
 6  21.25063599439944  1.80738367466747  1.46794215761576
 1 -4.14676616111611  3.83467898929893  1.11937652455246
 1 -10.30715110781078  3.82307314231423 -0.59151454295429
 1 -10.08829211861186 -2.67381672247225 -1.13130978317832
 1 -2.46359281618162 -1.02059037293729  1.86209690089009
 1 -2.18543214841484  1.97878146074607  1.47623827422742
 1 -1.81636609410941  1.10941139403940  3.48135184868487
 1 -3.11746680668067  2.30027408490849  3.56593875927593
 1 -3.73643708640864  0.83647833183318  3.90293270607061
 1 -1.91398388328833 -1.30809076947695 -0.30078398759876
 1 -2.05057673017302  0.06037328772877 -0.87512755235524
 1 -0.54072759015902  0.90103471737174  0.73513391249125
 1 -0.06992479447945 -0.82137665286529  1.24778873407341
 1 -5.82445122052205  6.80542918701870  0.71749745894589
 1 -5.35917290669067  6.24723808690869  2.32273857095710
 1 -4.41478543454345  5.61818298469847  0.66946012161216
 1 -9.31542359485949  5.81612776087609 -0.67316754495450
 1 -9.16988820472047  8.06907764666467  0.56930655245525
 1 -7.71345081088109  7.52908930843084  1.66495488098810
 1 -12.04845895099510  2.66876720272027 -2.86655966066607
 1 -13.24646431563156  1.92536642784278 -1.84525571707171
 1 -12.23194492559256  3.50168882358236 -1.03515475947595
 1 -12.54796957535754 -1.64011345644564 -1.04304925982598
 1 -13.19683840274027 -0.14605134193419 -1.75206073357336
 1 -12.93390974357436 -1.82436712291229 -3.72464234873487
 1 -12.01865542974298 -0.48317285488549 -4.13045654135414
 1 -11.23642992229223 -1.80521538863886 -3.46462508250825
 1 -9.18621822482248 -4.70510125302530 -1.81551481558156
 1 -7.96823618841884 -5.80463046724672 -0.83766337933793
 1 -9.52391227612761 -5.09349437073707 -0.26787861046105
 1 -3.19998069396940 -3.15796904760476  0.01283601210121
 1 -1.66327449394939 -4.52868930863086  3.44821773707371
 1 -3.16926653525353 -5.63418503610361  3.63592643154315
 1 -1.67093520502050 -6.15254452765276  2.96020997389739
 1  2.83075237933793 -1.60674251015101 -1.49482344734473
 1  2.68351582918292  0.04683896349635 -2.24682783498350
 1  4.14496540214021 -0.89976219141914  0.27751096709671
 1  4.13113207670767  1.35011372177218 -2.89890826052605
 1  5.76281169286929  2.12180243914391 -2.12877934613461
 1  5.69481678927893  0.86144725222522 -3.07498622962296
 1  6.71650371327133  1.26818081808181  0.28148079087909
 1  6.21634575397540 -0.41773981138114  0.59839955665567
 1  7.27410479517952 -1.07544677987799 -1.91617294089409
 1  7.91268370427043  0.73672688078808 -2.05856878047805
 1  9.03088514011401  0.71142902790279  0.27177480968097
 1  8.87155564426443 -1.17874338053805  0.38609647334734
 1  9.95882343374337  0.04013655135514 -2.02827771727173
 1  9.29717470297030 -2.27182515901590 -1.95861178597860
 1  10.94270682638264 -2.34519130303030 -2.06262050595060
 1  9.94654754075408 -2.76408835083508 -0.56950639033903
 1  11.16948462936294  0.94264649484949  0.06446793429343
 1  11.37190024342434 -0.69245520682068  0.81138175977598
 1  12.80833415231523 -1.45562372357236 -0.99485715331533
 1  12.80758451095109 -0.02567187618762 -1.79763312461246
 1  14.02168360506051  1.03368592459246  0.62901024402440
 1  13.79187194029403 -0.59604920962096  1.11069758625863
 1  15.55021831033103  0.27236672167217 -1.53721807980798
 1  15.43168061096110 -2.38385867796780 -0.07918937283728
 1  15.24947799849985 -2.08845122072207 -1.84702211731173
 1  16.64944457385739 -1.81651717661766 -1.16940841034103
 1  15.99659486018602  1.38811664536454  0.63111965626563
 1  16.38913336053605 -0.22978215331533  1.46448921012101
 1  18.18333927262726 -0.59700624802480 -0.32047538793879
 1  17.92423948844885  0.85621294019402 -1.17524109990999
 1  18.44673546614661  2.12505666336634  0.97093509880988
 1  18.77615477577758  0.70456463746375  1.74755475577558
 1  20.59265417811781  0.17712386058606  0.18722578657866
 1  19.97093119971997  3.06995055695570 -0.67500109350935
 1  21.45667992009201  2.07650430323032 -1.09199056235624
 1  19.63711761616162  1.69930174097410 -1.59069603860386
 1  21.07338331353135  1.23106121522152  2.60709032623262
 1  22.22314402070207  1.76892812251225  1.28412337863786
 1  20.94606433633363  2.75724580788079  1.73189362986299

