%nproc=4
%Mem=2GB
# td=(NStates=1) CAM-B3LYP/6-31G(d,p) 

TD

0 1
12 -7.18250882388239  0.57494624272427  0.09951763916392
 6 -4.80516513451345 -1.93963514191419  0.51672820552055
 6 -4.82143207210721  2.78074652195219  1.19051541644164
 6 -9.38180291579158  3.11273676917692 -0.42472533223322
 6 -9.52396270997100 -1.87359287028703 -0.83950037913791
 7 -5.12564598919892  0.37981779987999  0.77159757805781
 6 -4.27815752185219 -0.71369119111911  0.88612663586359
 6 -2.89127813321332 -0.30793021872187  1.28728908310831
 6 -3.15552899129913  1.07436010431043  1.80165089578958
 6 -4.43854084898490  1.46447719651965  1.16330336023602
 6 -3.12143722582258  1.12848513661366  3.30937234613461
 6 -1.88235169616962 -0.53929919131913  0.09959391769177
 6 -0.48051547414741 -0.52219656685669  0.57971210051005
 6  0.53715485268527 -0.53121663456346 -0.50150553105311
 8  0.33002424252425 -0.79159456705671 -1.74769110081008
 8  1.76265807630763 -0.31135853225323 -0.19905669456946
 7 -7.11970241814181  2.58890448024802  0.23002169766977
 6 -6.05254453345335  3.31000197599760  0.74023755735574
 6 -6.38975622872287  4.77322161156116  0.74872555975598
 6 -7.70998370537054  4.81775240674067  0.30812920422042
 6 -8.15983025462546  3.55628482378238  0.03922646894689
 6 -5.59009696639664  5.95124759065907  1.19358411891189
 6 -8.60306810441044  6.05278631233123  0.12016900230023
 6 -8.33872776407641  7.21122724132413  0.77047329712971
 7 -9.06730900350035  0.61328418951895 -0.55079911361136
 6 -9.87689394909491  1.75695564866487 -0.57088341244124
 6 -11.16255535213521  1.41835017411741 -1.11599331883188
 6 -11.15389779367937  0.09818518261826 -1.31188990299030
 6 -9.89472515321532 -0.42105407970797 -0.89347436353635
 6 -12.34383320702070  2.27744831583158 -1.40066684148415
 6 -12.29902444874488 -0.82535994609461 -1.74480528902890
 6 -12.23900138853885 -1.09422183338334 -3.25699081768177
 7 -7.24251371967197 -1.38133774737474 -0.18703338033803
 6 -8.25360560036004 -2.24509968206821 -0.54776973217322
 6 -7.75390153575358 -3.64071233873387 -0.52840011731173
 6 -6.43302718681868 -3.53981831883188 -0.17362909480948
 6 -6.14149674607461 -2.20564884618462  0.03392619681968
 6 -8.48761622902290 -4.94464730713071 -0.76927540594059
 6 -5.23474794509451 -4.36736061956196  0.10129300190019
 8 -5.03913275117512 -5.61965644904490  0.10148717941794
 6 -4.12833641304130 -3.28807459725973  0.52976284158416
 6 -3.66306693759376 -3.68717393869387  1.94912528542854
 8 -3.96257785838584 -3.06828356455646  2.94076675777578
 8 -2.71794298799880 -4.64951967436744  1.82539112001200
 6 -2.18478906680668 -5.01659588868887  3.06624155965597
 6  2.84709722142214 -0.43042083668367 -1.22846404680468
 6  4.20352244124412 -0.28746692299230 -0.51718186718672
 6  5.11809529392939  0.52755902130213 -0.98760853355336
 6  5.04215263826383  1.26139878917892 -2.28657282258226
 6  6.48274260706071  0.53857570777078 -0.26989347454745
 6  7.58987652555256 -0.11016136303630 -1.04684163466347
 6  8.87463933653365 -0.09569469986999 -0.16912872567257
 6  10.20269089358936 -0.45770284198420 -0.93678464896490
 6  10.19633633383338 -1.95750668676868 -1.43864732973297
 6  11.43366624352435 -0.11429521032103 -0.00342947434743
 6  12.71111601930193 -0.68828287938794 -0.66978700160016
 6  13.98334780318032 -0.10631183398340  0.11123819131913
 6  15.29315544044404 -0.36086981608161 -0.52186042584258
 6  15.72293396229623 -1.83505113891389 -0.69628924662466
 6  16.31874598049805  0.22088644864486  0.41108561576158
 6  17.73841843124312  0.47115851425143 -0.19457527212721
 6  18.77643801330133  1.19090730773077  0.73550398339834
 6  20.23067173637364  1.37715804930493  0.24392915611561
 6  20.27496885068507  2.00210850805081 -1.10849184188419
 6  21.15281621242124  2.00155309160916  1.26428179157916
 1 -4.04923640814081  3.44322984438444  1.74284887178718
 1 -10.11035142784278  3.84976581158116 -0.61301669316932
 1 -10.32618590799080 -2.55101444224422 -1.19800645284528
 1 -2.48028448534853 -1.24646296019602  1.97941863306331
 1 -2.45247885308531  1.86453003560356  1.37116776717672
 1 -2.15990044754475  0.73126357925793  3.84232794629463
 1 -3.26096115611561  2.10196425392539  3.63468563396340
 1 -3.83096653935394  0.66678136213621  3.79770218301830
 1 -2.27180966586659 -1.52665262566257 -0.18108201740174
 1 -2.05826749924992  0.21212846324632 -0.70891093069307
 1 -0.30639415681568  0.47265187908791  1.28326872597260
 1 -0.45695349734974 -1.37783229842984  1.14208816401640
 1 -5.67845662106211  6.84361300540054  0.66271198039804
 1 -5.70326731613161  6.06802016511651  2.27356365346535
 1 -4.49033298929893  5.82865403180318  0.82141531713171
 1 -9.26616866936694  6.02783893199320 -0.68965919411941
 1 -9.03824504040404  7.97525826472647  0.81887150895089
 1 -7.64743420922092  7.22190859035904  1.66760514601460
 1 -12.28430253535354  3.07400772677268 -2.15819882458246
 1 -13.19954962416242  1.83175706690669 -1.65374656615662
 1 -12.67691942304231  2.86872552725273 -0.39080032403240
 1 -12.31669644804481 -1.77584702980298 -1.13293824872487
 1 -13.26364508340834 -0.33773050985099 -1.37226275377538
 1 -12.99785613821382 -1.78754344054405 -3.69051893639364
 1 -12.24692825702570 -0.22461699929993 -3.84356785248525
 1 -11.25492177147715 -1.57278214531453 -3.51708032803280
 1 -8.93166276927693 -5.30417116001600 -1.79461272537254
 1 -7.73519288408841 -5.77296730093009 -0.48903851685168
 1 -9.40783066796680 -4.95373039433944 -0.12624444704470
 1 -3.29805050095010 -3.44743799449945 -0.07543281478148
 1 -1.56549471597160 -4.25514195389539  3.56945986128613
 1 -2.96958656725673 -5.40248186578658  3.82025486438644
 1 -1.62165027652765 -5.96049532273227  2.83861781468147
 1  2.67858716281628 -1.50927276317632 -1.46572053705371
 1  2.59671714931493  0.10678495809581 -2.04302745494549
 1  4.22293319891989 -0.85896811201120  0.48748196419642
 1  3.96481544504450  1.22842155255526 -2.56668503820382
 1  5.59799521122112  2.18860911981198 -2.24175064326433
 1  5.39239654725473  0.63518462596260 -3.09111784278428
 1  6.68465052795279  1.68526252625262 -0.09791714891489
 1  6.28571269066907  0.00367232983298  0.67108682538254
 1  7.34273165786579 -1.14792402760276 -1.50166148974897
 1  7.83287572347235  0.56834004210421 -1.97234015761576
 1  9.17186923852385  0.91278916391639  0.18425605780578
 1  8.81005949464947 -0.55028053425343  0.89987785148515
 1  10.36234378577858  0.11591412911291 -1.94276916641664
 1  9.35972095759576 -2.08137611411141 -1.87861378617862
 1  11.04977753345335 -2.21037782168217 -2.08764300820082
 1  10.35776866286629 -2.68349029102910 -0.51943138283828
 1  11.47154483538354  0.82941517171717  0.15351683918392
 1  11.14428748214821 -0.70847680898090  0.91789241084108
 1  12.56805012391239 -1.84311247244724 -0.82192986058606
 1  12.97791154365436 -0.25414472347235 -1.65447880918092
 1  13.86034747144715  0.90394295029503  0.39373671667167
 1  14.15226797989799 -0.67501710641064  1.12352886938694
 1  15.37574086258626  0.08192767776778 -1.47898225622562
 1  15.67821526442644 -2.23340363246325  0.51148969506951
 1  14.88531158185819 -2.40455283088309 -1.18473588868887
 1  16.69831946134613 -2.00512603750375 -1.10825229472947
 1  15.96827202790279  1.18169600330033  0.93151969626963
 1  16.13028747594759 -0.35247442254225  1.28325108630863
 1  18.14786572527253 -0.59787633503350 -0.82897623802380
 1  17.20132719721972  1.00136745564556 -0.99826340214021
 1  18.40350114271427  2.24209836753675  1.01861986728673
 1  18.71240840114012  0.55444962596260  1.69849985028503
 1  20.46302121482148  0.16290243844384  0.22460952495250
 1  20.05159926652665  3.10736429832983 -1.27782137553755
 1  21.29054330643064  1.74650130293029 -1.46615797909791
 1  19.61746565096510  1.34135594639464 -1.74067103610361
 1  21.06364233943394  1.39801791089109  2.18885850305031
 1  22.14988669496950  2.09508073777378  0.89782474877488
 1  20.82886261616162  3.10981106440644  1.35590603110311

