%nproc=4
%Mem=2GB
# td=(NStates=1) CAM-B3LYP/6-31G(d,p) 

TD

0 1
12 -7.17587816081608  0.62798154625463  0.01766945434543
 6 -4.92499711771177 -1.91826300470047  0.40258679137914
 6 -4.84298422732273  2.79303775107511  1.07774413931393
 6 -9.37979271477148  3.04755025052505 -0.46571943164316
 6 -9.55825613931393 -1.70624613561356 -0.70714714381438
 7 -5.13813723832383  0.46391620972097  0.76634705300530
 6 -4.40665037113711 -0.70877069906991  0.84026204940494
 6 -2.96105511091109 -0.31202062776278  1.17143749794980
 6 -3.02585602400240  1.08676134443444  1.61443217391739
 6 -4.46484347924792  1.47857860666067  1.08108513841384
 6 -2.90924600670067  1.36359864796480  3.06012742164216
 6 -1.87817127812781 -0.64998025942594  0.07733169146915
 6 -0.36679410201020 -0.39346369356936  0.48497262656266
 6  0.62780391759176 -0.64771828472847 -0.58795417591759
 8  0.26339757985799 -1.03374878247825 -1.67310364206421
 8  1.88935074557456 -0.47101449784978 -0.20315710461046
 7 -7.15352580048005  2.63658924872487  0.22409110461046
 6 -6.07522680168017  3.34632560836084  0.71574510811081
 6 -6.49021627472747  4.74106839623962  0.77013770097010
 6 -7.75111781878188  4.88594922642264  0.34526291759176
 6 -8.07217148874888  3.50895009030903 -0.05000245394539
 6 -5.50410836753675  5.85840830673067  1.08104286478648
 6 -8.71564936253625  5.99071010471047  0.29089607500750
 6 -8.52213610491049  7.19437555615562  0.85444169396940
 7 -9.13150542314231  0.67479034013401 -0.40166420012001
 6 -9.80546680638064  1.79614956805681 -0.59202552665266
 6 -11.20066916351635  1.54471281038104 -1.07184890439044
 6 -11.27359976387639  0.09889525362536 -1.28881759575958
 6 -9.98769445014501 -0.38799077337734 -0.85569058515852
 6 -12.22895171887189  2.54777534853485 -1.36706348114812
 6 -12.46305085138514 -0.77668507860786 -1.72750355885589
 6 -12.25235272367237 -1.11761417261726 -3.13373849244925
 7 -7.23678314661466 -1.40516012961296 -0.19385406240624
 6 -8.25826606640664 -2.30373554565457 -0.48710366556656
 6 -7.92240838643864 -3.67012528002800 -0.38270554785479
 6 -6.51567545164516 -3.52303664066407 -0.11935366726673
 6 -6.22585518191819 -2.09714799609961  0.03009581378138
 6 -8.68362582998300 -4.83279612201220 -0.58748722712271
 6 -5.32006647694769 -4.30226410991099  0.24893776637664
 8 -5.18558739663966 -5.52742722612261  0.28905593629363
 6 -4.24122770217022 -3.20722651245124  0.58530839613961
 6 -3.44664529542954 -3.66610183148315  1.80322069496950
 8 -3.59097069766977 -3.17425416161616  2.92300498159816
 8 -2.67968916261626 -4.65955067746775  1.68057663856386
 6 -2.05185577347735 -5.19209343844384  2.93487842334233
 6  2.83168568026803 -0.81127892249225 -1.15438663906391
 6  4.16053814281428 -0.49955813211321 -0.46945709470947
 6  5.04711819621962  0.28760502590259 -0.96599637233723
 6  4.93131155415541  1.25758840814081 -2.19835400070007
 6  6.39515384818482  0.27790964116412 -0.25265175037504
 6  7.55693323122312 -0.27875822272227 -1.07398434893489
 6  8.94479635223522 -0.21845697609761 -0.31945375817582
 6  10.20449107360736 -0.65966303800380 -1.01714268476848
 6  10.18053475367537 -2.11153208930893 -1.43616708170817
 6  11.51060393729373 -0.33693747454745 -0.11381051245125
 6  12.84752966066607 -0.68333238433843 -0.76960698359836
 6  14.01779124752475 -0.12017322012201  0.09102617011701
 6  15.41525765066507 -0.18314204330433 -0.51052929272927
 6  15.80411208010801 -1.67136477027703 -0.94014363206321
 6  16.45630973687369  0.40070443044304  0.50417492469247
 6  17.87242183158316  0.65674707310731 -0.06964277887789
 6  18.78234860436044  1.28320653765377  0.87425785878588
 6  20.24566323552355  1.45937627112711  0.40796555975598
 6  20.35497685148515  2.23217151435144 -0.92068306100610
 6  21.08609954075408  2.12123505980598  1.48489385278528
 1 -3.99797128162816  3.42259778117812  1.68279286618662
 1 -10.03343373607361  3.88279911491149 -0.50897628912891
 1 -10.43749703910391 -2.43950329112911 -1.05765241744174
 1 -2.69931638853885 -0.91814012791279  1.90672136333633
 1 -2.33402700790079  1.91928551115112  1.15471612201220
 1 -1.86088054555456  1.18786923982398  3.47970168366837
 1 -3.25762082208221  2.41343540104010  3.16767893329333
 1 -3.86820026272627  0.73193787778778  3.47341975477548
 1 -2.02435492039204 -1.66205616601660 -0.10775468466847
 1 -2.23746541904190 -0.08499124872487 -0.90160019961996
 1 -0.20797431483148  0.42215682958296  1.07856825592559
 1 -0.19404720672067 -1.19392390759076  1.26113006820682
 1 -5.90618939433943  6.73891253535353  0.64689039823982
 1 -5.36554354375438  6.14581794489449  2.28740503760376
 1 -4.47853180918092  5.46455762216222  0.86945012061206
 1 -9.57647970047005  5.77907405550555 -0.49912014021402
 1 -9.04038525442544  8.05065580448045  0.51309093089309
 1 -7.67434690049005  7.40888728822882  1.61395978147815
 1 -11.78347245234523  3.38992931893189 -2.12079508420842
 1 -13.11345101430143  1.91491538273827 -1.55001619311931
 1 -12.52992472357236  3.18288694339434 -0.56057730173017
 1 -12.71964674307431 -1.70021946704670 -1.06104105900590
 1 -13.46135485438544 -0.27046378317832 -1.71803733123312
 1 -12.91828818141814 -1.72905759195920 -3.55855574007401
 1 -12.39406297049705 -0.31599613721372 -3.86239973567357
 1 -11.33001928122812 -1.60714558165817 -3.46126474647465
 1 -9.37877748074808 -4.95620636353635 -1.53241650575057
 1 -8.22790215501550 -5.76489649384938 -0.85806541954195
 1 -9.24475436033603 -4.81920694199420  0.36680485788579
 1 -3.50848154405441 -3.55010826152615 -0.29830510201020
 1 -1.64981314781478 -4.53096953665366  3.54571748704871
 1 -2.77263687228723 -5.66246786438644  3.63276611551155
 1 -1.45959407090709 -6.00759003220322  2.27556150905091
 1  2.68800810491049 -1.87285912181218 -1.53690765576558
 1  2.65071254885489 -0.12649837023702 -2.06189934213421
 1  4.26844775037504 -1.03114532973297  0.50018323432343
 1  3.79387835133513  1.40197890829083 -2.41378974867487
 1  5.40288570027003  2.30147040594059 -1.89591605980598
 1  5.53418072567257  0.71205231273127 -3.07206593759376
 1  6.63424548744874  1.38537253725373  0.07445008780878
 1  6.39465358475848 -0.36158419581958  0.59594931163116
 1  7.31793917861786 -1.32276151135113 -1.54942626622662
 1  7.75038747464746  0.31634484258426 -2.06812973657366
 1  8.98748079967997  0.77425531053105 -0.02025439323932
 1  8.89621811051105 -0.92873838003800  0.57179504320432
 1  10.26515406680668 -0.03610107240724 -1.91329621912191
 1  9.42896788228823 -2.38107608410841 -2.23575950075007
 1  11.11883443914391 -2.19618640254025 -2.10129437333733
 1  10.40095298129813 -2.74638658065807 -0.71032047174717
 1  11.46704438533853  0.81121335153515  0.19805129262926
 1  11.20845389878988 -1.09530549184919  0.78607922952295
 1  12.79264258315832 -1.97008516971697 -1.02556022362236
 1  12.86107986048605 -0.47016632563256 -1.88743210451045
 1  13.92991442814281  1.02563511951195  0.27572491549155
 1  14.15763851695170 -0.62346195089509  1.00339685618562
 1  15.71028431693169  0.47152663766377 -1.51482584058406
 1  16.02739018191819 -2.19737002910291  0.03405195129513
 1  14.80642369306931 -2.22328470407041 -1.44412182728273
 1  16.73880350975098 -1.85783130803080 -1.44114558405841
 1  15.90877607830783  1.35476331003100  0.91140768506851
 1  16.63369781698170 -0.30807998309831  1.25222798399840
 1  18.10896183488349 -0.33253980138014 -0.28467180758076
 1  17.69629669416942  1.07343466236624 -1.23246682248225
 1  18.48512930553055  2.27056121382138  1.28425643094309
 1  18.75953311361136  0.69177335833583  1.71153115341534
 1  20.55440035273527  0.56564271247125 -0.05153808980898
 1  19.76448055465546  3.26799036093609 -0.83410700410041
 1  21.43568782088209  2.37901455425543 -1.23065442874287
 1  20.04431833623363  1.66295810661066 -1.82661963096310
 1  20.67780375557556  1.56615472457246  2.55968558575858
 1  21.94243594989499  2.24566579627963  1.19280424672467
 1  20.66903663356336  3.28645872917292  1.55244568506851

