%nproc=4
%Mem=2GB
# td=(NStates=1) CAM-B3LYP/6-31G(d,p) 

TD

0 1
<<<<<<< HEAD
12 -7.09540011301130  0.54127287538754 -0.01137344994499
 6 -4.93807842584258 -1.88564974337434  0.41454798749875
 6 -4.85603553245325  2.86731517881788  1.03736010091009
 6 -9.39419415491549  3.15642113761376 -0.35418827852785
 6 -9.50081039473947 -1.70581609260926 -0.86872330143014
 7 -5.11271469606961  0.49602942104210  0.60613103140314
 6 -4.48245795189519 -0.62326214821482  0.75576359955996
 6 -2.97871687708771 -0.38542796849685  1.20376073027303
 6 -3.02274571297130  1.07075974427443  1.71231196189619
 6 -4.37632462736274  1.57735848464847  0.97556458635864
 6 -3.08700378247825  1.28011029912991  3.25137654655466
 6 -1.94245770677068 -0.41100636203620  0.03825778407841
 6 -0.38260568316832 -0.28197254445445  0.56822095139514
 6  0.52402353955396 -0.69601311421142 -0.59616499699970
 8  0.17954919501950 -1.08433384098410 -1.71513784548455
 8  1.84634644514451 -0.55694309070907 -0.16553334223422
 7 -7.04836528442844  2.57443303310331  0.31959065456546
 6 -6.07120639963996  3.36414739053905  0.70608414201420
 6 -6.48321557465747  4.79156344574457  0.82107279447945
 6 -7.83754646164616  4.85250588208821  0.49678807010701
 6 -8.10168444004401  3.44062325762576  0.11400394669467
 6 -5.49877783448345  5.93977644354436  1.18644340484048
 6 -8.61849964756476  6.02943397709771  0.37382436783678
 6 -8.57654154545455  7.15314143274327  0.97592384218422
 7 -9.13779605220522  0.65221808290829 -0.52227626132613
 6 -9.86773303300330  1.80214016711671 -0.68400472457246
 6 -11.19111820842084  1.49923826292629 -1.13776549604960
 6 -11.30188259215921  0.07042240634063 -1.23715242924292
 6 -9.89788546924692 -0.35780775507551 -0.88232324842484
 6 -12.33368219191919  2.42617318831883 -1.33969074387439
 6 -12.31657620392039 -0.79890730083008 -1.81388219671967
 6 -12.28533602200220 -1.18434084528453 -3.23649876847685
 7 -7.14465393369337 -1.41389100270027 -0.23825850285028
 6 -8.30647088688869 -2.26882205430543 -0.60946590179018
 6 -7.88990513611361 -3.66085435293529 -0.47103438073807
 6 -6.54723860796080 -3.57066140314031 -0.11939367126713
 6 -6.19822241864186 -2.18813709500950  0.07955075927593
 6 -8.70800826822682 -4.84166700910091 -0.83393187158716
 6 -5.34889936023602 -4.33186707020702  0.20393326592659
 8 -5.18345718361836 -5.55442992639264  0.25289231993199
 6 -4.25775935533553 -3.20035582538254  0.62034189948995
 6 -3.62529316021602 -3.63151837313731  1.89945031793179
 8 -3.81823342394239 -2.98420515671567  2.96174885598560
 8 -2.77452864656466 -4.67355207760776  1.72273085398540
 6 -2.03617420532053 -5.09756398549855  2.85467040254025
 6  2.80439295099510 -0.79520731533153 -1.22341354175418
 6  4.22429451845185 -0.69593777007701 -0.57677782678268
 6  5.17252073647365  0.14079034443444 -0.99580935363536
 6  4.98906732973297  1.06215886518652 -2.24564873017302
 6  6.47872220502050  0.31701355155516 -0.34067055225523
 6  7.80972851075107 -0.26269661656166 -0.94084103460346
 6  9.02410428302830 -0.18404353475348 -0.04002581538154
 6  10.22179280378038 -0.75458252995300 -0.77894886538654
 6  10.25038173837384 -2.32094303040304 -0.97422088708871
 6  11.53243612051205 -0.34209799059906  0.04567543614361
 6  12.80065497319732 -0.48548259935994 -0.70619064196420
 6  13.99265873427343  0.02276107330733  0.16609367686769
 6  15.32010813571357 -0.20532426152615 -0.49691793159316
 6  15.74070573947395 -1.71904953875388 -0.80130974867487
 6  16.46478058395840  0.46819117911791  0.37180168736874
 6  17.79419400880088  0.57842924132413 -0.30246606120612
 6  18.78206857635763  1.37538575557556  0.58006843984398
 6  20.27127579677968  1.49403973747375  0.17435219841984
 6  20.44199555335534  2.43278157535754 -1.11673266596660
 6  21.17695862666267  1.92508544484448  1.35747111051105
 1 -4.05749723422342  3.72212773417342  1.33047763466347
 1 -10.13377377007701  3.94076491149115 -0.75342073357336
 1 -10.30675396479648 -2.39622896369637 -1.09081573377338
 1 -2.79050550745074 -0.95584389828983  2.16085677687769
 1 -2.11954555975598  1.88557213981398  1.33865451585159
 1 -2.05700015751575  0.88874932783278  3.59340305380538
 1 -3.31793685368537  2.26354041154115  3.68104026942694
 1 -4.03525696839684  0.92394707870787  3.76368878167817
 1 -2.06708919381938 -1.30890085048505 -0.58927283648365
 1 -2.10176184868487  0.42395964636464 -0.71917195679568
 1 -0.28117163456346  0.89245385928593  0.91498189728973
 1 -0.05962376437644 -0.98012252745275  1.26976093129313
 1 -5.65939471487149  6.89935857995800  0.35593130233023
 1 -5.59017600700070  6.35130849394940  2.25997229432943
 1 -4.44478843484348  5.66969813621362  0.94868804440444
 1 -9.50425247774777  5.95791193929393 -0.35494572277228
 1 -9.50725194109411  7.95338607750775  0.69584920672067
 1 -8.14739420522052  7.65841224072407  2.05071345684568
 1 -12.24272837793779  3.15317564356436 -2.26293929862986
 1 -13.28027769696970  1.96402029322932 -1.69711090259026
 1 -12.51170290139014  3.30325898059806 -0.69551079507951
 1 -12.46059083748375 -1.74417386248625 -1.36316127102710
 1 -13.23493221212121 -0.19760649744975 -1.68486401390139
 1 -13.18223457605761 -1.77052173837384 -3.45034491899190
 1 -12.44809837403741 -0.17919245684568 -3.83051654735474
 1 -11.39864614391439 -1.58487335443544 -3.48153677367737
 1 -8.76768637163716 -4.80797154005401 -2.06514977907791
 1 -8.14934429922992 -5.82154215841584 -0.49867948094809
 1 -9.72311219611961 -4.73317833913391 -0.20608243084308
 1 -3.46325702160216 -3.37023027372737 -0.07023229472947
 1 -1.39114728122812 -4.34587102680268  3.57783069836984
 1 -2.74038364696470 -5.63180479807981  3.46927976687669
 1 -1.16864497599760 -5.89844911811181  2.48471242414241
 1  2.75670497459746 -1.79269110501050 -1.61610557555756
 1  2.46485396299630 -0.17839355975598 -2.02303545574557
 1  4.40672157775778 -1.26212842804280  0.35722893889389
 1  3.92309127262726  1.34960367076708 -2.24227259695970
 1  5.69538495019502  1.95243550245024 -1.95605207340734
 1  5.29283659125913  0.56425753325333 -3.25700443144314
 1  6.63048511141114  1.28099209920992 -0.15356271347135
 1  6.34917903730373 -0.02881091849185  0.74633435013501
 1  7.59907729242924 -1.17461669686969 -1.36134745834584
 1  8.02792522842284  0.42245545364536 -1.82338526212621
 1  9.15038709030903  0.71032891789179  0.19984761696170
 1  8.75731422012201 -0.81119662586259  0.90874873857386
 1  10.15751330273027 -0.33032049434944 -1.78583347284728
 1  9.48727371287129 -2.57137511401140 -1.71841776657666
 1  11.16291884758476 -2.84010079397940 -1.21006525042504
 1  10.05920880688069 -2.90959290129013  0.03149370967097
 1  11.54338201910191  0.82236446664666  0.24909639713971
 1  11.53452650605061 -0.91401736303630  0.97258788038804
 1  13.00273359225923 -1.64409257045705 -0.68248591619162
 1  12.87035078757876  0.04113480448045 -1.77011037233723
 1  13.82615405210521  1.04182673867387  0.51378872187219
 1  13.87890064316432 -0.48801840654065  1.18918543504350
 1  15.48398168666867  0.31223070807081 -1.45964032203220
 1  16.07768521142114 -2.28995928802880  0.12957150325033
 1  15.09797284798480 -2.29958233383338 -1.39295671077108
 1  16.64389401880188 -1.52494801970197 -1.34166563606361
 1  16.21109631033103  1.52047988168817  0.68007455175518
 1  16.68175262246224 -0.23964313941394  1.30586334753475
 1  18.28681962066207 -0.37522406980698 -0.44844818521852
 1  17.65309237373738  1.22188950785078 -1.29514309010901
 1  18.27180797339734  2.40519467716772  0.67175518081808
 1  18.66640380068007  0.76242042304230  1.53646364666467
 1  20.51587650035004  0.39575572377238 -0.04556749274927
 1  20.20102420902090  3.34156771867187 -1.01740533393339
 1  21.44494874697470  2.48966561936194 -1.57710907420742
 1  19.78755265966597  1.87496930773077 -1.96593356235624
 1  21.04052002720272  1.14763287238724  2.15993561076108
 1  22.19235094139414  2.00449167886789  0.84101906820682
 1  20.79204893479348  2.97469755305531  1.79058949944995
=======
12 -7.20936150915091  0.62698144624462  0.08309599699970
 6 -4.93499811781178 -2.01922310071007  0.58270480318032
 6 -4.80432036093609  2.84821326862686  1.07977434233423
 6 -9.41705644114411  3.17886338183818 -0.47587044674467
 6 -9.47051736543654 -1.67661317231723 -0.99642607170717
 7 -5.15978940354035  0.38513833193319  0.73097351565157
 6 -4.37775748184819 -0.70441026302630  0.77488551175118
 6 -2.93685269066907 -0.42788221392139  1.12980333453345
 6 -3.08156159455946  1.01200386868687  1.59659038973897
 6 -4.41763875877588  1.50112086088609  1.18253528342834
 6 -2.83462854495450  1.27050933903390  3.19733114201420
 6 -1.86876033703370 -0.68731399279928  0.00595455375538
 6 -0.50543796639664 -0.58684303150315  0.50486461576158
 6  0.50327146434643 -0.82558607150715 -0.63636901740174
 8  0.21049228932893 -1.13111851945195 -1.76954328602860
 8  1.78486029652965 -0.50687808420842 -0.11332812171217
 7 -7.14806525442544  2.68040363016302  0.30404910041004
 6 -6.03850312931293  3.37147812361236  0.87504103770377
 6 -6.44827208030803  4.75117940734073  0.79822050925093
 6 -7.74436714371437  4.93448407990799  0.29789818111811
 6 -8.22236650825083  3.53250244554455  0.07564011031103
 6 -5.54297225392539  5.87640010591059  1.09389414991499
 6 -8.57879567716772  6.05128616231623  0.13243022842284
 6 -8.39170306160616  7.22733885248525  0.83057930773077
 7 -9.07296956955695  0.69334219531953 -0.58938297199720
 6 -9.87475373507351  1.78693864696470 -0.66001232533253
 6 -11.23299239583958  1.51004934403440 -1.08320003950395
 6 -11.30289269316932  0.12821818591859 -1.26185489948995
 6 -9.89353503420342 -0.37935991029103 -0.87474249034903
 6 -12.37524634833483  2.41728229922992 -1.26179295409541
 6 -12.45831037733773 -0.72504991509151 -1.77119792829283
 6 -12.18999648804881 -1.02939535073507 -3.26469158775878
 7 -7.27531700000000 -1.41859147274727 -0.13605828282828
 6 -8.25102534233423 -2.24894006610661 -0.54678963416342
 6 -7.83314946054605 -3.67022529002900 -0.44471174847485
 6 -6.57483136723672 -3.52318665566557 -0.03696542844284
 6 -6.17643023942394 -2.19948823012301  0.14490729492949
 6 -8.67016448384838 -4.81044388678868 -0.84984346274627
 6 -5.37666213651365 -4.38966284978498  0.21418429102910
 8 -5.38869770767077 -5.56322080548055  0.29006603730373
 6 -4.15662924232423 -3.43456924672467  0.51803166846685
 6 -3.56581721262126 -3.67289251055106  1.86496686958696
 8 -3.71529312991299 -3.03808054425443  2.92355503660366
 8 -2.70909210291029 -4.77038176057606  1.76867544844484
 6 -2.02799338723872 -5.09656388548855  2.97747268276828
 6  2.75331784348435 -0.77278507310731 -1.08048924932493
 6  4.15206729572957 -0.54765294159416 -0.58591874087409
 6  5.12806629102910  0.24989125452545 -0.99053882658266
 6  4.97338576157616  1.16273892319232 -2.15572973827383
 6  6.46945127792779  0.45033688388839 -0.30876736193619
 6  7.65974351225123 -0.13427377427743 -1.02342929342934
 6  8.91212308490849 -0.01478660906091 -0.16710852365237
 6  10.20351097559756 -0.55882295399540 -0.84928589908991
 6  10.09062576277628 -2.09931086718672 -1.23648711371137
 6  11.48530140704070 -0.24939872067207 -0.00872000340034
 6  12.76105101280128 -0.41601565266527 -0.70134015691569
 6  14.00866033443344 -0.06738794159416  0.18628569606961
 6  15.39609573447345 -0.12718644774477 -0.55194343414341
 6  15.76482815171517 -1.61921955575558 -0.95182480018002
 6  16.45148925482548  0.45618997899790  0.43992850005000
 6  17.80216480588059  0.68531993039304 -0.21125694029403
 6  18.94258462796279  1.34397261426143  0.70949138213821
 6  20.29500817001700  1.38544887838784  0.24467923112311
 6  20.50433178697870  2.00111840904090 -1.05747674037404
 6  21.18687961876188  1.93241617791779  1.39293465686569
 1 -4.12651413591359  3.56952247364736  1.47055164206421
 1 -10.21196158885889  3.90634146914691 -0.67458284978498
 1 -10.14197748714871 -2.46717605840584 -1.13742039423942
 1 -2.41163762066207 -1.00733904780478  1.92948363956396
 1 -2.04204780998100  1.49236281888189  1.23337398779878
 1 -1.80937539503950  0.92701315421542  3.45269898339834
 1 -3.03103816381638  2.28776283378338  3.53028519391939
 1 -3.67968141084108  0.73769845384538  3.71415382818282
 1 -2.20163264816482 -1.65240520092009 -0.28878278747875
 1 -2.03564523702370 -0.03067581718172 -0.92100213981398
 1 -0.20827434483448  0.35828044194419  1.00490088918892
 1 -0.24693249524953 -1.40860537573757  1.16929088428843
 1 -5.67885666106611  6.90146879097910  0.64563027222722
 1 -5.38668565796580  6.08323168626863  2.32498879597960
 1 -4.62749670567057  5.50947211361136  0.91357453305330
 1 -9.45334738723873  6.03230937903790 -0.44247447564756
 1 -8.87618883478348  8.08743948284828  0.63446306810681
 1 -7.52739220502050  7.18559495899590  1.49148753425343
 1 -12.29614371947195  2.84461478747875 -2.36623962866287
 1 -13.36934660386039  1.83964785598560 -1.16706789828983
 1 -11.93566529762976  3.25871452615262 -0.47184842884288
 1 -12.42304708310831 -1.71876132123212 -1.22620757565757
 1 -13.19710842974297 -0.12799953675368 -1.65779130663066
 1 -12.93809016161616 -1.59506419261926 -3.75751563606361
 1 -12.21253481768177 -0.04744928252825 -3.73975747144714
 1 -11.21507778707871 -1.65242010911091 -3.45456407640764
 1 -9.08535813881388 -4.77330807370737 -1.90850411451145
 1 -8.21462082688269 -5.83944394859486 -0.76553616661666
 1 -9.73036292119212 -4.92643766506651 -0.26154797739774
 1 -3.41188188408841 -3.37148039873987 -0.03450872237224
 1 -1.33319148564856 -4.40289672937294  3.29510242554255
 1 -2.72884249284928 -5.39195081268127  3.79272211111111
 1 -1.65790390189019 -6.01405067826783  2.72590654355436
 1  2.79867917201720 -1.89965180108011 -1.38591255625563
 1  2.77266474407441 -0.17067278767877 -1.89451260346035
 1  4.38258916451645 -1.29864207940794  0.23168638463846
 1  4.11204016751675  1.03520223062306 -3.02636100580058
 1  5.10541595329533  2.28910916981698 -2.08636510471047
 1  5.83637094469447  0.88937004450445 -2.99404813581358
 1  6.75249731263126  1.35198919891989 -0.07540489768977
 1  6.55175929532953 -0.12285032243224  0.68461817851785
 1  7.43925130983098 -1.32487172237224 -1.13124444804480
 1  8.04769720562056  0.40677388548855 -1.92662558615862
 1  8.86689874147415  1.07989587458746  0.30887852005201
 1  8.63868235693569 -0.74031953815381  0.82071993569357
 1  10.42805035643564  0.13705624332433 -1.79700458995900
 1  9.27589257475748 -2.15822379887989 -1.98513443824382
 1  11.09626218191819 -2.33636041994199 -1.55675991989199
 1  9.81317420342034 -2.64711665366537 -0.25989542924292
 1  11.41684936583658  0.86662889308931  0.38472996049605
 1  11.41505455885589 -0.95428138943894  0.80044066566657
 1  13.03047636653665 -1.54685284648465 -0.89663733133313
 1  12.77402115461546  0.15176586758676 -1.56531989328933
 1  13.94047548424843  0.82722527852785  0.71193853685369
 1  13.96408916201620 -0.79841944664466  0.99578609510951
 1  15.37961124962496  0.79401888688869 -1.29398375637564
 1  15.68247569046905 -2.26048634073407 -0.05553700760076
 1  14.96958000870087 -1.59661203680368 -1.77959537463746
 1  16.66097572697270 -1.62178770367037 -1.36921839133913
 1  16.09468466916692  1.43305113881388  0.77841438573857
 1  16.48281272847285 -0.16755593069307  1.35185794699470
 1  18.44092503120312 -0.24374092149215 -0.59771311171117
 1  17.60405747024702  1.28941626052605 -1.13461703750375
 1  18.52796358895890  2.34172833053305  0.97818582388239
 1  18.80640780108011  0.85274945594559  1.76943694399440
 1  20.74984989768977  0.36745289348935  0.36223328732873
 1  20.13939804640464  3.04258782068207 -1.03335692909291
 1  21.61235548764877  2.11157781058106 -1.43164452775278
 1  19.93878778317832  1.55413722452245 -1.86980394939494
 1  20.98317429262926  1.17280538963896  2.24501411861186
 1  22.26955866216622  2.18536976667667  0.89628459475948
 1  20.69809953985399  3.05329541284128  1.73195363586359
>>>>>>> 8e03b5b5abfc0030b3aa597dc0de36371bfbd096

