%nproc=4
%Mem=2GB
# td=(NStates=1) CAM-B3LYP/6-31G(d,p) 

TD

0 1
12 -7.10981155415542  0.70562931103110  0.03754144154415
 6 -4.87241185918592 -2.02972415081508  0.48521505420542
 6 -4.68727865676568  2.77073552085209  1.10291665656566
 6 -9.23931866736674  3.13617911341134 -0.33050591029103
 6 -9.57994830853085 -1.76071158215822 -0.81408783788379
 7 -5.10140356495650  0.39746956505651  0.77819823812381
 6 -4.43706341244124 -0.81456127812781  0.76635465866587
 6 -2.95152415781578 -0.47451687738774  1.23828418261826
 6 -2.98442188058806  0.96930959925993  1.56865759645965
 6 -4.33564055895590  1.41009175797580  1.17055408530853
 6 -2.73922900500050  1.32471475957596  3.06282769166917
 6 -1.92386584758476 -0.77600286168617  0.04642860116012
 6 -0.51705912851285 -0.67720206740674  0.53022715201520
 6  0.54719585678568 -0.83349686258626 -0.65101048154815
 8  0.16259749984998 -1.20271567916792 -1.85422175387539
 8  1.78016982748275 -0.62267966436644 -0.24278106700670
 7 -6.90498094599460  2.70048563836384  0.35813450895090
 6 -5.86936621562156  3.42378335413541  0.64905843944394
 6 -6.23921117421742  4.77817210661066  0.75584627182718
 6 -7.53119582658266  4.86243687518752  0.36687507880788
 6 -8.00897516911691  3.56094528982898  0.21265381168117
 6 -5.32186014271427  5.89961242714271  0.93662842334233
 6 -8.42630042764276  6.03622465616562  0.13824080948095
 6 -8.26212010331033  7.19923604220422  0.76430268006801
 7 -9.00905317791779  0.69161202230223 -0.44400843454345
 6 -9.77803406310631  1.90241019411941 -0.63154947904790
 6 -11.15521461806181  1.56744508360836 -1.07909962946295
 6 -11.21452385628563  0.23233859795980 -1.22380109410941
 6 -9.90137581828183 -0.37122909720972 -0.88725374147415
 6 -12.29468829252925  2.52324289528953 -1.34858163296330
 6 -12.31999654595460 -0.60359776987699 -1.74977578607861
 6 -12.27452494089409 -1.01327373857386 -3.23231835043504
 7 -7.24593406170617 -1.32856246984698 -0.09477415441544
 6 -8.30452069186919 -2.13613878597860 -0.51631658685869
 6 -7.97446359195920 -3.59467773527353 -0.39859713701370
 6 -6.59714359845985 -3.56747108410841 -0.07953968586859
 6 -6.20756335273527 -2.17430571187119  0.14675747994800
 6 -8.80236770417042 -4.68047088948895 -0.70178865726573
 6 -5.43795826612661 -4.42435631913191  0.22561543414341
 8 -5.37129596749675 -5.62305678907891  0.26124315501550
 6 -4.28770234963496 -3.38544433423342  0.49623948924892
 6 -3.55315594649465 -3.80485570687069  1.76026639953995
 8 -3.73979558015802 -3.14752148834883  2.85477815891589
 8 -2.77903909760976 -4.92025674807481  1.71256983788379
 6 -2.18659924782478 -5.29247347644764  2.90580551605161
 6  2.78124063576358 -0.94732252685269 -1.30263146354635
 6  4.08560064906491 -0.63630180648065 -0.68313846284628
 6  5.11222470687069  0.24305057045705 -1.04615438813881
 6  5.00453887688769  1.12355500480048 -2.26387055235524
 6  6.28462279507951  0.25904775497550 -0.18364484968497
 6  7.63428096599660 -0.29550989788979 -0.97076402690269
 6  8.85005687828783 -0.12728785918592 -0.11816362916292
 6  10.19046967146715 -0.60842791449145 -0.82269323982398
 6  10.06802350255025 -2.02670360646065 -1.31271473647365
 6  11.34612748964897 -0.22325610641064  0.09313018161816
 6  12.73131803950395 -0.51771582268227 -0.51706172907291
 6  13.86349581798180 -0.14223542634263  0.40368743624362
 6  15.29176530143014 -0.09089281838184 -0.40723896369637
 6  15.62551422032203 -1.43764139793979 -0.73314293199320
 6  16.37953205910591  0.61388574857486  0.55428993619362
 6  17.71788637803780  0.81763316171617 -0.13422923752375
 6  18.76579694919492  1.49800801780178  0.77495792879288
 6  20.22163083228323  1.55295562906291  0.14441920512051
 6  20.23649500330033  2.31016931413141 -1.13524451715172
 6  21.20563149394940  2.09601253755376  1.12539790319032
 1 -3.86727821232123  3.45580110151015  1.54302888978898
 1 -9.81387177987799  4.14007484248425 -0.67729312081208
 1 -10.26377966736674 -2.56968630943094 -0.99905655785578
 1 -2.59945640254025 -1.02885119901990  2.23216390759076
 1 -1.98379198439844  1.54122770537054  1.02640329072907
 1 -1.94913937143714  0.58686913981398  3.62391610511051
 1 -2.66224128412841  2.39007306480648  3.34426659205920
 1 -3.69951339403940  0.90585526952695  3.65151756455646
 1 -2.13324580948095 -1.79914987538754 -0.44798870807081
 1 -2.21341301380138 -0.08806155575558 -0.81012105170517
 1 -0.42444596199620  0.40790540444044  0.78415881498150
 1 -0.34527232923292 -1.36075059025903  1.30418437363736
 1 -5.69379815521552  6.74032267636764  0.23065877507751
 1 -5.41299828922892  6.55440880398040  1.97629392649265
 1 -4.19505346134614  5.61594276067607  0.75373854945495
 1 -9.18645069756976  6.16971311941194 -0.48969919811981
 1 -8.98225944184419  7.95045578447845  0.84138376017602
 1 -7.79606907270727  7.27422382188219  1.78973735923592
 1 -12.16238034313431  3.26114644064406 -2.08668167286729
 1 -13.12530219941994  1.96674056525653 -1.65751694319432
 1 -12.49874160526053  2.86350500520052 -0.39888113211321
 1 -12.35738051645165 -1.54061350645064 -1.14500945584558
 1 -13.25069378827883  0.08906216941694 -1.60063559105911
 1 -13.30244659725973 -1.56046073227323 -3.59558944344434
 1 -12.15017858205821 -0.00119465706571 -3.82591608730873
 1 -11.41846812611261 -1.53712857995800 -3.50030865086509
 1 -9.30700030303030 -4.70814155705571 -1.77656092019202
 1 -8.46755612041204 -5.62174217841784 -0.58270788378838
 1 -9.81704158905891 -4.88932395369537 -0.11707352995300
 1 -3.54676537243724 -3.67626087678768 -0.19572484398440
 1 -1.87344551105111 -4.22306874657466  3.17366028132813
 1 -2.77038664726473 -5.73571518911891  3.52868570747075
 1 -1.19911802330233 -5.89590886408641  2.58478243114311
 1  2.65046435053505 -1.99563139903990 -1.66645061006101
 1  2.66004348194819 -0.20222594299430 -2.10285343754375
 1  4.31319222482248 -1.10113232843284  0.36317953395340
 1  4.03468243174317  1.29152786318632 -2.74379274897490
 1  5.58019343104310  2.08340859975998 -2.09955642384238
 1  5.56030333793379  0.69747085458546 -3.12936166716672
 1  6.60644270717072  1.34080808080808 -0.10675803300330
 1  5.94522864226423 -0.20184822222222  0.70945066176618
 1  7.34676206090609 -1.25835507070707 -1.12400372397240
 1  7.89867230313031  0.07266047414742 -1.94541746534653
 1  9.12296434803480  0.88374625962596  0.33494112631263
 1  8.58701719041904 -0.76976248244824  0.73410127382738
 1  10.12602015341534 -0.08219568186819 -1.79639452895289
 1  8.94050903640364 -2.23394137063706 -1.68935486028603
 1  11.00922347804780 -2.46656344024402 -1.87357160106011
 1  9.96940982698270 -2.89175111711171 -0.46211565126513
 1  11.46647432833283  0.81978420862086  0.43821530903090
 1  11.08753180658066 -1.07937389868987  0.84331495309531
 1  12.93226654555455 -1.61753991519152 -0.72555022262226
 1  12.88808256075608 -0.12839214821482 -1.48522188348835
 1  13.83133457015702  0.96345890189019  0.66695403840384
 1  13.90773352645265 -0.89541914661466  1.26155267176718
 1  15.05545883438344  0.78772825782578 -1.27198155615562
 1  15.95283272617262 -2.05107539963996  0.09734828092809
 1  14.88230128082808 -1.79774214981498 -1.44585200030003
 1  16.60830045944595 -1.59197472237224 -1.26875834533453
 1  15.97145234593459  1.67285511921192  0.80660720502050
 1  16.43677812501250  0.21535236013601  1.63412617381738
 1  18.26358729742974 -0.11774832223222 -0.68909224962496
 1  17.55530259475948  1.41357867676768 -0.94669824562456
 1  18.40104089668967  2.43182734043404  1.02040004530453
 1  18.79168632893289  0.89028320932093  1.83717371767177
 1  20.59428434113411  0.47972412061206 -0.24655759175918
 1  19.53833794039404  3.34940850275028 -1.05051864526453
 1  21.32665691779178  2.50584723752375 -1.49148051135113
 1  19.84189809420942  1.60339215001500 -1.89485645464546
 1  21.54985096029603  1.39156726582658  1.87808742594259
 1  22.16481818811881  2.35530676037604  0.54056902320232
 1  20.68033776367637  2.91437152045205  1.62726316681668

