%nproc=4
%Mem=3GB
# td=(NStates=1) iop(3/107=0140000000,3/108=0140000000) CAM-B3LYP/6-31G(d,p) 

TD

0 1
12 -7.18527321902190  0.56737512101210  0.27772414241424
 6 -4.89287810431043 -1.94799202980298  0.47428283068307
 6 -4.90529656025603  2.82662138003800  1.14973507870787
 6 -9.52842960746075  3.04078163116312 -0.25606808210821
 6 -9.55577167516752 -1.82966473217322 -0.80916772167217
 7 -5.03440047124712  0.42959905050505  0.67364518851885
 6 -4.26000824812481 -0.74566570977098  0.62495038973897
 6 -2.86567278787879 -0.31630002800280  1.11651732083208
 6 -3.03982720962096  1.17014571617162  1.46892317161716
 6 -4.44984521922192  1.51217586868687  1.13162755665567
 6 -2.96930311111111  1.30560337963796  3.07572288688869
 6 -1.87750348004800 -0.61099708890889 -0.06868305800580
 6 -0.53399910911091 -0.35577882588259  0.42188557085709
 6  0.56976890009001 -0.57182380428043 -0.60056984708471
 8  0.36065628242824 -0.84141791949195 -1.77943533663366
 8  1.82358095649565 -0.28123806220622 -0.07812319991999
 7 -7.21876952035204  2.62795600550055  0.38281920602060
 6 -6.07534767856786  3.39830359775978  0.73420929702970
 6 -6.43719862826283  4.76863372697270  0.74829308800880
 6 -7.80938572387239  4.89873167836784  0.30134626102610
 6 -8.24322384988499  3.51909884868487  0.06395439403940
 6 -5.50584261816182  5.89678915261526  1.03583373857386
 6 -8.57199720772077  5.98891916151615  0.15822643514351
 6 -8.32548095809581  7.35196434613461  0.57306136543654
 7 -9.13475251635164  0.65197219161916 -0.43211978587859
 6 -9.91806929322932  1.74948827312731 -0.55689850335034
 6 -11.25616956965697  1.45261470597060 -1.03578843854385
 6 -11.26014550175018  0.14359190499050 -1.14699472777278
 6 -9.88495609920992 -0.37652784618462 -0.73875607690769
 6 -12.41377231493149  2.45600084148415 -1.24043349604960
 6 -12.37541133403340 -0.80327645144514 -1.51663099369937
 6 -12.25092700160016 -1.32640283258326 -3.05778642984298
 7 -7.25527849024903 -1.38684352005201 -0.20324299939994
 6 -8.28163248954896 -2.28924747024702 -0.51499307920792
 6 -7.77289932973297 -3.61531208260826 -0.55989628942894
 6 -6.48074586508651 -3.52413539563956 -0.21127320902090
 6 -6.16203993569357 -2.18018597439744  0.04625646104610
 6 -8.57542988248825 -4.86846294469447 -0.91282466556656
 6 -5.31822728562856 -4.36329989338934  0.17563253735374
 8 -5.06432742504250 -5.61667852485249  0.08510445904590
 6 -4.18307280988099 -3.26488393579358  0.50120844244424
 6 -3.49163334013401 -3.62340028272827  1.82135810431043
 8 -3.65743852725273 -3.02985034293429  2.81229458765877
 8 -2.73333868666867 -4.75747436593659  1.66518555605561
 6 -2.23403236023602 -5.26298150405040  2.98303570397040
 6  2.84029034943494 -0.59779806870687 -1.10940445764576
 6  4.18003888908891 -0.41305657355736 -0.53078564136414
 6  5.12715820712071  0.53148967696770 -0.92210508750875
 6  5.06323004860486  1.32316999229923 -2.14367850285028
 6  6.45644192289229  0.46274689068907 -0.18210873527353
 6  7.67118857145715 -0.09249779777978 -0.97728805750575
 6  9.01478919051905 -0.04784660076008 -0.16736283868387
 6  10.14612007260726 -0.56857852105211 -0.96613233323332
 6  10.10885416201620 -2.08891677157716 -1.43805077107711
 6  11.46238090189019 -0.45991088218822 -0.04929289178918
 6  12.84379211471147 -0.64139417291729 -0.67491499659966
 6  13.97584885668567 -0.19258497279728  0.17773418501850
 6  15.28057404840484 -0.29272835643564 -0.40668632113211
 6  15.66593286428643 -1.65841422972297 -0.91757358365837
 6  16.38604559725973  0.32013853115312  0.48453318801880
 6  17.77800538823882  0.54708843844384 -0.18386491349135
 6  18.75882630123012  1.17474555305531  0.79281253795380
 6  20.26576938133813  1.21870130263026  0.33269997599760
 6  20.35108795459546  2.08462576767677 -0.98293298919892
 6  21.17146221322132  1.83364506440644  1.38552249224922
 1 -4.23146350985099  3.63719697109711  1.52908900470047
 1 -10.23400552385239  3.79809208370837 -0.33266779297930
 1 -10.49832425652565 -2.39425496059606 -0.86318413781378
 1 -2.64040132733273 -0.88961916461646  2.10014650535053
 1 -2.28681214751475  2.00140220132013  0.93078672767277
 1 -1.92826591299130  1.12632173857386  3.45160549794979
 1 -3.45029213831383  2.36571579437944  3.26969499169917
 1 -3.61357415791579  0.47140229452945  3.39349103430343
 1 -1.80326544554455 -1.59891056185619 -0.40664867196720
 1 -2.06338270727073 -0.10931331153115 -0.89451618621862
 1 -0.49344477317732  0.59569915721572  0.86642050505050
 1 -0.20896931723172 -1.04281504810481  1.20347380568057
 1 -5.73355753345335  6.80473798579858  0.50755058635864
 1 -5.46881835313531  6.14083696509651  1.99331134363436
 1 -4.51914675927593  5.59551381938194  0.76496722932293
 1 -9.48458871867187  6.01876525852585 -0.55846719941994
 1 -8.83233229692969  8.03812353335334  0.02323209890989
 1 -7.52326025812581  7.42906974337434  1.19695865616562
 1 -12.31910238323832  3.18423757085709 -2.16713254475448
 1 -13.35729302700270  1.57583632603260 -1.43421915011501
 1 -12.78550958365837  2.97856519061906 -0.45131557105711
 1 -12.43486545144514 -1.67569849264926 -0.73681718261826
 1 -13.30172247134714 -0.17891060156016 -1.60959671407141
 1 -13.19127432663266 -2.02638630073007 -3.10359131723172
 1 -12.24615502120212 -0.22632110341034 -3.71727070547055
 1 -11.37596243564356 -1.83320434763476 -3.05185346354636
 1 -8.99355397399740 -4.49036553735373 -1.90818688168817
 1 -7.99674405960596 -5.82972892619262 -0.87862781788179
 1 -9.45231941094109 -4.97913636203620 -0.42253452215221
 1 -3.36588410691069 -3.24045065066507 -0.20112785088509
 1 -1.89663305090509 -4.46783899729973  3.54980669826983
 1 -3.14740117741774 -5.63025255015502  3.67567860556056
 1 -1.44734525502550 -5.98901968676868  2.91705506660666
 1  2.73212126692669 -1.70684730753075 -1.37452890159016
 1  2.58730517181718 -0.01953386858686 -2.06314737223722
 1  4.19888037473747 -1.09992840664066  0.23939533973397
 1  4.14397970947095  1.20756629932993 -2.50714119981998
 1  5.36654358655866  2.43662408630863 -1.75361279967997
 1  5.66287585608561  0.92982417331733 -3.00972722962296
 1  6.72563074697470  1.63849382998300 -0.00807119321932
 1  6.15598347044704  0.17248991229123  0.87572376787679
 1  7.56391851465146 -1.02938361136114 -1.32542729992999
 1  7.83411597009701  0.49750885388539 -1.98078890179018
 1  9.12260830513051  0.94884438193819  0.16824925302530
 1  8.98725184598460 -0.57571592429243  0.80596672007201
 1  10.20942557435744 -0.02640649284929 -1.88432359035904
 1  9.30210982008201 -2.33370165366537 -2.14115249714971
 1  10.97167630823082 -2.47192059135914 -1.77242260036004
 1  9.84972716981698 -2.76333044774477 -0.66447384108411
 1  11.46636827842784  0.47352378577858  0.36144391519152
 1  11.29239683518352 -1.20117141474147  0.78363468356836
 1  13.02405035753575 -1.61229864916492 -1.07325959745975
 1  12.70247607750775 -0.03321838583858 -1.64620895459546
 1  13.71748316861686  0.87230259355936  0.63436826552655
 1  14.11402971357136 -0.60959733863386  1.18386076007601
 1  15.48065846724672  0.45483888088809 -1.21180244904490
 1  15.61091488828883 -2.50322966416642 -0.24342247774777
 1  15.01104274867487 -2.00630515051505 -1.78966033953395
 1  16.59995827542754 -1.61238213521352 -1.13205971927193
 1  15.98598187168717  1.32918125182518  0.90160607690769
 1  16.37424150195019 -0.32892917771777  1.25555405010501
 1  18.15001173887389 -0.35670218421842 -0.53725392099210
 1  17.61813912351235  1.16450534463446 -0.91681742534253
 1  18.48857791469147  2.34436570457046  0.91606355315532
 1  18.71030699319932  0.47501234073407  1.56611985748575
 1  20.68410824312431  0.21359235683568  0.25737162936294
 1  20.20107692619262  3.03212398889889 -0.92271445614561
 1  21.33077687848785  2.08300944304430 -1.08329631083108
 1  19.77997639523953  1.71541183138314 -1.79808819321932
 1  21.32883673717372  1.13740938183818  2.35752942174217
 1  22.30873876667667  1.79950042074207  1.12061871547155
 1  20.85283536203621  2.82249836703670  1.62662979967997

