%nproc=4
%Mem=3GB
# td=(NStates=1) iop(3/107=0140000000,3/108=0140000000) CAM-B3LYP/6-31G(d,p) 

TD

0 1
12 -7.19597428912891  0.61107949144914  0.10772714271427
 6 -4.92161097759776 -1.92976020662066  0.41923732613261
 6 -4.76007203780378  2.82369108700870  1.24812491769177
 6 -9.40146691119112  3.09266681968197 -0.38630110541054
 6 -9.47386348434843 -1.74926669236924 -0.79389619451945
 7 -5.17393442464247  0.41427751835184  0.75104292829283
 6 -4.34962721002100 -0.73652479567957  0.73220111481148
 6 -2.94290051065107 -0.44524292229223  1.13064873397340
 6 -2.96190941784178  1.07525622722272  1.71626790609061
 6 -4.39494972967297  1.49981463256326  1.19122351625163
 6 -2.89972615341534  1.29403222252225  3.13683899849985
 6 -1.98136386608661 -0.66712270147015  0.04880869116912
 6 -0.42507821702170 -0.57658090609061  0.55073845614561
 6  0.57113903710371 -0.67087370927093 -0.61432122222222
 8  0.18383860066007 -0.98469224692469 -1.76273366646665
 8  1.81422002040204 -0.52157209560956 -0.15933132073207
 7 -7.11859950335034  2.61432464236424  0.33782470657066
 6 -6.01766190999100  3.43011677907791  0.87417329342934
 6 -6.44182909130913  4.70809767336734  0.81836009470947
 6 -7.68321310661066  4.83080488568857  0.33488961536154
 6 -8.11800132763276  3.48275521432143  0.09555755435544
 6 -5.53248528242824  5.80370984468447  1.22092224742474
 6 -8.54088409640964  5.98468873847385  0.08602921542154
 6 -8.49223763376338  7.20310946064606  0.55538959825983
 7 -9.13752279337934  0.67094408880888 -0.59414598849885
 6 -9.85611309760976  1.84870819511951 -0.70760357385739
 6 -11.15609956265627  1.49633907840784 -1.16486134583458
 6 -11.29701918911891  0.09943748954895 -1.23103313161316
 6 -9.92237984158416 -0.39506970037004 -0.89126132743274
 6 -12.34217515521552  2.50322556395640 -1.39779923262326
 6 -12.40032382528253 -0.71725784958496 -1.76684601520152
 6 -12.31626353525353 -1.15783597589759 -3.26068671987199
 7 -7.27773073547355 -1.30468530423042 -0.05869854495450
 6 -8.32900722702270 -2.27452599809981 -0.51426300620062
 6 -7.81718375817582 -3.63858440984098 -0.39254955475548
 6 -6.54033182368237 -3.57676065816582 -0.10318239993999
 6 -6.19789352105211 -2.16270422622262  0.09095093049305
 6 -8.80497283678368 -4.81087718611861 -0.70288367146715
 6 -5.20715617851785 -4.41057462086209  0.15861083518352
 8 -5.16846783908391 -5.55760261726173  0.08636458505851
 6 -4.18221272387239 -3.26625407280728  0.52045036663666
 6 -3.49341351815182 -3.66118406110611  1.77290325882588
 8 -3.72697548094810 -3.18480583848385  2.88164152235224
 8 -2.63430878367837 -4.63362198069807  1.64325336283628
 6 -2.06137509450945 -5.20717592349235  2.82107950835084
 6  2.93449977037704 -0.59301759065907 -1.15620913811381
 6  4.24721560676068 -0.37457272517252 -0.45743830663066
 6  5.13548904020402  0.46977350535053 -0.89792266926693
 6  5.07928165376538  1.24413208850885 -2.05543967896790
 6  6.43321960066007  0.48580919691969 -0.18743926832683
 6  7.60522197479748  0.15077652965297 -0.93616394509451
 6  8.90292800440044 -0.04066588268827 -0.08294439683968
 6  10.19016447704771 -0.50766242944294 -0.73348906890689
 6  10.05646892349235 -1.94230211011101 -1.15337230323032
 6  11.38520318411841 -0.31510640174017  0.08238027552755
 6  12.82130986648665 -0.43049308280828 -0.64485199029903
 6  13.96657792959296 -0.12720843514351  0.26198260986099
 6  15.33022901390139 -0.19557864146415 -0.45098075057506
 6  15.53006927792779 -1.71914030233023 -0.94491631793179
 6  16.44003099579958  0.38355487278728  0.41767650235023
 6  17.84519210691069  0.31821555115512 -0.21506803380338
 6  18.82366278487849  1.05035311381138  0.62070532723272
 6  20.39093189758976  1.24431386388639  0.12385909190919
 6  20.34321716751675  2.05565287038704 -1.15154985088509
 6  21.13000806780678  1.90136183608361  1.26374031403140
 1 -3.99205956945695  3.47606085748575  1.56619271507151
 1 -10.07885000830083  3.76164843934393 -0.51541606780678
 1 -10.30026445054505 -2.44170970607061 -0.99255707510751
 1 -2.69476676387639 -0.97900810351035  2.03728021872187
 1 -2.35592905920592  1.68694075517552  1.13419706870687
 1 -2.00779386578658  0.88434754115412  3.66624696209621
 1 -3.01305841494149  2.34269349214922  3.29537755995600
 1 -3.72485528602860  0.74868002230223  3.90302198739874
 1 -2.21266638563856 -1.51033170397040 -0.40495850295029
 1 -2.17787415641564  0.00244786458646 -0.70469720432043
 1 -0.25123055175518  0.59738932623262  0.98838270127013
 1 -0.15310373067307 -0.99459022562256  1.33895735403540
 1 -5.84617879557956  6.71868938093809  0.64080391169117
 1 -5.71388285958596  6.26554943634364  2.30046205870587
 1 -4.63943878847885  5.44562883088309  0.94111484408441
 1 -9.32831309110911  5.77386076807681 -0.55479683238324
 1 -9.25870493419342  7.92980270127013  0.21048082378238
 1 -7.73294122622262  7.43176001240124  1.37385634593459
 1 -12.02595306830683  2.96063521062106 -2.45377120862086
 1 -13.24517181488149  1.85537427982798 -1.75933166136614
 1 -12.38999003170317  3.32377971207121 -0.51165160466047
 1 -12.40553251815181 -1.60759168196820 -1.06724022492249
 1 -13.36552885198520 -0.05870858135814 -1.86872262666267
 1 -13.27059225842584 -1.63148681078108 -3.62440339843984
 1 -12.08503890959096 -0.13124159545955 -3.63368234663466
 1 -11.40069490889089 -1.61918294549455 -3.57875615381538
 1 -9.07389200780078 -4.84835133593359 -1.68890495349535
 1 -8.41126551175117 -5.65603155645565 -0.46654660976098
 1 -9.57310148914892 -4.70119856825683  0.11989972127213
 1 -3.28521604010401 -3.33979058465847 -0.21361910001000
 1 -1.51710509810981 -4.58069028242824  3.49150086768677
 1 -2.82751918921892 -5.74031355625563  3.43535457315732
 1 -1.46757727822782 -6.08764954975498  2.43982734383438
 1  2.70038809360936 -1.45176179897990 -1.64480592929293
 1  2.67106354765477  0.20007809260926 -2.03074413191319
 1  4.13679416611661 -0.93934234803480  0.58445984618462
 1  4.02596790829083  1.48363390609061 -2.44770525622562
 1  5.56209314151415  2.15546597049705 -1.91109854825483
 1  5.52832240074008  0.86912810371037 -2.98978523542354
 1  6.71982016591659  1.43748372897290  0.01275088898890
 1  6.37416528862886  0.13047571087109  0.70339653515352
 1  7.39771189398940 -0.82806347934793 -1.38235299249925
 1  8.04826738523852  0.76142524552455 -1.74881570447045
 1  9.21941798609861  0.94357385488549  0.20222265036504
 1  8.52407552835284 -0.46223457615762  0.81935805920592
 1  10.25457008880888  0.33835998379838 -1.61101625962596
 1  9.35051466056606 -2.11818010151015 -1.89288767066707
 1  10.89228836943694 -2.21259465876588 -1.90535589368937
 1  9.75485768286829 -2.56311042574257 -0.28597599129913
 1  11.35661730333033  0.73701013441344  0.53763153395340
 1  11.35072266776678 -0.91738303590359  1.02873919401940
 1  12.99810776327633 -1.40531795109511 -1.00610288178818
 1  12.78796462636264  0.12868780478048 -1.47377171087109
 1  13.71375279557956  0.94725008830883  0.74579940864086
 1  14.12379068966897 -0.71902828172817  1.25198757275728
 1  15.09311971337134  0.56462985998600 -1.22808407720772
 1  15.64823862066207 -2.36963630483048 -0.07288542404240
 1  14.78062970737074 -1.95608012801280 -1.66101747524752
 1  16.60749902950295 -2.04512540954095 -1.25853236653665
 1  16.30228350185018  1.26704503820382  0.73569948624863
 1  16.33738781658166 -0.17649393419342  1.55143363806381
 1  18.13627036473648 -0.76987350135014 -0.60092028762876
 1  17.76374368396840  0.95113400750075 -1.16417216081608
 1  18.60767982488249  2.22771403940394  0.83583553035304
 1  18.97975393789379  0.35210004950495  1.52250549604961
 1  20.78745857815782  0.22004300190019 -0.10992510031003
 1  19.87037385588559  2.86348712521252 -1.06519870457046
 1  21.37894169496950  2.36627776987699 -1.65683366456646
 1  19.74027242484248  1.77554784498450 -1.94385276967697
 1  21.14642849634964  1.40349599049905  2.06868053685369
 1  22.11747964076407  2.07385785648565  0.76011266486649
 1  20.71582166066607  2.85807192439244  1.43589072577258

