%nproc=4
%Mem=3GB
# td=(NStates=1) iop(3/107=0140000000,3/108=0140000000) CAM-B3LYP/6-31G(d,p) 

TD

0 1
12 -7.19368406010601  0.58041642514251  0.13008937893789
 6 -4.90447926442644 -1.91143837443744  0.53072847524752
 6 -4.80775680628063  2.89160787868787  1.14455456065607
 6 -9.40288705320532  3.23675122812281 -0.39039151445145
 6 -9.51547764576458 -1.67294906060606 -1.08032483738374
 7 -5.11188822002200  0.41530762136214  0.69486731073107
 6 -4.32399464676468 -0.69696083928393  0.80621851655166
 6 -2.99528574917492 -0.36208460646065  1.23824949404940
 6 -3.05568879577958  1.02253095469547  1.70122640194019
 6 -4.40793102780278  1.53945859695970  1.14779917381738
 6 -2.90283646444644  1.20996381568157  3.23496881148115
 6 -1.93176890659066 -0.62559854905491  0.15873968426843
 6 -0.42300801000100 -0.52134538253825  0.54288767106711
 6  0.46905882908291 -0.62298892079208 -0.58088787888789
 8  0.17746796359636 -0.92124590229023 -1.71622901600160
 8  1.76508510691069 -0.36930686908691 -0.20220560816082
 7 -7.07803544694469  2.61802501240124  0.28727965206521
 6 -5.99837998179818  3.39484325172517  0.77328320442044
 6 -6.26509141754175  4.78463532713271  0.67249550825083
 6 -7.61963674897490  4.82536434163416  0.36108223462346
 6 -8.08898842634263  3.52680961976198  0.03459145774577
 6 -5.51181321522152  5.82558203190319  1.28494865006501
 6 -8.56197620562056  6.02103237283728  0.18602921542154
 6 -8.39170758075808  7.10274942464246  0.79873393269327
 7 -9.08994803590359  0.66407340174017 -0.51488806270627
 6 -9.88345583188319  1.90290361466147 -0.64876769026903
 6 -11.14935888858886  1.44309375387539 -1.05217007670767
 6 -11.21964145134513  0.21583912971297 -1.28201823012301
 6 -9.86665426902690 -0.37920811421142 -0.97930013131313
 6 -12.16659759745975  2.55435067646765 -1.49828928162816
 6 -12.33862765566557 -0.68224434823482 -1.71656098669867
 6 -12.13680558945895 -1.22689288158816 -3.12456310751075
 7 -7.20828379077908 -1.37187202290229 -0.23398607370737
 6 -8.24396872317232 -2.22870141564156 -0.61719329922992
 6 -7.83331537133713 -3.53867441884188 -0.55094539433943
 6 -6.41929972047205 -3.56093907600760 -0.15091717341734
 6 -6.20596432813281 -2.21118907470747  0.05098693409341
 6 -8.56228856835684 -4.73281938033803 -1.02698608170817
 6 -5.26427189008901 -4.33427699109911  0.24355933003300
 8 -5.13340433273327 -5.55545240224022  0.29109505810581
 6 -4.20841534413441 -3.28292573997400  0.72148046964696
 6 -3.68700287708771 -3.68093603630363  1.93100906940694
 8 -3.84924770817082 -3.15391274917492  3.04254761296130
 8 -2.84887023982398 -4.78148676717672  1.77827686518652
 6 -2.25190414741474 -5.25276048194819  3.07285468586859
 6  2.72623894429443 -0.59356764566457 -1.18512202940294
 6  4.08036892209221 -0.39460472837284 -0.62418498129813
 6  5.17062255355536  0.28614514251425 -0.96608948594859
 6  5.10726445204520  1.00631830713071 -2.28523265826583
 6  6.41088736743674  0.25342595859586 -0.14752527692769
 6  7.62191364396440 -0.33560210821082 -0.89691001970197
 6  8.89405711731173 -0.41591340744074  0.04347824542454
 6  10.17731319191919 -0.64455611881188 -0.85642136213621
 6  10.05420869746975 -2.00756863676368 -1.44921188718872
 6  11.42434709850985 -0.49457434853485 -0.03463142564256
 6  12.71156889238924 -0.45284531803180 -0.77996550165017
 6  13.95067633943394 -0.06244195849585  0.17463387498750
 6  15.36288227922792 -0.14947403100310 -0.44345999849985
 6  15.80548681968197 -1.53393178147815 -0.94807663396340
 6  16.40171716441644  0.45029154645465  0.48792352705271
 6  17.82618020572057  0.60087381698170 -0.14713124012401
 6  18.78275869446945  1.27443552205221  0.72836609330933
 6  20.11592439683968  1.38200763326333  0.14720142614261
 6  20.32294514031403  2.24608191329133 -1.08912360826083
 6  21.05695076207621  1.95206690659066  1.19605354535454
 1 -4.00412077557756  3.48849210061006  1.44191028682868
 1 -10.07775989928993  3.90457273177318 -0.39793431963196
 1 -10.22687711181118 -2.50483601870187 -1.48410623002300
 1 -2.63693098029803 -1.01355155785579  1.91059755045505
 1 -2.31867533383338  1.41973403450345  0.93010665966597
 1 -2.06644973137314  0.53337244364436  3.70908124552455
 1 -2.73711082018202  2.34517374017402  3.29979800200020
 1 -3.94396719721972  0.83677883218322  3.61812349754975
 1 -1.96304142314231 -1.62693336413641 -0.26778478557856
 1 -2.07650401940194  0.04242186198620 -0.54589132373237
 1 -0.32338776747675  0.53815340264026  1.31719558255826
 1 -0.19457787808781 -1.25446621322132  1.39302276057606
 1 -5.63746792449245  6.83197070907091  0.92514234553455
 1 -5.59314078537854  5.82196507790779  2.25497751025102
 1 -4.43046789138914  5.41657592559256  1.34252498509851
 1 -9.40030028982898  5.95693907590759 -0.44236558925893
 1 -9.12865192889289  7.96119584058406  0.69807958365837
 1 -7.61658959105911  7.36023285968597  1.47267622792279
 1 -11.60805127812781  3.32338148524853 -1.93350918241824
 1 -13.18082538023802  2.13234197659766 -2.19045477367737
 1 -12.74936596929693  3.14002133623362 -0.71517195669567
 1 -12.50339230413041 -1.51622254505451 -0.93407690859086
 1 -13.35242754185419 -0.05002771327133 -1.77004275867587
 1 -12.79234443364336 -2.14259792189219 -3.37218817691769
 1 -12.45593599929993 -0.41060953225322 -3.86611558995900
 1 -11.13809864926493 -1.44706573377338 -3.26737501570157
 1 -8.88983360196019 -4.73210971177118 -2.02970903390339
 1 -7.89276366156616 -5.69412536583658 -0.79235919101910
 1 -9.64458863786379 -4.99791824022402 -0.63503577227723
 1 -3.30620813931393 -3.25574217981798 -0.15656339443944
 1 -1.54817820542054 -4.40870308370837  3.25530724832483
 1 -3.04182061936194 -5.76654617951795  3.72165320302030
 1 -1.72749326982698 -6.19391017581758  2.80815417651765
 1  2.28964701950195 -1.57574419721972 -1.50656210491049
 1  2.61267770907091  0.08388647344734 -2.18332939043904
 1  4.00618110481048 -0.84430284408441  0.35924732493249
 1  4.05996130763076  0.88349389208921 -2.74635512121212
 1  5.15903283548355  2.25713613751375 -2.10969840824082
 1  5.88214778327833  0.72850404130413 -3.01326758365837
 1  6.69937812171217  1.25446542714271 -0.04135452155215
 1  6.15472334443444 -0.12038937563756  0.93197939343934
 1  7.29653177597760 -1.23343401640164 -0.98326308350835
 1  7.89923248174818  0.29773887688769 -1.72507333023302
 1  9.03193923822382  0.72669216671667  0.56605903400340
 1  8.60234335513552 -0.98531688438844  0.79118524192419
 1  10.25287991979198  0.20921706950695 -1.56609176717672
 1  9.11500110921092 -2.01409969346935 -1.96315469736974
 1  10.89047818841884 -2.37811121042104 -1.91022638073807
 1  10.02224442154215 -2.64525864056406 -0.62676006970697
 1  11.27605924752475  0.47126355975598  0.36063383418342
 1  11.28290588608861 -1.18707000460046  0.87980430053005
 1  13.08312626512651 -1.56926434573457 -1.16844911641164
 1  12.77434326422642  0.12198713471347 -1.66268060176018
 1  13.80586200650065  0.76010137343734  0.92671750045005
 1  13.81546985758576 -0.76882326122612  0.95725809980998
 1  15.37409781118112  0.50507390439044 -1.35178644744474
 1  15.89625342214221 -2.25917525872587 -0.22572070757076
 1  15.00001164556456 -1.90217473747375 -1.69921129462946
 1  16.70725900550055 -1.59680057705771 -1.51599811311131
 1  15.95494876837684  1.43938227192719  0.76733264956496
 1  16.51927600540054 -0.07617390219022  1.38243673837384
 1  18.31816855455546 -0.39511602560256 -0.51974216981698
 1  17.59078638823883  1.07592648674867 -1.12646839043904
 1  18.25206426332633  2.30594186218622  1.08776072287229
 1  19.04005996849685  0.75027986748675  1.71017426292629
 1  20.48648848114811  0.46157715531553 -0.01361546934694
 1  20.06921373987399  3.30266104260426 -0.93614579927993
 1  21.31515531633163  2.10860200230023 -1.41302928412841
 1  19.85613401100110  1.88547883808381 -1.93883226762676
 1  21.05393924742474  1.28675431633163  2.09716338513851
 1  22.11799969276927  2.02959343004300  0.90970762436244
 1  20.76900697919792  2.89774589178918  1.60298743544354

