%nproc=4
%Mem=2GB
# td=(NStates=1) CAM-B3LYP/6-31G(d,p) 

TD

0 1
12 -7.09226979998000  0.56233498159816  0.02080976837684
 6 -4.94519913791379 -1.96552773117312  0.57974450715072
 6 -4.77068699759976  2.85959440674067  1.17306367126713
 6 -9.42158689418942  3.09649514501450 -0.34393725342534
 6 -9.56092640634063 -1.78647415841584 -0.76617304640464
 7 -5.10926435103510  0.48877869596960  0.65046546484648
 6 -4.40604031013101 -0.71285110711071  0.78004602780278
 6 -2.90288929432943 -0.37530695639564  1.10315066926693
 6 -2.96992043044304  1.10047271557156  1.52842357305731
 6 -4.42197919281928  1.49406015481548  1.10447747764776
 6 -2.72501758385839  1.39958224632463  3.02516392529253
 6 -1.83927738873887 -0.64643990539054 -0.08449449114911
 6 -0.53180060266027 -0.48343269046905  0.48595272457246
 6  0.47768890609061 -0.63989750265027 -0.68254363486349
 8  0.22752399249925 -0.93671907950795 -1.76527285898590
 8  1.67415922642264 -0.44745214161416 -0.19031582048205
 7 -7.08790923882388  2.57534312411241  0.41598029352935
 6 -6.01224050305031  3.37940891669167  0.70249378297830
 6 -6.35367262036204  4.77560184958496  0.81879256645665
 6 -7.72345505250525  4.83407403890389  0.32954134543454
 6 -8.07361163276328  3.50648984428443  0.02084463076308
 6 -5.44531248794880  5.90620308620862  1.07706246674667
 6 -8.60586838443844  6.04702573627363  0.20671765716572
 6 -8.45858975027503  7.16827294589459  0.91152740254025
 7 -9.08973124572457  0.66426928802880 -0.51026506020602
 6 -9.92212847254725  1.82983293639364 -0.65886221032103
 6 -11.29298839543954  1.50004834393439 -1.04980670017002
 6 -11.26954935883588  0.12677804190419 -1.16577529152915
 6 -9.93131881258126 -0.39532150645065 -0.75700071617162
 6 -12.23803262696270  2.47523809480948 -1.41852862766277
 6 -12.44744929122912 -0.69803721382138 -1.70035084358436
 6 -12.32604009240924 -1.16685909710971 -3.10768588718872
 7 -7.22815228352835 -1.46017563116312 -0.15345002200220
 6 -8.35193543334333 -2.22273744584458 -0.52115707090709
 6 -7.85520166576658 -3.65877414491449 -0.45057233453345
 6 -6.56655053915392 -3.52559689668967 -0.02935466736674
 6 -6.22538513491349 -2.18964724602460  0.16527933213321
 6 -8.61525899329933 -4.77351019341934 -0.70187866626663
 6 -5.36687115741574 -4.32734661816182  0.20686355895590
 8 -5.29243808170817 -5.60081456485649  0.29018604930493
 6 -4.16274985438544 -3.31733752355236  0.61365123042304
 6 -3.57532816371637 -3.69203442474247  1.90375074797480
 8 -3.81523312391239 -3.17458419461946  3.05661834293429
 8 -2.61455264896490 -4.61705642804280  1.69505808670867
 6 -2.00703129102910 -5.29642387148715  2.90685562106211
 6  2.79222173387339 -0.74371216581658 -1.18328952935294
 6  4.07865995499550 -0.46190436673667 -0.61299144814481
 6  5.14734821922192  0.31074734013401 -1.14520429312931
 6  4.92704112711271  0.97716036533653 -2.46658082338234
 6  6.48662299509951  0.43304515471547 -0.39077556275628
 6  7.66917445534553 -0.18226857375738 -1.08772572307231
 6  8.97165903850385 -0.18874400480048 -0.27288910171017
 6  10.31876250075007 -0.52316938863886 -0.96749772027203
 6  10.21336803700370 -2.04602553865387 -1.58761222622262
 6  11.39858273517352 -0.25221900270027 -0.07389652105211
 6  12.74334924262426 -0.54936898799880 -0.70684070697070
 6  13.96885635403540 -0.14719592239224  0.22131919941994
 6  15.33023914881488 -0.19514324342434 -0.38266650645065
 6  15.77706937583758 -1.61539917371737 -0.75499511721172
 6  16.35463956985699  0.48520288028803  0.59382388958896
 6  17.77470205960596  0.61913331173117 -0.05910172477248
 6  18.77594796429643  1.34409262626263  0.89789022202220
 6  20.28592726192619  1.30369070257026  0.35314007720772
 6  20.34692604640464  2.34381267846785 -0.90133112581258
 6  21.18747967876788  1.84858779507951  1.43222858625863
 1 -4.01274275877588  3.65124064546455  1.37013160006001
 1 -10.08112850555056  3.89246008100810 -0.57908329982998
 1 -10.19102239163916 -2.58909825062506 -1.00901755395540
 1 -2.81540799769977 -0.99436775067507  2.00116080728073
 1 -2.32100570577058  1.81233481608161  0.86000665106511
 1 -1.66110056755676  1.21848230113011  3.26741045454545
 1 -2.68347340734073  2.49491354885489  3.18773093849385
 1 -3.37127056975698  0.88157284128413  3.64646705950595
 1 -2.13378586348635 -1.69147910831083 -0.63098700790079
 1 -2.09950162266227  0.10889814021402 -0.77197723732373
 1 -0.39728324572457  0.42029664356436  1.03372377147715
 1 -0.36199400140014 -1.35469998519852  1.18491244644464
 1 -5.76700547594759  6.89218786288629  0.69972568176818
 1 -5.71371836123612  6.07859122222222  2.17394369146915
 1 -4.38488244424442  5.58826999339934  0.93382655825583
 1 -9.38273032553255  5.93785993409341 -0.50858108630863
 1 -8.99704091999200  8.14485522442244  0.61362098389839
 1 -7.59951941774177  7.42782918241824  1.76790517601760
 1 -11.91399550465047  3.04569489548955 -2.29841284598460
 1 -13.16898656785679  2.00425431663166 -1.87552874437444
 1 -12.52337406850685  3.05327398209821 -0.56689793379338
 1 -12.47886266466647 -1.71350079517952 -1.08708366326633
 1 -13.52390110901090 -0.32532926972697 -1.55771129862986
 1 -13.29244559715972 -1.75275996219622 -3.47444732923292
 1 -12.18090165436544 -0.30180471807181 -4.00824432013201
 1 -11.39838611791179 -1.75141000810081 -3.21934055405541
 1 -8.88890849384939 -4.82267301020102 -1.80076334043404
 1 -8.01193055785578 -5.76830683488349 -0.59641925492549
 1 -9.49991987688769 -4.88084310561056  0.01610978837884
 1 -3.41130182608261 -3.46875012571257 -0.12460773227323
 1 -1.59402756925693 -4.54917135683568  3.49581249654966
 1 -2.79095870447045 -5.80121173877388  3.61307414631463
 1 -1.21740985248525 -5.88753802700270  2.58024197709771
 1  2.50879018311831 -1.65852768866887 -1.55190915591559
 1  2.48953643124312 -0.23495921632163 -2.09196234843484
 1  4.39538044364437 -0.98938115331533  0.33958717471747
 1  3.93726268976898  0.87726643704370 -2.79772814251425
 1  5.22396780848085  1.96641690059006 -2.53198966716672
 1  5.62182949054905  0.43363447094709 -3.20042877387739
 1  6.71572363526353  1.43677767776778 -0.02425978317832
 1  6.38195231463146  0.00294225682568  0.45403512021202
 1  7.57531491619162 -1.27669690489049 -1.39168049164917
 1  7.72047448334833  0.22358556665667 -2.11491441504150
 1  9.06101815341534  0.97154503950395 -0.22137450525053
 1  8.80460894959496 -0.83724923112311  0.72278014171417
 1  10.30570812221222  0.09305184288429 -1.85149003850385
 1  9.33061804730473 -2.14710268676868 -2.41268719351935
 1  11.25646820252025 -2.43012979687969 -1.93012725662566
 1  9.83546643264327 -2.67049899189919 -0.66307574727473
 1  11.28065574647465  0.79267149734974  0.10702218971897
 1  11.42076512991299 -0.95347130843084  0.79157977957796
 1  12.82543586248625 -1.71548971017102 -0.94159182678268
 1  12.80675442794279  0.04903559455946 -1.64092745404540
 1  13.68926036273627  0.75301785778578  0.40372771577158
 1  13.77914066716672 -0.67953755845585  1.15887240374037
 1  15.39755304380438  0.40880036503650 -1.29972433043304
 1  15.59763720662066 -2.24426471857186  0.04547309340934
 1  14.76473952465247 -2.00684305990599 -1.39929734483448
 1  16.71482111151115 -1.45765129002900 -1.29389085858586
 1  15.97336253695369  1.51130896459646  0.65351189548955
 1  16.35820026722672 -0.08000717581758  1.52145490669067
 1  18.10897183588359 -0.32873942134213 -0.24686802720272
 1  17.69214627912791  1.23022034093409 -1.06599017481748
 1  18.50309110171017  2.46868102580258  1.04850285558556
 1  18.81657881818182  0.81245542654265  1.84660466076608
 1  20.64114902760276  0.31392754095410 -0.11768470447045
 1  20.05061916851685  3.30503406530653 -0.54220781418142
 1  21.38284253635364  2.25764241704170 -1.37518888218822
 1  19.69015291969197  1.92719453025303 -1.62363933293329
 1  21.25011098629863  1.28255636473647  2.31206082328233
 1  22.22308401470147  1.83538476817682  1.13644861116112
 1  21.03537326722672  2.81419150245024  1.73442388288829

