%nproc=4
%Mem=2GB
# td=(NStates=1) CAM-B3LYP/6-31G(d,p) 

TD

0 1
<<<<<<< HEAD
12 -7.12084265726573  0.49720846894689  0.06449413681368
 6 -4.88991360936094 -1.88098927732773  0.53666019871987
 6 -4.83178310721072  2.84481292859286  1.19903626852685
 6 -9.49052378787879  3.06025152065207 -0.49097195689569
 6 -9.52369268296830 -1.80705621662166 -0.80767719681968
 7 -5.06644006860686  0.53293311141114  0.66236665496550
 6 -4.29462916901690 -0.64799462146215  0.79820784398440
 6 -2.93289229462946 -0.34158358405841  1.30383073727373
 6 -2.98389182758276  1.17017968626863  1.57093782448245
 6 -4.37995499039904  1.55034578337834  1.15422245214521
 6 -2.79874495659566  1.37897018511851  3.11388279717972
 6 -1.88280174117412 -0.64284954635464  0.06666062436244
 6 -0.49418684128413 -0.43706805400540  0.61484561386139
 6  0.56788792599260 -0.54904841774177 -0.57227260776078
 8  0.37473871397140 -0.98325373297330 -1.74387071877188
 8  1.80369217971797 -0.36147354375438 -0.15567235613561
 7 -7.06314676257626  2.60994658445845  0.26539523502350
 6 -6.06223550255026  3.35088606440644  0.74337787138714
 6 -6.53209046214621  4.78997328672867  0.82148283548355
 6 -7.76444915191519  4.86142677417742  0.30850924222422
 6 -8.18725299689969  3.46088528382838 -0.04606205990599
 6 -5.64351230793079  5.89507197309731  1.09534429492949
 6 -8.59115691329133  6.08786982068207  0.10439742514251
 6 -8.61964585588559  7.08117423602360  1.03107935773577
 7 -9.06776904950495  0.59348220932093 -0.65838987268727
 6 -9.88148440814081  1.73601355445545 -0.76956328042804
 6 -11.20900999759976  1.43277161626163 -1.13931565106511
 6 -11.24824722862286  0.02393775787579 -1.16682539653965
 6 -9.86856253695369 -0.42331430573057 -0.88843385948595
 6 -12.36782560626063  2.44458502950295 -1.34946172097210
 6 -12.37733227952795 -0.85917332743274 -1.69707051555156
 6 -12.30870835923592 -1.08933134433443 -3.24318943754375
 7 -7.25942541084108 -1.39947956155616 -0.23169784678468
 6 -8.30027026682668 -2.28626379847985 -0.49518447364736
 6 -7.75849199479948 -3.61277954545455 -0.49898717601760
 6 -6.42785666976698 -3.57212154915492 -0.06773850575058
 6 -6.13931652805281 -2.16642492379238  0.04481728592859
 6 -8.54287175457546 -4.90393323572357 -0.86111458985899
 6 -5.30752522282228 -4.38117200070007  0.23658653125313
 8 -5.06630546844684 -5.54672915631563  0.19912694339434
 6 -4.19098267766777 -3.26453224302430  0.64197406270627
 6 -3.46919755065507 -3.61563678497850  1.89850022292229
 8 -3.59409100970097 -3.09337607380738  3.04875755685569
 8 -2.72537373107311 -4.66005072747275  1.69626820772077
 6 -2.10743133103310 -5.21993622272227  2.86664159965997
 6  2.90685319701970 -0.54286208080808 -1.12708390879088
 6  4.11867395639564 -0.35990416671667 -0.46733688268827
 6  5.21767525192519  0.44901116651665 -0.93833360606061
 6  5.04456287928793  1.41818446774677 -2.06786095139514
 6  6.54196852965296  0.55709755995600 -0.25120160536054
 6  7.63050058795880 -0.02247259415942 -1.04947189768977
 6  8.87403927652765 -0.04257938833883 -0.10800261306131
 6  10.19240986548655 -0.50954802650265 -0.80899186968697
 6  10.05828252845284 -2.01443237933793 -1.34383784878488
 6  11.41927480438044 -0.41065484628463  0.10141100970097
 6  12.67147205490549 -0.55689974107411 -0.60441046394639
 6  13.96448591699170 -0.26733793659366  0.28387545504550
 6  15.25583170807081 -0.36411014011401 -0.46656489628963
 6  15.60370203910391 -1.80322795659566 -0.85201481918192
 6  16.39002310821082  0.18984334433443  0.50986549374937
 6  17.76140072947295  0.50922232063206 -0.21157697229723
 6  18.75408577807781  1.13658187518752  0.73075350835084
 6  20.19718838803880  1.31824215771577  0.13474823802380
 6  20.29479083288329  2.11179947714772 -1.22804379707971
 6  21.05525645644565  2.00296323262326  1.14971033443344
 1 -4.03712519701970  3.42218774017402  1.51960654755476
 1 -10.35025541824182  3.83668450345034 -0.59825521702170
 1 -10.23837712711271 -2.52317165796580 -1.37216386858686
 1 -2.69523598049805 -0.79835814971497  2.16367705890589
 1 -2.20565417061706  1.68532211481148  0.81857250765077
 1 -1.81430588808881  1.25193564646465  3.31725543904390
 1 -3.27615267526753  2.43241729922992  3.29849201460146
 1 -3.39016245894589  0.64062874687469  3.67103951675168
 1 -1.97038952385238 -1.55919587998800 -0.37222113131313
 1 -2.14997667016702  0.21053830423042 -0.80018005760576
 1 -0.16558007540754  0.45514012791279  1.05947634673467
 1 -0.16861466346635 -1.25316983218322  1.38699265446545
 1 -6.07696647204720  6.82121076517652  0.73069877907791
 1 -5.35774276367637  6.35425878897890  2.19847614471447
 1 -4.66710066606661  5.66494766116612  0.71874505010501
 1 -9.40051210371037  5.75683183128313 -0.62020224842484
 1 -9.40206142204220  8.10775151405140  0.85061468326833
 1 -7.84803426922692  7.27008340784078  1.79424781028103
 1 -12.08171227632763  3.15140546654665 -2.13303630833083
 1 -13.24354402360236  1.81543543474347 -1.78470966246625
 1 -12.79756148724873  3.00768942364236 -0.49889113311331
 1 -12.12906768516852 -1.70046949204920 -1.03025798069807
 1 -13.33899261816182 -0.34709144594459 -1.30314584208421
 1 -13.23810016261626 -1.80465515171517 -3.60086997149715
 1 -12.47715127932793 -0.13142768036804 -3.73747724342434
 1 -11.36403268256826 -1.59079394649465 -3.46711533153315
 1 -8.68154775777578 -4.81596233913391 -1.88248151225123
 1 -7.86749611441144 -5.70098010221022 -0.83241285428543
 1 -9.19811969686969 -5.23329835113511 -0.18815063766377
 1 -3.33644434033403 -3.28039128982898 -0.09358462996300
 1 -1.53644181068107 -4.41156759645965  3.32304521982198
 1 -2.86667627622762 -5.67376899449945  3.55231807070707
 1 -1.45755386688669 -5.97238651185118  2.50823477637764
 1  2.72606191029103 -1.74995683158316 -1.46075004000400
 1  2.87620509810981  0.33553783338334 -1.93367651985198
 1  4.42841374697470 -0.96590880608061  0.40253346934694
 1  4.10486945044504  1.16439514991499 -2.59010738043804
 1  5.29159457115712  2.39265952485249 -1.96232270047005
 1  5.65122242984298  1.09069017651765 -2.98391712271227
 1  6.77542960586058  1.61341534153415 -0.08105546274627
 1  6.25971009040904  0.04304626722672  0.77131684838484
 1  7.35893327802780 -1.04941417661766 -1.12996432003200
 1  7.73884632053205  0.56046925502550 -1.89720264386439
 1  9.09641169276928  1.10691857685769  0.16905453765377
 1  8.62674116281628 -0.44802030823082  0.77021488518852
 1  10.43707125852585  0.03787632533253 -1.86281117061706
 1  9.16651163666367 -2.21661963846385 -1.81827775257526
 1  11.00590314601460 -2.30516730063006 -1.88828307220722
 1  9.98370125612561 -2.87242918491849 -0.54014345404540
 1  11.30019770067007  0.44895712591259  0.57019850735074
 1  11.26913996739674 -1.29407536883688  0.86320694229423
 1  12.87361067996800 -1.69382754395440 -0.98164583218322
 1  12.72286603910391  0.18182887388739 -1.39048240954095
 1  14.05992742944295  0.79136169216922  0.80426776977698
 1  13.85814856795680 -0.91557116181618  1.26989350585059
 1  15.10865415391539  0.39978946394640 -1.25903026102610
 1  15.87289473237324 -2.65582587468747 -0.09237069096910
 1  14.83442649334934 -2.25983835943594 -1.52111952705271
 1  16.57584721412141 -1.93216874177418 -1.46526799629963
 1  15.96888208890889  1.06272410611061  1.27578412271227
 1  16.56969141634163 -0.59077825292529  1.17260002120212
 1  18.37513845254525 -0.41007755515552 -0.69136247664766
 1  17.62199926442645  1.25559287818782 -1.16135971177118
 1  18.40140093269327  2.06669082678268  1.32345035033503
 1  18.69792695299530  0.63711789278928  1.59287928822882
 1  20.50187510021002  0.35196134433443  0.07887495149515
 1  19.62882698929893  3.09785334723472 -1.11556514991499
 1  21.34374862696270  2.10183683648365 -1.51871323462346
 1  19.80046395079508  1.50903271407141 -1.97356432543254
 1  20.86320229542954  1.29524763386339  2.01238085528553
 1  21.98122982928293  2.03832506220622  1.02512747904790
 1  20.71365109500950  2.94867495079508  1.37937837833783
=======
12 -7.11280185318532  0.54030277837784 -0.01195350795080
 6 -4.83972859085909 -1.98952013041304  0.49496602930293
 6 -4.83649357825783  2.87946639393939  1.17941430633063
 6 -9.46931166666667  3.07387288278828 -0.41163402310231
 6 -9.55574588828883 -1.84505001600160 -0.80870729982998
 7 -5.07459088368837  0.43281309940994  0.78347876617662
 6 -4.35088479457946 -0.70405022702270  0.90445846904690
 6 -2.95823482888289 -0.28424785048505  1.31432178637864
 6 -3.04781822022202  1.13343601190119  1.63763449414941
 6 -4.40338733363336  1.59763051185119  1.11582861276128
 6 -2.97130221232123  1.36713900200020  3.09817122602260
 6 -1.85290875187519 -0.56565182658266  0.23526748504851
 6 -0.41792921552155 -0.40301464866487  0.62458658795880
 6  0.45146628382838 -0.66893040594059 -0.53519890039004
 8  0.26046728682868 -0.93898930653065 -1.73769010071007
 8  1.82855466596660 -0.68979637603760 -0.05692248114811
 7 -7.12930337823782  2.57798338813881  0.33450214571457
 6 -6.09770904990499  3.38514949074907  0.71770530413041
 6 -6.46924417751775  4.78499278867887  0.83778446564656
 6 -7.80057276427643  4.89458008950895  0.41090948224823
 6 -8.20937520912091  3.54466366166617  0.02815536183618
 6 -5.64965292199220  6.02367483338334  1.21019578007801
 6 -8.62595039263926  6.12811384508451  0.24937192259226
 6 -8.63960785208521  7.21456757535754  1.02081833163316
 7 -9.14948722132213  0.54906776787679 -0.57506153985399
 6 -9.84202046174617  1.71269122222222 -0.60059638373837
 6 -11.17685678227823  1.39352769186919 -1.19992171167117
 6 -11.18673107700770  0.06796216031603 -1.32664137813781
 6 -9.92994867556756 -0.47588956325633 -0.96681169726973
 6 -12.24462328602860  2.49593016401640 -1.48172494729473
 6 -12.39294384068407 -0.72227963806381 -1.94783559205921
 6 -12.05631311971197 -1.04691710291029 -3.43601872047205
 7 -7.20031950025003 -1.42108172177218 -0.25838051505151
 6 -8.22262250205021 -2.30640581268127 -0.49907486268627
 6 -7.82199834543454 -3.69804807230723 -0.44736201350135
 6 -6.48820270437044 -3.51569590659066 -0.10080181208121
 6 -6.08092068846885 -2.11876015731573  0.06991979617962
 6 -8.52534000140014 -4.82737557995800 -0.88550702910291
 6 -5.29442391269127 -4.27776165966597  0.17319019161916
 8 -5.11536037393739 -5.53042752615262  0.34471150185018
 6 -4.17922150155016 -3.24776056585659  0.62149201450145
 6 -3.44226485738574 -3.59833505480548  1.91188156105611
 8 -3.67741934253425 -3.12966970317032  2.92252493359336
 8 -2.77300849454946 -4.71149587198720  1.75350393129313
 6 -2.36788737663766 -5.18975320442044  2.99816475197520
 6  2.80199271097110 -0.79827762236224 -1.13254445484548
 6  4.15859794879488 -0.48384656095610 -0.49221937093709
 6  5.14937842224222  0.31037730313031 -1.02799257195720
 6  5.08824724772477  0.99189183848385 -2.28080224552455
 6  6.34777911071107  0.30421227142714 -0.14627111231123
 6  7.59542708060806 -0.11919226612661 -0.87699464996500
 6  8.90920279287929  0.00690556015602 -0.12054386718672
 6  10.25756638113811 -0.47086415811581 -0.87583855435544
 6  10.02164886508651 -1.92878381448145 -1.34910837583758
 6  11.45839871677168 -0.32335611641164  0.10981184978498
 6  12.70853576127613 -0.52115616671667 -0.55932595549555
 6  13.97332680108011 -0.25070627342734  0.20935800330033
 6  15.40785691059106 -0.30024375347535 -0.61056929672967
 6  15.78485015391539 -1.64829246304630 -0.93814343204320
 6  16.50919502540254  0.43959831983198  0.39912441964196
 6  17.79477406680668  0.62612401080108 -0.31923773837384
 6  18.75682605210521  1.32475069206921  0.60902133513351
 6  20.22720138933893  1.34778511201120  0.16984174737474
 6  20.38177953175317  2.09892819001900 -1.12062305500550
 6  21.18203913471347  1.93911684798480  1.20666603000300
 1 -4.04067555205521  3.68145366676668  1.47585217211721
 1 -10.34808520122012  3.68892972797280 -0.51817720922092
 1 -10.31562485188519 -2.63287262806281 -0.89963661586159
 1 -2.69586604350435 -0.97795610951095  2.16463715491549
 1 -2.24711831703170  1.68840242284228  0.96383703410341
 1 -2.19060351785178  1.00215066796680  3.64509822332233
 1 -2.89170423042304  2.46386044354435  3.46623878927893
 1 -3.87643108580858  1.01862654665467  3.49013142594259
 1 -1.89333181808181 -1.43041300170017 -0.30571448064807
 1 -2.07755942844284  0.02521977237724 -0.54851489108911
 1 -0.30764428182818  0.58783339723972  0.99971037013701
 1 -0.01378918091809 -1.03397791299130  1.57909186438644
 1 -5.88367714311431  6.92115075917592  0.60368607780778
 1 -5.79038602800280  6.33703706680668  2.39345564266427
 1 -4.51816577257726  5.88227939433943  0.98804197979798
 1 -9.50045209770977  6.10162631073107 -0.28975920412041
 1 -9.35459667556756  8.13484422332233  0.81522114391439
 1 -7.81477094289429  7.37339373887389  1.78562694819482
 1 -12.36693079817982  3.15103542954295 -2.40444344904490
 1 -13.30361003020302  2.16750064126413 -1.78387957945795
 1 -12.00210194129413  2.99470812551255 -0.71243248724873
 1 -12.44662944134413 -1.63939338443844 -1.42736769166917
 1 -13.29625834473447 -0.08319505630563 -1.87549307680768
 1 -12.84824117671767 -1.68227291349135 -3.81642152665267
 1 -12.00018358255826  0.03850931333133 -4.05493898959896
 1 -11.10525680498050 -1.65683055015502 -3.65362398239824
 1 -8.36621622462246 -4.74177492039204 -2.07722098619862
 1 -8.18039740454045 -5.84689469366937 -0.41972158515852
 1 -9.72198208310831 -4.81526654795480 -0.58292011461146
 1 -3.30991168706871 -3.38859210991099 -0.14778004950495
 1 -1.78826699319932 -4.54143058275828  3.70400331563156
 1 -3.27473708230823 -5.45498711631163  3.61373421232123
 1 -1.77607571907191 -6.06962623582358  2.82442639553955
 1  2.81772107620762 -1.80427226312631 -1.50293425842584
 1  2.55562303990399 -0.24173989438944 -2.07939109130913
 1  4.31665257085708 -1.03264547974798  0.48769198519852
 1  4.13792275577558  1.03656236663666 -2.68930730043004
 1  5.28641405310531  2.08195845474547 -2.20523699189919
 1  5.65456276387639  0.31963307080708 -2.91797052805281
 1  6.34050611351135  1.34062806280628  0.21130377317732
 1  6.23699781918192 -0.20648868626863  0.84968468516852
 1  7.53673105780578 -1.10904013921392 -1.40111143474347
 1  7.58100053595359  0.37930113821382 -1.89471239483948
 1  9.11967401900190  1.12936082108211  0.29372700490049
 1  8.66243473217322 -0.55976148234823  0.75048291199120
 1  10.46546409780978 -0.04855231753175 -1.75467035653565
 1  9.05585057055706 -1.90981895839584 -1.83755968076808
 1  10.96901945764576 -2.29971675557556 -1.98513275717572
 1  9.95521840784078 -2.58141008300830 -0.47761720142014
 1  11.47371505240524  0.63908613881388  0.62651413891389
 1  11.44545759915992 -1.12424838613861  0.85330595219522
 1  12.88998231713171 -1.51016917811781 -0.96417408500850
 1  12.85156890939094  0.20995168616862 -1.36794015531553
 1  13.84839627632763  0.80537309330933  0.90641798479848
 1  14.02972572567257 -1.13095269997000  1.12020853735374
 1  15.22859614811481  0.50735022002200 -1.60384474247425
 1  15.73725116801680 -2.23659395149515 -0.07625907980798
 1  14.93735678637864 -2.07022939853985 -1.44851226632663
 1  16.56948657805781 -2.03040856575657 -1.63818528802880
 1  16.14452965366537  1.40994882858286  0.67763430773077
 1  16.66987143434343 -0.14919409450945  1.16178894009401
 1  18.08111905060506 -0.43448999639964 -0.59746308670867
 1  17.73478054255426  1.36766408530853 -1.11666524232423
 1  18.39020981358136  2.23742790049005  0.85348335363536
 1  18.77785494579458  0.81204538553855  1.56350635093509
 1  20.59939485218522  0.32860900910091  0.09185624962496
 1  19.90515462206221  3.10121368326833 -0.93551714511451
 1  21.38394264636464  2.17360401320132 -1.36194755805581
 1  20.00681458585859  1.79065087588759 -2.07290425942594
 1  21.30522649784978  1.17878598769877  2.15074469166917
 1  22.23685539183918  1.93155438513851  0.55946091239124
 1  20.78449817971797  2.98004808810881  1.50753119361936
>>>>>>> 8e03b5b5abfc0030b3aa597dc0de36371bfbd096

