%nproc=4
%Mem=3GB
# td=(NStates=1) iop(3/107=0140000000,3/108=0140000000) CAM-B3LYP/6-31G(d,p) 

TD

0 1
12 -7.09591428312831  0.65725410891089  0.05959232923292
 6 -4.87507632413241 -1.91872910351035  0.64341974437444
 6 -4.90472650325033  2.86155487338734  1.35360546574658
 6 -9.40963772827283  3.08681623462346 -0.42907538283828
 6 -9.43769986798680 -1.72945471117112 -0.94003080798080
 7 -5.08783581478148  0.48847493809381  0.80612843684368
 6 -4.37146939423942 -0.75222636583658  0.95918381308131
 6 -2.93516973757376 -0.35751414941494  1.35059072817282
 6 -3.17094032093209  1.07610631223122  1.94398067736774
 6 -4.35103533823382  1.51831648274827  1.27657205110511
 6 -3.13127930873087  1.17421024032403  3.40236555115512
 6 -2.00542627232723 -0.51799778897890  0.10484429472947
 6 -0.47297300650065 -0.30109335733573  0.45518890119012
 6  0.44376629982998 -0.61915853775378 -0.62384217431743
 8  0.18763898069807 -1.08413219091909 -1.76270366346635
 8  1.67378597699770 -0.38244818321832 -0.30178556615662
 7 -7.06572421582158  2.60747395729573  0.24314523862386
 6 -6.05300544434443  3.40687445484548  0.86459233533353
 6 -6.44329923832383  4.78487535113511  0.77433569226923
 6 -7.69946473177318  4.89850165536554  0.23755988238824
 6 -8.08329785728573  3.46196313511351 -0.05312731413141
 6 -5.49365139903990  5.82612208590859  1.27878803400340
 6 -8.54593460146015  6.04948521812181  0.12391300380038
 6 -8.35076348634863  7.23518266796680  0.76357041634163
 7 -8.97990703180318  0.64656165056506 -0.60084665856586
 6 -9.76520400670067  1.77302062636264 -0.75538835233523
 6 -11.08381233393339  1.46428587308731 -1.22945780548055
 6 -11.09689917711771  0.11375892169217 -1.39611964026403
 6 -9.81435903950395 -0.37233742714271 -0.96467866916692
 6 -12.20952188988899  2.40161540294029 -1.51523097579758
 6 -12.29678347124712 -0.81397752155216 -1.78001733233323
 6 -12.20546245514551 -1.13366355865587 -3.23926457765777
 7 -7.10835379777978 -1.33876871257126 -0.08872154725473
 6 -8.18266259255926 -2.21629017451745 -0.51504308420842
 6 -7.80578261806181 -3.61645219661966 -0.46037633743374
 6 -6.42946073657366 -3.56278926102610 -0.03780586228623
 6 -6.18167189888989 -2.09825778157816  0.13533536893689
 6 -8.51622396189619 -4.75673177157716 -0.93549693279328
 6 -5.31798726162616 -4.34125768916892  0.23378835293529
 8 -5.15516650895090 -5.55755261226123  0.06184213281328
 6 -4.15178968156816 -3.35235268266827  0.68716703830383
 6 -3.58384256105611 -3.75687363006301  1.95267123562356
 8 -3.79603238663866 -3.16932429032903  3.05772913111311
 8 -2.62698805160516 -4.68794741324132  1.75723476097610
 6 -2.13268222522252 -5.22751795769577  2.94525192559256
 6  2.71557787818782 -0.62841113001300 -1.22655617281728
 6  4.02142302750275 -0.44833010091009 -0.56996955975598
 6  5.08300379167917  0.27929445744575 -0.94494737173717
 6  5.14174790039004  1.24132180748075 -2.19398353335334
 6  6.35271154985499  0.28763937993799 -0.27768829322932
 6  7.65524697729773 -0.27648619661966 -1.04228455715572
 6  8.85106281788179 -0.11496331243124 -0.22777888028803
 6  10.09238469906991 -0.60525218841884 -0.88300402040204
 6  10.06370964756476 -2.06984486438644 -1.18745571157116
 6  11.32462712651265 -0.24017890899090 -0.02826078857886
 6  12.69688742424242 -0.47619765326533 -0.75856336143614
 6  13.86439771157116 -0.10537625192519  0.09866627822782
 6  15.32356834783478 -0.10845992959296 -0.49282493499350
 6  15.69765603660366 -1.50775916421642 -1.05833766006601
 6  16.36833382608261  0.46964348164816  0.45179991469147
 6  17.78107569526953  0.58364209380938 -0.31730825782578
 6  18.70444086268627  1.18233631213121  0.71564482118212
 6  20.16278908330833  1.28067750025003  0.25918262426243
 6  20.43979682548255  2.02380968606861 -0.98202289818982
 6  21.12069713671367  1.79296099599960  1.36598053805381
 1 -4.27143750725072  3.50797404880488  1.73151924772477
 1 -10.06336846014601  4.07442971747175 -0.76526105230523
 1 -10.08925334943494 -2.56264179927993 -1.29220704010401
 1 -2.44915220242024 -1.03889409210921  2.01161765246525
 1 -2.32207567386739  1.52946500760076  1.52271592059206
 1 -2.15207829422942  0.88347745414542  3.92689302670267
 1 -3.35014212331233  2.12276149894990  3.75942396459646
 1 -3.76329913041304  0.37588274257426  3.94137582278228
 1 -2.05301042004200 -1.42724339513951 -0.44853286038604
 1 -2.22467883688369  0.19614723452345 -0.78070480508051
 1 -0.05462089078908  0.77016660396040  0.79465332833283
 1 -0.27743616391639 -0.90961172777278  1.31554501280128
 1 -5.43486766446645  6.79952746474647  0.63628345964596
 1 -5.84728619991999  6.10206308770877  2.41321333383338
 1 -4.38634347894790  5.45415968396840  1.39452018461846
 1 -9.50468072787279  5.92555593759376 -0.63097445014501
 1 -9.30806987068707  7.91599132013201  0.74221399709971
 1 -7.58872680478048  7.53400023642364  1.53455241554155
 1 -11.88892936593659  2.91282042914291 -2.50010584208421
 1 -13.17173447114711  2.03427216961696 -1.47454318251825
 1 -12.65236626932693  3.43681101520152 -0.81893233273327
 1 -12.18357032193219 -1.55874679747975 -1.35461896279628
 1 -13.39015131423142 -0.38302101260126 -1.51439719411941
 1 -12.91253645284528 -1.65042870497050 -3.76191714981498
 1 -11.99788019371937 -0.26907537883788 -3.78532751115111
 1 -11.25203004240424 -1.77389841704170 -3.55681395959596
 1 -8.62497711631163 -4.83416991779178 -2.13941000400040
 1 -8.12989737493749 -5.74284023732373 -0.65179513461346
 1 -9.59802398139814 -4.76511495989599 -0.64288655735574
 1 -3.39027654615462 -3.37485409100910 -0.15916365446545
 1 -1.71272466006601 -4.47492970637064  3.52273399099910
 1 -2.81232767006701 -5.64132365726573  3.57154819251925
 1 -1.45875639613961 -6.05667645244524  2.58291165226523
 1  2.67371542634263 -1.55257187998800 -1.78208965766577
 1  2.69714615591559  0.05741382618262 -1.88910996849685
 1  4.26177666436644 -1.24853326712671  0.20479187938794
 1  4.12017732923292  1.44042958565857 -2.68492897859786
 1  5.62262919511951  2.25053547744774 -2.24328176657666
 1  5.61559112761276  0.66590778167817 -3.07440369726973
 1  6.48408659255926  1.44408438903890 -0.10723110921092
 1  6.36487435953595 -0.34651198789879  0.54754094959496
 1  7.34460658345835 -1.38940961396140 -1.19790454765477
 1  7.59199175767577  0.11696079907991 -2.23988481138114
 1  9.04208025232523  0.76214571207121  0.30919334743474
 1  8.68574169496950 -0.98285663836384  0.48961508490849
 1  10.04490912271227 -0.16913076527653 -1.81336649464946
 1  9.36895650475048 -2.05068335183518 -2.08688707060706
 1  11.11476061666167 -2.34837823712371 -1.52502786088609
 1  9.55411760886089 -2.77707182188219 -0.23670106380638
 1  11.54399604120412  0.71195762916292  0.41062883368337
 1  11.61930952645264 -0.87910920852085  0.82531885198520
 1  12.76528448094810 -1.43188060736074 -1.13659593109311
 1  12.80664649454945  0.06831176717672 -1.59860419411941
 1  13.87329875017502  0.84836019931993  0.59261409010901
 1  13.81178948954896 -0.65827220612061  1.06654902890289
 1  15.25624602600260  0.42488588558856 -1.50189145794579
 1  15.84964876167617 -2.06100544174417 -0.07301543704370
 1  14.63407505190519 -1.81507602760276 -1.50480185368537
 1  16.45171345094510 -1.76023692069207 -1.92882939623962
 1  15.99258253175318  1.41332966666667  0.59727564386439
 1  16.30157423522352 -0.07689397419742  1.27365586028603
 1  18.00600733843384 -0.41862837683768 -0.65772596819682
 1  17.60293760336033  1.09260815491549 -1.28025376897690
 1  18.44840389728973  2.34675594359436  1.14404635143514
 1  18.62727869036904  0.69102394189419  1.66150939643964
 1  20.60535036733674  0.18502950055006  0.17516340854085
 1  20.02978979747975  3.05463624012401 -0.75761794649465
 1  21.45965976677668  1.89084022612261 -1.35169315051505
 1  20.02254065166517  1.60053034323432 -1.82993137753775
 1  20.90144399789979  1.18693433433343  2.21439510831083
 1  22.26658455125513  1.66128659935994  1.06512316591659
 1  20.82200227872788  2.75110122732273  1.60956809350935

