%nproc=4
%Mem=3GB
# td=(NStates=1) iop(3/107=0140000000,3/108=0140000000) CAM-B3LYP/6-31G(d,p) 

TD

0 1
12 -7.16234092579258  0.64530291379138  0.09803617361736
 6 -4.83401221772177 -2.01641887248725  0.43085848824883
 6 -4.78425445604560  2.77949666756676  1.25524562976298
 6 -9.35032179667967  3.13762131513151 -0.47021949724973
 6 -9.43270936893689 -1.71248301400140 -0.88636544144414
 7 -5.15085211641164  0.44036012661266  0.77347517151715
 6 -4.41802404970497 -0.78535967916792  0.75130302500250
 6 -2.91229745034503 -0.47216561456146  1.19534520362036
 6 -3.01276450335034  1.06453515511551  1.71938821812181
 6 -4.41531176587659  1.43488813991399  1.29738413231323
 6 -3.03492967376738  1.08152097139714  3.25801111571157
 6 -1.88811454115412 -0.62264825402540  0.06986079637964
 6 -0.42619832903290 -0.34581782978298  0.38657203950395
 6  0.54419634283428 -0.47830445234523 -0.69297908800880
 8  0.17607782458246 -1.00626440414041 -1.84497189028903
 8  1.77806640504050 -0.10312025042504 -0.26803219081908
 7 -7.05802344574457  2.61227443734373  0.33861478557856
 6 -6.02246239003900  3.32610637803780  0.83459933603360
 6 -6.31471638003800  4.75042190579058  0.77080533923392
 6 -7.60706549184918  4.84070587578758  0.35377150355036
 6 -8.06609613711371  3.57756469526953 -0.04249625102510
 6 -5.43945597949795  5.83468294199420  1.15805596079608
 6 -8.38717872587259  6.07374764436444  0.10363097559756
 6 -8.25710412041204  7.23905305500550  0.76854091339134
 7 -9.05197423852385  0.64018101250125 -0.49343591749175
 6 -9.74933241954195  1.79634295859586 -0.63416623012301
 6 -11.05194914761476  1.52177162166217 -1.31073593329333
 6 -11.21627111431143  0.16828437423742 -1.41585161346135
 6 -9.84014161776178 -0.38435862926293 -0.98732093339334
 6 -12.26035697339734  2.46747198859886 -1.43424287698770
 6 -12.32958675157516 -0.71734785858586 -1.83304263486349
 6 -12.20334224312431 -1.25456564886489 -3.19325997719772
 7 -7.19102206460646 -1.44058889458946 -0.10462313741374
 6 -8.33225755205521 -2.22469101460146 -0.49306088598860
 6 -7.86653869366937 -3.67429798119812 -0.38005830563056
 6 -6.52580037053705 -3.57462044414441  0.03238115641564
 6 -6.16779051075107 -2.25910386618662  0.17964980038004
 6 -8.71918425792579 -4.91088718711871 -0.69142252535254
 6 -5.33544900780078 -4.38689225262526  0.12733770787079
 8 -5.08616960926093 -5.56088294529453  0.16088203680368
 6 -4.19643414601460 -3.34120156755676  0.67975629722972
 6 -3.57060123692369 -3.67962590529053  1.98399436793679
 8 -3.82067485088509 -3.18056541444144  3.03922728092809
 8 -2.76932228502850 -4.76239485798580  1.81215025252525
 6 -2.35674463146315 -5.33503870977098  3.05012241264126
 6  2.79707602800280 -0.52817110601060 -1.25608912611261
 6  4.13103398859886 -0.40080534843484 -0.55079764256426
 6  5.12279777107711  0.44986151415142 -0.87211008800880
 6  5.00204392999300  1.46933460876088 -2.07121125612561
 6  6.41822810151015  0.50186080208021 -0.16415694009401
 6  7.67076852945294  0.00953240524052 -1.06294662336234
 6  8.93306101770177 -0.05331714781478 -0.24154025642564
 6  10.14821028162816 -0.56510817401740 -1.12132785278528
 6  9.96702997959796 -2.10688856875688 -1.43022998899890
 6  11.37859252305230 -0.34882977407741 -0.19717768026803
 6  12.81579931543154 -0.64645467896790 -0.83258076317632
 6  13.94985625742574 -0.30091580588059  0.15898230983098
 6  15.24219021002100 -0.25355443904390 -0.46676232873287
 6  15.75798206920692 -1.69960834913491 -1.07460928722872
 6  16.26205319801980  0.38918543584358  0.42977771247125
 6  17.77155474317432  0.43597732733273 -0.16000252725273
 6  18.65851627022702  1.27009508800880  0.74840809750975
 6  20.12171497589759  1.31300073257326  0.33122982898290
 6  20.30936378217822  2.27345465056506 -0.92430712661266
 6  21.08619368636863  1.92339403930393  1.54481842184218
 1 -4.00225058855886  3.42443569496950  1.49916601240124
 1 -10.19599172247225  3.94641691619162 -0.56591111731173
 1 -10.33808823292329 -2.32924845994599 -1.30015783518352
 1 -2.75274256145615 -0.95008521122112  2.18755524622462
 1 -2.24218768506851  1.60756281738174  1.33561721072107
 1 -1.94999808620862  0.82273137953795  3.61816215361536
 1 -3.31904901400140  2.12876209900990  3.63606162836284
 1 -3.52205500600060  0.36915206950695  3.83511519671967
 1 -1.88608372737274 -1.65601627242724 -0.09991799889989
 1 -2.12529889888989  0.24623224302430 -0.74582131673167
 1 -0.15703113181318  0.60092968026803  0.85333919691969
 1 -0.30844926522652 -1.14139490609061  1.28237169546955
 1 -5.70135431313131  6.92326983898390  0.50667049834984
 1 -5.60950242154215  6.35254813621362  2.19542155465547
 1 -4.47035187978798  5.59483375137514  0.94464519711971
 1 -9.26621688148815  5.96412979497950 -0.48894024672467
 1 -8.93254231793179  7.99439916091609  0.45565534123412
 1 -7.39718765086509  7.49427626402640  1.35375433573357
 1 -12.35580605360536  3.04244339143914 -2.50148598009801
 1 -13.32958025572557  1.96923566596660 -1.37286301450145
 1 -12.19860089278928  3.15528286238624 -0.59131957145715
 1 -12.12057402230223 -1.59132005480548 -1.23261676257626
 1 -13.20055235433543 -0.20937364786479 -1.49639539393939
 1 -13.19160435963597 -1.88524218631863 -3.40827178527853
 1 -11.87982838853885 -0.40031850315031 -4.04602358075808
 1 -11.39531437083708 -2.08760978817882 -3.25109338753875
 1 -9.19358397699770 -4.64054055485549 -1.59736579957996
 1 -8.14781916711671 -5.91595754905491 -0.58551850695069
 1 -9.48311249024903 -4.88748719711971  0.22691042234223
 1 -3.30551807030703 -3.56722332793279  0.00067232913291
 1 -1.81135452305231 -4.51635384878488  3.65068678627863
 1 -3.32074851215121 -5.55380490539054  3.72901393909391
 1 -1.67698821932193 -6.24085487028703  2.84267762886289
 1  2.71996005080508 -1.60787741054105 -1.46795824452445
 1  2.69512595389539 -0.02313422862286 -2.19073013051305
 1  4.24421490819082 -1.08323673747375  0.33771517171717
 1  3.80946625812581  1.66380192289229 -2.31459194489449
 1  5.61044797699770  2.28227865176518 -1.90611805020502
 1  5.32008157665767  1.07569876077608 -3.13843009990999
 1  6.44554273817382  1.57144712531253  0.23896351025103
 1  6.60630850295030 -0.28323566026603  0.68271446694669
 1  7.38740086288629 -0.98473914691469 -1.42489724692469
 1  7.85503806230623  0.75367447044705 -1.95068589148915
 1  9.09817586188619  1.11685118261826  0.03636606470647
 1  9.02413553435344 -0.58877723042304  0.72682880628063
 1  10.23499813161316 -0.03351720392039 -1.95490064806481
 1  9.34626423552355 -2.37980626412641 -2.21694007590759
 1  10.91382052265227 -2.44689808910891 -1.91032639073907
 1  9.88727092419242 -2.58733284798480 -0.41445883958396
 1  11.37169881148115  0.68394482788279  0.32912068286829
 1  11.33251084658466 -1.09373067066707  0.59433575367537
 1  12.98956690919092 -1.64778219751975 -1.29595186668667
 1  13.02711854175417  0.02303723972397 -1.76217055075507
 1  13.75277669796980  0.69332469576958  0.70811564026403
 1  14.10276858745875 -1.16072245114512  0.98377075107511
 1  15.20262066346635  0.28357175417542 -1.50421168996900
 1  15.96875067186719 -2.46420576177618 -0.21809994549455
 1  14.97699934433443 -2.10855537553755 -1.82403377687769
 1  16.72008028762876 -1.61452234923492 -1.81546806010601
 1  15.94217749124912  1.37622595629563  1.03257917421742
 1  16.36060013781378 -0.24105038983898  1.40007850255026
 1  18.13010974867487 -0.61802831683168 -0.33588378397840
 1  17.67536484608461  0.74794368846885 -1.19105484908491
 1  18.31693074997500  2.30561182918292  0.96106805360536
 1  18.62272823532353  0.68229306880688  1.60590383588359
 1  20.47518735103510  0.17175817341734  0.23697959015902
 1  20.16290310881088  3.37182795929593 -0.66980916561656
 1  21.34311811261126  2.30609175127513 -1.12104008520852
 1  19.71090948854885  1.78635892609261 -1.72191057545755
 1  21.01438529202920  1.18318395929593  2.41141481028103
 1  22.08965685848585  1.92018248894890  1.10603725732573
 1  20.63846392489249  3.07386350355035  1.66597373407341

