%nproc=4
%Mem=2GB
# td=(NStates=1) CAM-B3LYP/6-31G(d,p) 

TD

0 1
12 -7.19606017901790  0.56304505260526  0.24089177657766
 6 -4.85100971897190 -1.90780195859586  0.57604413711371
 6 -4.81353128202820  2.91371981928193  1.18987535243524
 6 -9.52523725922592  3.02830832633263 -0.31180404010401
 6 -9.55306562026203 -1.73155866686669 -1.04871130023002
 7 -5.16612003660366  0.43546336443644  0.70917133543354
 6 -4.31589129522952 -0.70892071407141  0.78850687388739
 6 -2.87694670007001 -0.37422684838484  1.20691104530453
 6 -3.02461589999000  1.13399606790679  1.66015674637464
 6 -4.49558655355536  1.55514626342634  1.13959098899890
 6 -2.92091717381738  1.26315860396040  3.15822723162316
 6 -1.89414287528753 -0.71097635903590  0.09427338563856
 6 -0.37155457805781 -0.32181652885289  0.46639076837684
 6  0.54098523572357 -0.50028354125413 -0.62548792929293
 8  0.26299753985399 -1.01333674127413 -1.71726805850585
 8  1.81904371487149 -0.28140553695370 -0.36302309120912
 7 -7.16854730263026  2.60629621942194  0.33394208970897
 6 -6.07738701770177  3.35159613541354  0.80640417401740
 6 -6.43209046214621  4.77575186458646  0.79310999819982
 6 -7.71792449944995  4.83878450995099  0.35757414871487
 6 -8.21131540314031  3.43265246054605  0.08069061536154
 6 -5.60417837453745  5.87939040494049  1.04932969346935
 6 -8.63880167776778  5.94388542224222  0.09426641204120
 6 -8.62625651695170  7.06980309890989  0.75181143094309
 7 -9.20927319991999  0.62246510761076 -0.44025805950595
 6 -9.95652191189119  1.70188014111411 -0.62990931503150
 6 -11.28994809140914  1.42800113921392 -1.07586930643064
 6 -11.28960136403640  0.06844220832083 -1.26971568556856
 6 -9.95820150085008 -0.45188716301630 -0.84370938703870
 6 -12.44225304900490  2.41205177617762 -1.30747752255226
 6 -12.36754130043004 -0.85078248834883 -1.76835764426443
 6 -12.41226871527153 -1.02903531473147 -3.35128024662466
 7 -7.31415088338834 -1.37605721932193 -0.11708638563856
 6 -8.26579681948195 -2.18668384048405 -0.51453640884088
 6 -7.91058720432043 -3.58014628212821 -0.45561283858386
 6 -6.51327521162116 -3.55860019701970  0.02490075817582
 6 -6.18491108750875 -2.11373965526553  0.11206401060106
 6 -8.62481994939494 -4.84692753515352 -0.75789426782678
 6 -5.35520999129913 -4.37848173167317  0.14153702630263
 8 -5.07391622952295 -5.55421990539054  0.14103113381338
 6 -4.15435901530153 -3.33023881368137  0.64015388068807
 6 -3.59049968086809 -3.67630285158516  1.98517889078908
 8 -3.76545814641464 -3.00720745694569  2.91293397449745
 8 -2.60812200590059 -4.59512423482348  1.84383296419642
 6 -2.08731931983198 -5.16221045014501  2.97628256375638
 6  2.91816432813281 -0.76951474607461 -1.24544574497450
 6  4.21880396939694 -0.50823900020002 -0.59182933193319
 6  5.15367885228523  0.30433669906991 -1.07530730343034
 6  5.12526094909491  1.07140979027903 -2.31450561586159
 6  6.46625095789579  0.49928177837784 -0.31803828902890
 6  7.66493403130313 -0.13567391429143 -1.15694264476448
 6  8.87552942554255 -0.05079020942094 -0.29151096389639
 6  10.16072669716972 -0.47168424012401 -1.01913288378838
 6  10.18282498269827 -1.99468040414041 -1.32202566756676
 6  11.37298017491749 -0.04675845664566 -0.13848297969797
 6  12.86284119181918 -0.39819387048705 -0.73601362426243
 6  14.03532300070007 -0.02092329512951  0.20552762026203
 6  15.35882200710071 -0.15639936903690 -0.47789602940294
 6  15.62174384328433 -1.62046968076808 -0.85490510821082
 6  16.50793489938994  0.29579393939394  0.38569307650765
 6  17.91517610701070  0.36829822822282 -0.21570738533853
 6  18.86635700520052  1.15701391839184  0.79606003900390
 6  20.34221289048905  1.20772110561056  0.41341610481048
 6  20.58907026082608  2.06764506170617 -0.92126311901190
 6  21.11081201200120  1.82888582488249  1.60331569496950
 1 -4.09635111961196  3.63104862626263  1.59006359325933
 1 -10.23502389508951  3.69777061206121 -0.54804019551955
 1 -10.27351064046405 -2.39140848164817 -1.33773042524252
 1 -2.45113157005701 -0.92400071397140  2.18250894209421
 1 -2.17014061926193  1.78148173077308  1.10736138653865
 1 -1.72215667316732  1.00844129702970  3.59691340484048
 1 -3.08963402340234  2.44093815131513  3.31670383578358
 1 -3.71665510821082  0.56094077807781  3.53868628142814
 1 -1.87121960686069 -1.63482344274427 -0.21470537973797
 1 -2.00528220072007 -0.12352510211021 -0.81572161176118
 1 -0.35889940734073  0.74459907380738  0.81496189528953
 1  0.11501369936994 -0.96054056925693  1.23049700490049
 1 -5.88072684808481  6.84570321442144  0.69808551775178
 1 -5.25464245364536  6.12952631573157  2.20414671177118
 1 -4.48448240424042  5.75262642904290  0.70661383698370
 1 -9.35946799929993  5.83921006910691 -0.80486071427143
 1 -9.28614983088309  7.90955169406941  0.39310893269327
 1 -7.99821928772877  7.22311871137114  1.69163754925493
 1 -12.29348345344535  3.12738306430643 -2.03789679437944
 1 -13.31441111031103  1.53210710191019 -1.59249044054405
 1 -12.58871060216022  2.89157781248125 -0.28062930693069
 1 -12.41235601400140 -1.78800824592459 -1.27621257615762
 1 -13.27708642754275 -0.51583832063206 -1.49321484898490
 1 -13.14882123472347 -1.78143282948295 -3.56538642314231
 1 -12.40196376057606 -0.07953249084908 -3.93302679837984
 1 -11.50652693199320 -1.51131599869987 -3.74300292029203
 1 -9.02369197219722 -4.88205894879488 -1.72479574367437
 1 -7.97451681648165 -5.67067707190719 -0.65570518351835
 1 -9.57245713061306 -4.84745976727673 -0.13814563716372
 1 -3.21574227012701 -3.34214746544655 -0.03434870637064
 1 -1.30809897639764 -4.44415085478548  3.60705362066207
 1 -2.83092270087009 -5.42353397099710  3.67350018891889
 1 -1.56315442694270 -6.08963823702370  2.74737869076908
 1  2.77430673477348 -1.94440627652765 -1.46928089308931
 1  2.60287776537654 -0.27291301170117 -2.26132928512851
 1  4.31403230883088 -1.20912312751275  0.22719593559356
 1  4.23054201770177  1.04666337673767 -2.86530490019002
 1  5.36030144184418  2.30036029492949 -2.29901636983698
 1  5.89135644324432  1.08014912241224 -2.97344607560756
 1  6.45987805070507  1.63396739673967 -0.18651600880088
 1  6.43338745814582 -0.11662970037004  0.53505322202220
 1  7.23658104280428 -1.30193942914291 -1.20075139873987
 1  7.86176861276128  0.28091129922992 -2.09135205880588
 1  9.09046109770977  0.93493137813781 -0.11391375917592
 1  8.83488197689769 -0.47039254545455  0.75724358805881
 1  10.29244679607961  0.08968150585059 -1.86402129162916
 1  9.37296228172817 -2.28434641114111 -2.01967789258926
 1  10.98103065876588 -2.27781456535653 -1.79150339423942
 1  10.06068895489549 -2.46859880188019 -0.43358279797980
 1  11.52354003490349  1.01068329852985  0.22529401690169
 1  11.25365841924192 -0.58296425772577  0.65853647524753
 1  12.94447776667667 -1.38517667886789 -1.12213988158816
 1  12.96994074657466  0.33407409840984 -1.59992335363536
 1  13.70132156885689  0.87853040904090  0.66120346334633
 1  13.79179193229323 -0.81425102980298  1.06661317781778
 1  15.19597288578858  0.36693617861786 -1.39784414241424
 1  15.90679812271227 -2.36048634073407  0.02368091419142
 1  14.83474652535254 -2.30124249984999 -1.49201661676168
 1  16.62190181958196 -1.86992251715172 -1.54141561106111
 1  16.29111431213121  1.40748858255826  0.61800834513451
 1  16.59534398159816 -0.37673684878488  1.23183594479448
 1  18.28558949764977 -0.68194474187419 -0.42334567496750
 1  18.26535359985999  0.85026234513451 -1.21382495829583
 1  18.44717551015102  2.34355851355136  0.86160416571657
 1  18.93224038433844  0.51979616061606  1.85244524482448
 1  20.77079199189919  0.26959310751075  0.19980704470447
 1  20.34028813541354  3.28476203810381 -0.80675426882688
 1  21.53546779887989  1.81903855665567 -1.42814417771777
 1  19.81761566596660  1.50270208100810 -1.71577854685469
 1  21.26949292449245  0.69478758785879  2.05639525672567
 1  22.14104581088109  2.11937316701670  1.23984895119512
 1  20.59679940984099  2.73879396269627  2.12347278777878

