%nproc=4
%Mem=3GB
# td=(NStates=1) iop(3/107=0140000000,3/108=0140000000) CAM-B3LYP/6-31G(d,p) 

TD

0 1
12 -7.08805349704970  0.63777216071607  0.06942331233123
 6 -4.90318913541354 -2.00966819741974  0.61678708110811
 6 -4.89517554815482  2.95085380328033  1.27815792099210
 6 -9.43641040554055  3.19868742174217 -0.52657513281328
 6 -9.52049814781478 -1.69535130083008 -1.02391919681968
 7 -5.26367339853985  0.46994308490849  0.71859968396840
 6 -4.41062330963096 -0.67562870607061  0.83629152385239
 6 -3.00802702330233 -0.34171256925693  1.20437610671067
 6 -3.21105433233323  1.19827852945294  1.61166744604460
 6 -4.49264949964997  1.55022967406741  1.19088348224822
 6 -3.08215439623962  1.31006382568257  3.13164847944794
 6 -1.94070980068007 -0.52381837103710  0.15834964526453
 6 -0.49155486468647 -0.40948419641964  0.65836921922192
 6  0.51963388658866 -0.77342396429643 -0.46051584168417
 8  0.26312652945295 -1.07590136783678 -1.56362375547555
 8  1.83683228162816 -0.45444538293829 -0.01553694129413
 7 -7.10449809320932  2.75444865476548  0.34830575467547
 6 -6.09246939073907  3.35928969636964  0.89910578667867
 6 -6.50065497389739  4.80760762436244  0.75503376207621
 6 -7.77436222152215  4.86271807700770  0.39464559095910
 6 -8.18595812331233  3.48928586738674  0.07277527612761
 6 -5.62311434533453  5.93606308000800  1.25138529372937
 6 -8.58858886688669  5.99132940254025  0.27761837433743
 6 -8.49701811181118  7.21650079977998  0.89582364166417
 7 -9.02160120122012  0.68766576097610 -0.56880345424542
 6 -9.82137962426243  1.84120744504450 -0.80129294279428
 6 -11.17702165486549  1.49626907140714 -1.27592245194519
 6 -11.22851233843384  0.14320186598660 -1.38324835313531
 6 -9.94237184078408 -0.35551574497450 -1.02231443274327
 6 -12.29736067376738  2.42223746514651 -1.42659211191119
 6 -12.38282207510751 -0.76646277007701 -1.74160349094909
 6 -12.22878478737874 -1.14715490779078 -3.28516916811681
 7 -7.23465642804280 -1.43995883158316 -0.17266994209421
 6 -8.33101742804281 -2.27006555205521 -0.57491907180718
 6 -7.84264630443044 -3.59579013041304 -0.42798309810981
 6 -6.57279507000700 -3.57486046814681  0.02133005130513
 6 -6.22025575727573 -2.22071002680268  0.09424125952595
 6 -8.70842318181818 -4.76613271167117 -0.97941132423242
 6 -5.35375083798380 -4.38316187958796  0.19849482358236
 8 -5.21804279657966 -5.56982383938394  0.10307625622562
 6 -4.23451795439544 -3.28889633703370  0.53635195679568
 6 -3.56893106990699 -3.70283822652265  1.83426939543954
 8 -3.84558734213421 -3.18233559145915  2.94711807000700
 8 -2.70713606640664 -4.68905752425243  1.70861989948995
 6 -2.02755171217122 -5.13665887178718  2.85916331673167
 6  2.78667498789879 -0.64243253215322 -1.12657617481748
 6  4.19111999719972 -0.54176944484448 -0.47782034483448
 6  5.20285577687769  0.33344987298730 -0.88525140214021
 6  5.11978570417042  1.10072774807481 -2.23863799879988
 6  6.51894817351735  0.24523513951395 -0.17278780318032
 6  7.69710116271627 -0.29859840784078 -0.96062639133913
 6  9.03131084268427 -0.14816663276328 -0.14396049844985
 6  10.22395785638564 -0.66741840504050 -0.82300802080208
 6  10.11917519411941 -2.19646752665267 -1.19016598259826
 6  11.48827349114911 -0.34874976607661  0.04429646714671
 6  12.90196793229323 -0.46973700720072 -0.66712421752175
 6  13.95347661946195 -0.20374608890889  0.31853826542654
 6  15.48788477947795 -0.24348343194319 -0.36495214771477
 6  15.69165543654366 -1.60143853215322 -0.87632945924592
 6  16.52102909560956  0.34915143244324  0.50266500120012
 6  17.90052764046405  0.60558428802880 -0.35756228322832
 6  18.91037145574557  1.24833291179118  0.61191444814481
 6  20.40440324472447  1.41128056055606  0.01017772377238
 6  20.23656650245024  2.40750805590559 -1.22873756965697
 6  21.34748981598160  1.84949664956496  1.13105704570457
 1 -4.17758812231223  3.74002725412541  1.49726582238224
 1 -10.25000712401240  3.98543081758176 -0.80888541474147
 1 -10.28840326442644 -2.49484501960196 -1.37700551995200
 1 -2.58402568976898 -1.00606080878088  2.07416390709071
 1 -2.41013447974797  1.65634769586959  1.08829247824782
 1 -2.12834592099210  0.94690379677968  3.51344168156816
 1 -3.18545565466547  2.29814903770377  3.30993901610161
 1 -3.88886168666867  0.85932108640864  3.81971365656566
 1 -2.09285440444044 -1.43713438423842 -0.39655766286629
 1 -1.92763913291329  0.18553617341734 -0.64200093469347
 1 -0.43541897059706  0.61145073237324  0.95864972797280
 1 -0.42177059735974 -0.99158992559256  1.56639009730973
 1 -6.01858603630363  7.00042755475548  0.74800463176318
 1 -5.56114758605861  5.74458734013401  2.47330934343434
 1 -4.78485332993299  5.66040030803080  0.82678341094109
 1 -9.46957721752175  5.83369675167517 -0.29576092879288
 1 -9.11573063676368  8.15435515651565  0.75011478717872
 1 -7.90811874397440  7.14148098449845  1.87005596589659
 1 -12.05357583058306  2.96023517061706 -2.31786761826183
 1 -13.31087838553855  1.90889963236324 -1.70365609380938
 1 -12.62523355605561  2.84434176827683 -0.68232867236724
 1 -12.28544050895089 -1.70956187898790 -1.08825232613261
 1 -13.24247654675468  0.00927821732173 -1.54840059445945
 1 -13.28248344754475 -1.78407206930693 -3.55334629272927
 1 -12.43082348804880 -0.26146461776178 -3.88564754315432
 1 -11.34799963936394 -1.65293632083208 -3.41798007620762
 1 -9.46978159675968 -4.33922042284228 -1.90649671267127
 1 -8.01574595979598 -5.71710766406641 -1.39369932503250
 1 -9.37350152915292 -5.29440788918892 -0.19089135783578
 1 -3.47241475997600 -3.50492709830983 -0.27282502060206
 1 -1.66970035763576 -4.28190040344034  3.57227894549455
 1 -2.61399783708371 -5.65644516941694  3.57002804050405
 1 -1.17056757725773 -5.85059584438444  2.49622298339834
 1  2.66788484328433 -1.74634125692569 -1.74824627332733
 1  2.51930837213721  0.09429751455146 -1.92686374387439
 1  4.32141262796280 -1.14638305210521  0.35289668986899
 1  4.13373868536854  1.03085862856286 -2.82966345204520
 1  5.24090102230223  2.21199162306231 -2.01445888428843
 1  6.04071363986399  0.79490068096810 -2.75606186308631
 1  6.75841402530253  1.24394437503750  0.40233984788479
 1  6.36258413051305 -0.21873921062106  0.83197939343934
 1  7.58304042684268 -1.31091176417642 -1.34859961716172
 1  7.79859241774177  0.31268037103710 -1.68549937283728
 1  9.09817586188619  0.88245774327433  0.11095352345235
 1  8.86330945174518 -0.75950430313031  0.83657978137814
 1  10.43462809460946 -0.14302815501550 -1.82411756975698
 1  9.14153376247625 -2.42424070757076 -1.77347572947295
 1  11.06783592419242 -2.44057745704570 -1.74954031213121
 1  10.07256945404541 -2.75223933863386 -0.25610300400040
 1  11.20173181478148  0.65956238963896  0.39736750755076
 1  11.53155075057506 -1.12782408000800  0.94543086318632
 1  12.95521347384738 -1.45068248754875 -1.08350062156216
 1  12.86921275117512  0.33994893089309 -1.54747908160816
 1  14.01144256455646  0.80120548384838  0.92593742244224
 1  14.03077138773877 -1.15878225712571  0.99771214521452
 1  15.14823522492249  0.53389678667867 -1.26015728452845
 1  15.71233503030303 -2.10628997019702  0.06917878237824
 1  14.69691133553355 -1.95009952995300 -1.40407178067807
 1  16.47865614521452 -2.00507140414041 -1.53325983928393
 1  16.15853912741274  1.42286061976198  0.96612252855286
 1  16.98890296809681 -0.29567585238524  1.30154864956496
 1  18.29864660236024 -0.44024053805381 -0.54379457505751
 1  17.79611692129213  1.05430432453245 -1.19406515011501
 1  18.66763582048205  2.41476274427443  0.80956290309031
 1  18.82373833633363  0.80495533503350  1.63682692819282
 1  20.57577741004101  0.49825082268227 -0.34797890569057
 1  19.75576239473947  3.33005378187819 -1.00960314501450
 1  21.34148794959496  2.59982112421242 -1.64435241644164
 1  19.75851424902490  1.79859014921492 -2.06691507590759
 1  21.05352920642064  1.26277191809181  2.26434010281028
 1  22.36026391919192  1.54532500320032  0.75250190379038
 1  21.15600567906791  3.06823294049405  1.18469560626063

