%nproc=4
%Mem=2GB
# td=(NStates=1) CAM-B3LYP/6-31G(d,p) 

TD

0 1
12 -7.12794336733673  0.56184493259326  0.08828651605161
 6 -4.83837845584558 -1.90980215861586  0.52091862456246
 6 -4.67247717661766  2.87550599789979  0.95920228512851
 6 -9.35759049454945  3.14231972747275 -0.30207306700670
 6 -9.62061237493749 -1.75091060206021 -0.84408083718372
 7 -5.04344776937694  0.45327514561456  0.80148056635664
 6 -4.33374308040804 -0.65691551355136  0.83278130133013
 6 -2.87433643904390 -0.44763418911891  1.31097145134513
 6 -2.91440487888789  1.04292696099610  1.64144487518752
 6 -4.29359635453545  1.49194994379438  1.13915094499450
 6 -3.04267935003500  1.24845713381338  3.18301971087109
 6 -1.93081654265427 -0.68404366576658  0.11924588288829
 6 -0.45139256185619 -0.42870721792179  0.47270139943994
 6  0.53912504970497 -0.78984249714971 -0.58263364386439
 8  0.27853909400940 -1.17803321092109 -1.75893222492249
 8  1.75635744624462 -0.31945934233423 -0.23750053895390
 7 -7.00336078397840  2.55297088688869  0.22508120362036
 6 -6.06101538053805  3.36466744254425  0.77358089168917
 6 -6.37545479857986  4.64841913131313  0.67510819801980
 6 -7.69626233323332  4.81139177067707  0.42961135243524
 6 -8.09068333993399  3.49967916321632  0.08845139143914
 6 -5.40705866256626  5.78203066896690  1.16206096659666
 6 -8.55663346094609  5.97697873157316  0.19444643004300
 6 -8.46574046534653  7.21001712031203  0.82809905970597
 7 -9.15446771937194  0.73411627272727 -0.47706173987399
 6 -9.85604186388639  1.87418737183718 -0.59269559365937
 6 -11.15266436303630  1.56379471857186 -1.02477419691969
 6 -11.09964236813681  0.14971033513351 -1.25849456345635
 6 -9.86692237293729 -0.33669564386439 -0.97328234433443
 6 -12.31742056575657  2.53872444344434 -1.32075885068507
 6 -12.25227977427743 -0.72195960606061 -1.82971377987799
 6 -12.10980846924693 -0.94396680788079 -3.40202532113211
 7 -7.24006347464747 -1.37759737333733 -0.12474715171517
 6 -8.34425466526653 -2.20625579767977 -0.46693164836484
 6 -7.86191233683368 -3.67824609210921 -0.43988126542654
 6 -6.52361624572457 -3.59041337833783 -0.04993672557256
 6 -6.23763636003600 -2.15146342764276  0.12667547174717
 6 -8.60784825222522 -4.82001484388439 -0.72266074447445
 6 -5.32830730103010 -4.33604748824883  0.24115698829883
 8 -5.22746158405841 -5.56231071447145  0.14008103880388
 6 -4.20630420982098 -3.32685847564756  0.52702256755676
 6 -3.63343397429743 -3.72366758805881  2.00402077497750
 8 -3.82852445304530 -3.08166490269027  2.96316899799980
 8 -2.86643783748375 -4.83919864226423  1.81978055895590
 6 -2.40396098399840 -5.36609083818382  3.14184912041204
 6  2.76535904760476 -0.53695148974897 -1.38328952935294
 6  4.01199328832883 -0.45303347964796 -0.73274342334233
 6  5.15927941234123  0.26415268066807 -1.10248002070207
 6  5.10823924692469  0.99376202550255 -2.38206237153715
 6  6.29947428022802  0.25189703990399 -0.30333681888189
 6  7.59319685758576 -0.21484183108311 -1.10754770527053
 6  8.87357923052305 -0.17398252865287 -0.14072588538854
 6  10.20871149564957 -0.64048111981198 -0.79440041054105
 6  10.26038273847385 -2.09592052815282 -1.22061552655266
 6  11.45316819371937 -0.23731751255126 -0.01438056945695
 6  12.84279918761876 -0.53758780988099 -0.63286330923092
 6  14.05613508190819 -0.08704990779078  0.21154822232223
 6  15.36104222912291 -0.14026775587559 -0.47717595739574
 6  15.76347801670167 -1.62536016981698 -0.84229384708471
 6  16.38370247614762  0.49174353435344  0.48491299849985
 6  17.74591918131813  0.59169056745675 -0.12871868646865
 6  18.76225659515952  1.32013023002300  0.81106153915392
 6  20.15158382758276  1.40078041154115  0.20118488168817
 6  20.23695504930493  2.38583688088809 -1.06671766446645
 6  21.16479741054106  2.06412934923492  1.21806717011701
 1 -3.99897138163816  3.69074459585959  1.11600618751875
 1 -10.01925231793179  3.91711254625463 -0.60451584308431
 1 -10.41018430783078 -2.44377371817182 -1.32203885608561
 1 -2.61905836273627 -1.00679899379938  2.13752444364436
 1 -2.05221882708271  1.71871545414541  1.17502815321532
 1 -1.95851030853085  1.05073552645265  3.50567428092809
 1 -3.16716177617762  2.25456951445145  3.34574674007401
 1 -3.97718116081608  0.70977566156616  3.68955136793679
 1 -1.96427891279128 -1.75591555195520 -0.26885079427943
 1 -2.31318299079908 -0.07433018261826 -0.72951299089909
 1 -0.10505402280228  0.52690730463046  0.61164156325633
 1 -0.30102790479048 -1.01150566576658  1.49419337453745
 1 -5.69791856725672  6.59578822292229  0.55832154135414
 1 -5.75098208760876  6.17039040214021  2.26989328642864
 1 -4.30817477347735  5.45720688708871  1.12175535113511
 1 -9.21355340784078  6.04629077717772 -0.69425965416542
 1 -9.16454767066707  8.09779051795180  0.26888651045105
 1 -7.79994946074607  7.47449384888489  1.57089547504750
 1 -11.95410951605161  3.20886121212121 -2.12158516321632
 1 -13.11954162336234  1.93903779497950 -1.68249944144414
 1 -12.53699543064307  3.13546220092009 -0.43177442144214
 1 -12.08575335373537 -1.63862330743074 -1.29682463736374
 1 -13.21856057495750 -0.29214595139514 -1.44561008850885
 1 -12.88335468806881 -1.76329101530153 -3.72052193669367
 1 -12.24280784498450  0.11781724412441 -3.77935143084308
 1 -11.10073635293529 -1.31087595469547 -3.80156877687769
 1 -8.83557316031603 -4.76318706160616 -1.83578684278428
 1 -7.95116448124812 -5.71239124332433 -0.79955956895690
 1 -9.46311619651965 -4.92453747504751  0.00515869326933
 1 -3.52358305420542 -3.31016426712671 -0.24367963946395
 1 -1.71929009550955 -4.61371781148115  3.50700361566157
 1 -3.22096170477048 -5.62853447104710  3.66764960386039
 1 -1.87809592109211 -6.36555582878288  2.95148910181018
 1  2.35838514261426 -1.47600943684368 -2.13284724972497
 1  2.24766224382438  0.45922020162016 -1.85336848904890
 1  3.95360626622662 -1.01616383158316  0.19504272027203
 1  4.15644460796080  1.11237994839484 -2.74577294699470
 1  5.69798521022102  2.04635489438944 -2.42648911711171
 1  5.89310661826183  0.60574168166817 -3.15102383338334
 1  6.35923798669867  1.15218921892189  0.20637328012801
 1  6.26449056845685 -0.39396743414341  0.54102381908191
 1  7.37088447314731 -1.31355059025903 -1.66062738633863
 1  7.72084452035203  0.38764197229723 -2.09082200580058
 1  8.99549160076008  0.84901278627863  0.17542517471747
 1  8.83790227892789 -0.68122362856286  0.94092195589559
 1  10.45790334173417  0.08988152585259 -1.57436232573257
 1  9.32250723622362 -2.39241721822182 -1.61639756455646
 1  11.16960951665166 -2.55596238013801 -1.78441268516852
 1  10.01961484748475 -2.74489643164316 -0.43659309900990
 1  11.29953763466347  0.86583881408141  0.19022050955096
 1  11.22600565396540 -0.56700266156616  1.02525314691469
 1  12.93642696159616 -1.52334049524953 -0.82461012861286
 1  12.97130088258826 -0.09422873187319 -1.58907226852685
 1  13.64374581128113  0.96942949894990  0.55631297429743
 1  14.02942569566957 -0.65180478517852  1.00102661916192
 1  15.21340462896290  0.40639012401240 -1.50823518151815
 1  15.64752219511951 -2.39246953905391 -0.00418187208721
 1  14.89502255295530 -2.02325470107011 -1.61321873697370
 1  16.83736336573658 -1.82696822172217 -1.13727519701970
 1  16.05018021872187  1.53993182688269  0.57043358765877
 1  16.30019446664666 -0.16904607970797  1.39954271547155
 1  18.10276121482148 -0.30888743614361 -0.36467980838084
 1  17.61376844134413  1.10316763566357 -1.14545812161216
 1  18.32916370897090  2.24628878657866  1.05563356865687
 1  18.92762992329233  0.77992217321732  1.77592759305931
 1  20.45142005470547  0.39557570577058  0.02853991799180
 1  19.99430353695369  3.34716827872787 -0.53912750615061
 1  21.37148140024003  2.64248090089009 -1.37382874617462
 1  19.60516442084209  2.17827963876388 -1.90428739773977
 1  21.42562853805380  1.48741685078508  2.26089570677068
 1  22.08273998029803  2.21923315301530  0.79255422172217
 1  20.75193492339234  3.03306338963896  1.45577601810181

