%nproc=4
%Mem=2GB
# td=(NStates=1) CAM-B3LYP/6-31G(d,p) 

TD

0 1
<<<<<<< HEAD
12 -7.01868244124412  0.54932368046805  0.06745443284328
 6 -4.86462108010801 -1.90824200260026  0.43840037273727
 6 -4.78468839773977  2.85116356365637  1.10917728262826
 6 -9.39382411791179  3.12897839333933 -0.48851171087109
 6 -9.66894720842084 -1.79810532153215 -0.81928835793579
 7 -5.01961538613861  0.44604442254225  0.67567798609861
 6 -4.33043274937494 -0.71177099909991  0.76298432163216
 6 -2.89156816221622 -0.49417884358436  1.15833618781878
 6 -3.02387582598260  1.01536420472047  1.68997972867287
 6 -4.44461145604560  1.46914766356636  1.16479350925093
 6 -3.03093817591759  1.20906319441944  3.18828023692369
 6 -1.91158461946195 -0.66453171457146  0.04181814011401
 6 -0.45677309990999 -0.35222957015702  0.53333746304630
 6  0.56574771197120 -0.60860437333733 -0.63063844434443
 8  0.16542778287829 -0.88259366696670 -1.71893822552255
 8  1.78383019351935 -0.42481987838784 -0.28182497139714
 7 -7.11489193709371  2.53596918671867  0.24660335583558
 6 -6.05771505050505  3.29960093589359  0.72753628722872
 6 -6.47948520162016  4.70213450285029  0.78654934213421
 6 -7.72929563656366  4.81510214171417  0.29176756805681
 6 -8.08052232383238  3.44980417571757  0.00277282358236
 6 -5.59383734043404  5.84381684758476  1.29355411591159
 6 -8.54625242284228  6.01884291799180  0.16799378477848
 6 -8.51213510481048  7.15948206680668  0.92939918971897
 7 -9.14725699829983  0.70218307940794 -0.50071410511051
 6 -9.80563682338234  1.81599155225523 -0.69133545764576
 6 -11.16811590819082  1.43366170527053 -1.18959067856786
 6 -11.27928033193319  0.10950631473147 -1.29862857685769
 6 -9.94423010371037 -0.40897287158716 -0.92333734983498
 6 -12.22803162686269  2.44416498749875 -1.54980175497550
 6 -12.38728327462746 -0.75421283138314 -1.81407221572157
 6 -12.41555904430443 -1.14626703790379 -3.33150826942694
 7 -7.21308077637764 -1.42801241484148 -0.22674735173517
 6 -8.31385162496250 -2.26472164426443 -0.48217317251725
 6 -7.89110525612561 -3.66603487098710 -0.44268154545455
 6 -6.59001288538854 -3.61439577657766 -0.02846457835784
 6 -6.24162675907591 -2.34075235653565  0.10673347754775
 6 -8.66730419781978 -4.89938278067807 -0.87611609000900
 6 -5.34137860816082 -4.38726260976098  0.18668154075408
 8 -5.08664750265027 -5.57018150155016  0.20552758345835
 6 -4.18743232263226 -3.30063585338534  0.62824268956896
 6 -3.70218084898490 -3.67856307760776  1.94832520542054
 8 -3.96024762536254 -3.05590232643264  2.99454213531353
 8 -2.75495668936894 -4.66723144554455  1.86757533843384
 6 -2.30775136303630 -4.98907313641364  3.22015695119512
 6  2.81068358005801 -0.64631242584258 -1.22035323572357
 6  4.12947503650365 -0.38657683398340 -0.57706785578558
 6  5.09901338573857  0.36190245564556 -0.84994476717672
 6  5.07014543754375  1.24076672597260 -2.09213337863786
 6  6.40407474027403  0.45725757595760 -0.03489997519752
 6  7.68408594649465 -0.11798214511451 -0.81271822232223
 6  8.96602847544755 -0.06575170557056  0.03264145134513
 6  10.22390301480148 -0.43091016271627 -0.78956992749275
 6  10.05964266446645 -1.96718765486549 -1.25510897589759
 6  11.46945982288229 -0.20545432623262  0.04961583018302
 6  12.81743665136514 -0.39389344044404 -0.69701972487249
 6  14.02500196859686 -0.01419262206221  0.07349441694169
 6  15.36525265016502 -0.16701043014301 -0.54918315811581
 6  15.78725039393939 -1.55164279807981 -0.90875049274927
 6  16.42403650955096  0.42003636363636  0.25366987418742
 6  17.86784137353735  0.58612001040104 -0.39346516111611
 6  18.81543191269127  1.17452566956696  0.73686411941194
 6  20.40976964616462  1.19328966246625  0.14512927612761
 6  20.44356571037104  2.22912120932093 -1.05272626532653
 6  21.36894782558256  1.57481041734173  1.24329969336934
 1 -4.30932241674168  3.63634915631563  1.50160474737474
 1 -10.21096148884888  3.82597343234323 -0.79715510701070
 1 -10.28415170457046 -2.51381072187219 -1.23000965316532
 1 -2.78934539143914 -1.19113742764276  2.10852154335433
 1 -2.23387699289929  1.77573115571557  1.20966161656166
 1 -2.24295875337534  0.73448390129013  3.71608532203220
 1 -3.27857291729173  2.21656571407141  3.48475064046405
 1 -3.82445588828883  0.66968165216522  3.58824123692369
 1 -1.82685517041704 -1.55465542594259 -0.45678958815882
 1 -2.08695036753675  0.02044929532953 -0.85901594119412
 1 -0.32289580698070  0.60673528742874  0.98673907300730
 1 -0.24936273827383 -1.02886740194019  1.48662261746175
 1 -5.87718649404940  6.78554719881988  0.63909961916192
 1 -5.61444843424342  5.81040440354035  2.42547884498450
 1 -4.56183013901390  5.68611977837784  1.05054823042304
 1 -9.43411546404641  5.89214536263626 -0.66249647784779
 1 -9.31437265316532  7.93813455235524  0.78855847764776
 1 -7.92411187698770  7.40507690719072  1.77127551305130
 1 -12.10899500460046  3.21295162116212 -2.49738274297430
 1 -13.29923959315932  2.15009890109011 -1.61554274577458
 1 -12.23372510361036  3.26362501720172 -0.66315755975598
 1 -12.69758453685369 -1.44771421652165 -1.01637659255926
 1 -13.29874859375938 -0.29198593539354 -1.73714924242424
 1 -13.17885423802380 -1.62557724392439 -3.59610949544955
 1 -12.33706727092709 -0.35547008460846 -4.00411390709071
 1 -11.58115439473947 -1.68582344944494 -3.49149776977698
 1 -9.14102370537054 -4.81361210411041 -1.93892715681568
 1 -7.98751811661166 -5.81752175637564 -0.85692530553055
 1 -9.39125901080108 -5.17764278557856 -0.20460228282828
 1 -3.48742943884388 -3.50727397809781 -0.08945421692169
 1 -1.55256342284228 -4.25841228092809  3.62730564586459
 1 -2.89011862046205 -5.27708932653265  4.04383722262226
 1 -1.79467757925793 -6.02126139933993  3.04943889678968
 1  2.67536684078408 -1.44092592849285 -1.79178314331433
 1  2.64968244584458 -0.03127884828483 -2.10597374957496
 1  4.19603050865086 -0.85526774197420  0.25574879087909
 1  4.08743770727073  1.68810752115212 -2.64885325502550
 1  5.53844925662566  2.20303056195620 -1.81631810001000
 1  5.60730803840384  0.82229333683368 -2.98893762476248
 1  6.60264232713271  1.41179517951795  0.37463010581058
 1  6.08088220762076 -0.44840287768777  0.87252696939694
 1  7.39490687538754 -1.19491872707271 -1.33267459105911
 1  7.77548998489849  0.35968917701770 -1.81247417101710
 1  9.08031008260826  0.99886777177718  0.26864449664966
 1  8.95327381608161 -0.77647315351535  0.76719458315832
 1  10.19654720612061  0.18843138083808 -1.83818870837084
 1  9.34561954745474 -2.06519449594960 -1.95940186498650
 1  11.02668522422242 -2.34057084098410 -1.70827507140714
 1  9.94426731273127 -2.77657959996000 -0.34241368106811
 1  11.21476915781578  0.80847307750775  0.49445093259326
 1  11.50844389778978 -0.84940090139014  0.88020864246425
 1  12.83600691959196 -1.49513767496750 -0.77184485208521
 1  12.80596434893489  0.44276496749675 -1.50487384868487
 1  13.86142757945795  1.01014357035704  0.50747809080908
 1  13.97459021212121 -0.64051365606561  0.88256477297730
 1  15.29058234673467  0.27342682768277 -1.45155951395140
 1  15.89296673957396 -2.10580087218722 -0.10598205210521
 1  14.86024907560756 -2.12902527812781 -1.42173958905891
 1  16.63773340274027 -1.76698222312231 -1.48757022652265
 1  16.05149034973497  1.46536437013701  0.66983352765277
 1  16.58214266146615 -0.15959513461346  1.14086684788479
 1  18.24102504120412 -0.21129767716772 -0.95121846224622
 1  17.82032909740974  1.19662698159816 -1.23096667246725
 1  18.74642543514351  2.28881303900390  0.77410541584158
 1  18.82859001930193  0.71979616061606  1.79635963626363
 1  20.72948786148615  0.21813796199620 -0.10648358435844
 1  20.21425553215321  3.31683524542454 -0.82873646704671
 1  21.35856010811081  2.22856950975097 -1.41738310161016
 1  20.07381128552856  1.91788359915992 -2.01087805680568
 1  21.09390536573657  0.92157026612661  2.21590120732073
 1  22.43017472377237  1.46874810451045  0.99258422472247
 1  21.13267299719972  2.46919700300030  1.55076551705170
=======
12 -7.24501507450745  0.57006575467547  0.10812850025003
 6 -4.86278089608961 -1.92684386278628  0.50899743244324
 6 -4.73707363626363  2.90582903020302  1.07491385628563
 6 -9.38074280978098  3.09957545304530 -0.44160702040204
 6 -9.52127244094410 -1.72788829982998 -0.75641207030703
 7 -5.07056048064806  0.51621143924392  0.69119953825383
 6 -4.33561326742674 -0.66956677867787  0.75791381458146
 6 -2.93029203460346 -0.40277970367037  1.15708606280628
 6 -3.00487392579258  1.17009967826783  1.63172390309031
 6 -4.33152014691469  1.50001074987499  1.07412444234423
 6 -2.95643072517252  1.26165845394539  3.11226263516352
 6 -1.91068452945295 -0.68701396279628  0.12722668096810
 6 -0.41324874747475 -0.47191153835384  0.60134426372637
 6  0.55536667386739 -0.67727124002400 -0.55911129162916
 8  0.11271251135114 -0.99371477907791 -1.75468179987999
 8  1.76651846234623 -0.46104350075008 -0.18510529942994
 7 -7.04267471537154  2.60535612541254  0.16739543504350
 6 -6.02495177417742  3.43103407920792  0.70197373097310
 6 -6.35710296339634  4.80815510491049  0.73879456665667
 6 -7.73911661866187  4.80306093759376  0.26649504080408
 6 -8.09702397399740  3.53543273857386 -0.04453190689069
 6 -5.52363031973197  5.89955242114211  1.13616837733773
 6 -8.61784958255826  5.94840587428743  0.20855784118412
 6 -8.62860675197520  7.14965108370837  0.75304155395540
 7 -9.14429670227023  0.59104196529653 -0.48725275897590
 6 -9.85741200090009  1.75058501160116 -0.62078840294029
 6 -11.24093318991899  1.45936427552755 -1.14799651915192
 6 -11.24883728762876  0.02194755885589 -1.17678639263926
 6 -9.91564724542454 -0.42575454975498 -0.76497151325133
 6 -12.32116093979398  2.38983955495550 -1.36528330313031
 6 -12.23998854515452 -0.76297370747075 -1.76331714021402
 6 -12.38249573797380 -0.91257366856686 -3.32139725832583
 7 -7.18733820212021 -1.37073668726873 -0.07776245324532
 6 -8.35608584838484 -2.27098227032703 -0.39629458465847
 6 -7.81779792539254 -3.59139740724072 -0.40810808810881
 6 -6.34604848894890 -3.56820115711571 -0.07263899579958
 6 -6.17142973937394 -2.23409169046905  0.09424222842284
 6 -8.47295476287629 -4.91557439983998 -0.76843532193219
 6 -5.29336380668067 -4.38918280178018  0.26559943254325
 8 -5.08066690459046 -5.54225870927093  0.13188021872187
 6 -4.14038761816182 -3.26285207500750  0.61023088838884
 6 -3.42043267416742 -3.65301052235224  1.84490486338634
 8 -3.66552815341534 -3.12035877207721  2.83783646474647
 8 -2.67486868056806 -4.66896161856186  1.73060164106411
 6 -1.99907049494949 -5.12482671177118  2.97647258275828
 6  2.83723623532353 -0.56033382798280 -1.18804000440044
 6  4.12140422942294 -0.33164134043404 -0.50114026302630
 6  5.14777826222622  0.43245951135113 -0.86814658735874
 6  5.11410983398340  1.38232088138814 -2.07616178147815
 6  6.42383671647165  0.38288013821382 -0.08230471567157
 6  7.57709524742474 -0.16473682058206 -0.91790874137414
 6  8.92741461406141 -0.12217734813481 -0.07780959375938
 6  10.14970559505950 -0.61953902560256 -0.91798276877688
 6  9.94368106830683 -2.12263319941994 -1.43105657065707
 6  11.39087196409641 -0.28152193299330 -0.13085221662166
 6  12.76503141084108 -0.52595664676468 -0.81147117001700
 6  13.84610407880788 -0.16443764656466  0.09631669916992
 6  15.35774189908991 -0.32773650275027 -0.45997423722372
 6  15.72058372727273 -1.75190282408241 -0.91820143784378
 6  16.29736384228423  0.35270963096310  0.44645915311531
 6  17.68626321572157  0.51907330573057 -0.13726954155416
 6  18.70000036953695  1.28380659765977  0.87552798579858
 6  20.22359102830283  1.34597493099310  0.31975673887389
 6  20.15181653545354  2.20617891509151 -1.06702769546955
 6  21.32975390619062  1.90934387068707  1.25955131853185
 1 -3.98387987248725  3.75140066146615  1.46757134403440
 1 -10.05696608930893  3.98274910991099 -0.53762915441544
 1 -10.23147643704371 -2.32222156295630 -1.19969662186219
 1 -2.71088754565457 -0.86618493239324  2.11813250445045
 1 -2.20257386258626  1.59808339093909  1.28797944834483
 1 -1.91698615611561  1.09400985388539  3.53648736223622
 1 -2.84491955195520  2.35243930143014  3.32905507090709
 1 -3.64511795449545  0.86492117611761  3.98816122892289
 1 -1.93200568546855 -1.72990295069507 -0.52696660586059
 1 -1.95840751325132  0.18609585998600 -0.59079911951195
 1 -0.31644516191619  0.44973958785879  1.14945534463446
 1 -0.26751455345535 -1.31423593879388  1.34957891309131
 1 -5.88524730013001  6.72770141424142  0.35223093229323
 1 -5.68916590599060  6.05467883098310  2.27247354445445
 1 -4.48638259425943  5.79702086848685  1.00420359595960
 1 -9.40751280378038  5.57304345244524 -0.46590681888189
 1 -9.47718893479348  7.82115285418542  0.62278189999000
 1 -7.84390385618562  7.28629502900290  1.59711809730973
 1 -12.01979608470847  2.91525185118512 -2.24841784648465
 1 -13.24684435363536  1.80946483768377 -1.60008119961996
 1 -12.67860959205921  2.96217487218722 -0.45346659065907
 1 -12.31621640004001 -1.86400584568457 -1.54919987488749
 1 -13.14753347224723 -0.21404814161416 -1.41783731123112
 1 -13.31548790139014 -1.52545723192319 -3.68212809730973
 1 -12.19164272847285  0.02013747614761 -3.95326882258226
 1 -11.50585686498650 -1.43756862396240 -3.61350997099710
 1 -8.66294589758976 -4.94752549544955 -1.88438170227023
 1 -7.87549691449145 -5.98327833203320 -0.44189380238024
 1 -9.39847973287329 -5.03346836813681 -0.20418224082408
 1 -3.59560025592559 -3.20146339703970 -0.31858713021302
 1 -1.65357352385238 -4.25618205790579  3.60812372767277
 1 -2.70495010361036 -5.84111572917292  3.57273011191119
 1 -1.20382849434943 -5.78261753495349  2.56143009590959
 1  3.06013531763176 -1.50134197009701 -1.56742070707071
 1  2.67261473907391  0.19890417001700 -2.06033918611861
 1  4.41353225882588 -0.89603181838184  0.30153336933693
 1  4.03069203270327  1.37037574797480 -2.35220359005901
 1  5.47156256795679  2.40203046194619 -1.83226969516952
 1  5.77259456705671  1.02321342884288 -2.94893362436244
 1  6.58275033793379  1.43654765476548  0.16644928772877
 1  6.23424754415442 -0.25461349874988  0.79711942864286
 1  7.37232461716172 -1.15622485768577 -1.15093641724172
 1  7.68879131503150  0.30870407850785 -1.85924884848485
 1  9.36763881548155  0.88261614661466  0.23580121232123
 1  8.78500698939894 -0.79919542574257  0.65020288398840
 1  10.04092164356436  0.00596313401340 -1.90716560606061
 1  8.90364535003500 -2.29144712121212 -2.15318124292429
 1  10.83124568026803 -2.54216100000000 -1.88727297119712
 1  9.67489037503750 -2.77333927592759 -0.62746218591859
 1  11.28704638553855  0.81786401660166  0.06328781628163
 1  11.29342239563957 -0.80780674197420  0.85725634723472
 1  12.69544286318632 -1.51586974817482 -1.24733240084008
 1  12.64627838033803 -0.19256856585659 -1.66511987328733
 1  13.65496693339334  0.79771232723272  0.29772711571157
 1  13.91327408050805 -0.81518112281228  1.14039055555556
 1  15.28064135263526  0.46707619261926 -1.47065142314231
 1  15.73944138703870 -2.53904419651965  0.06992553865387
 1  14.98011106180618 -2.07972034763476 -1.71809922502250
 1  16.63881351075108 -1.68324384928493 -1.29582105160516
 1  15.77567276797680  1.31480931463146  1.02944948924892
 1  16.46181062826282 -0.14998417351735  1.38009077027703
 1  18.06498743744374 -0.46459300670067 -0.48231157155716
 1  17.55365242974298  1.03564088298830 -1.04932850865087
 1  18.32288308090809  2.49040319801980  1.14523252855286
 1  18.86388354865487  0.50425460646065  1.91434143444344
 1  20.76378129082908  0.40513666186619  0.08784584858486
 1  19.85483959055905  3.20466402830283 -0.81763535693569
 1  21.23931818391839  2.31113776657666 -1.37940930423042
 1  19.63480738513852  1.71922373317332 -1.78091506050605
 1  21.20704667986799  1.31764987408741  2.22744236143614
 1  22.20024173047305  1.66448767846785  0.85026999329933
 1  21.01456118601860  2.87128721202120  1.45407584808481
>>>>>>> 8e03b5b5abfc0030b3aa597dc0de36371bfbd096

