%nproc=4
%Mem=3GB
# td=(NStates=1) iop(3/107=0140000000,3/108=0140000000) CAM-B3LYP/6-31G(d,p) 

TD

0 1
12 -7.07843253495350  0.65123350685069  0.19719608960896
 6 -4.81384020052005 -1.99589682028203  0.46071147354736
 6 -4.74212024262426  2.81731044894489  1.12938304350435
 6 -9.46638340284028  3.08664621762176 -0.25131760706071
 6 -9.56858295629563 -1.69814157985799 -0.71401820672067
 7 -5.07336436763676  0.40642673327333  0.62782060606061
 6 -4.32090433773377 -0.73568471167117  0.74141203590359
 6 -2.88604482508251 -0.38055645364536  1.14524019311931
 6 -3.00429365626563  1.10068877047705  1.70321660096010
 6 -4.30696093079308  1.46764141524152  1.13272766666667
 6 -2.97927410821082  1.16601942124212  3.26017133173317
 6 -1.99644537423742 -0.64155014421442 -0.04457064676468
 6 -0.45997170637064 -0.44881812981298  0.30945432773277
 6  0.48048997219722 -0.51910853275328 -0.74469425952595
 8  0.25000521732173 -0.94165794349435 -1.86394378747875
 8  1.86466506490649 -0.31272121052105 -0.29431481908191
 7 -7.17317496089609  2.61746495639564  0.41411233533353
 6 -6.02044218801880  3.38056182358236  0.81049692579258
 6 -6.36379128752875  4.81308817241724  0.73085134383438
 6 -7.67866265156516  4.81372317751775  0.34371049744975
 6 -8.19940946844685  3.50801774057406  0.03224122272227
 6 -5.52943497739774  6.00305977967797  1.06207636283628
 6 -8.54198420642064  5.94735500510051  0.08962957545755
 6 -8.38894730473047  7.21202035173517  0.58054211351135
 7 -9.21045008610861  0.71132812721272 -0.35336191009101
 6 -9.89993748004800  1.77177050135014 -0.64083689718972
 6 -11.26469042174218  1.45027447194719 -1.05904076377638
 6 -11.30689017621762  0.11229877567757 -1.18059808810881
 6 -9.95235283888389 -0.38336853025303 -0.72589479077908
 6 -12.32603354105411  2.38819406080608 -1.30347980068007
 6 -12.32942673557356 -0.80968709250925 -1.64728405900590
 6 -12.05380728962896 -1.24802499479948 -3.19662031323132
 7 -7.26235919831983 -1.37703253895390 -0.02680535563556
 6 -8.24826915321532 -2.25645419091909 -0.44803638353835
 6 -7.89882192199220 -3.64795534693469 -0.56372667246725
 6 -6.56545433593359 -3.53507648974898 -0.13082516421642
 6 -6.21660539223922 -2.22987094289429  0.11096293169317
 6 -8.70905324482448 -4.83009910831083 -0.75530891399140
 6 -5.36214167706771 -4.38262182558256  0.26092106620662
 8 -5.10022101440144 -5.53562041904190  0.21682763136314
 6 -4.17815231783178 -3.36484393179318  0.50365868746875
 6 -3.62104628142814 -3.72373031573157  1.87920388888889
 8 -3.74033681708171 -3.03341069896990  2.93303666186619
 8 -2.86515186798680 -4.83161177967797  1.81015005250525
 6 -2.33399235623562 -5.37897310321032  3.02775017541754
 6  2.78644496489649 -0.46379466836684 -1.34049756695670
 6  4.04720560576058 -0.30418568646865 -0.67506006880688
 6  5.12443793509351  0.48858538653865 -1.03241611861186
 6  5.19148287388739  1.25995367066707 -2.35237937293729
 6  6.40675695439544  0.37471808780878 -0.28635916031603
 6  7.63946539913991  0.03677512951295 -1.12630295899590
 6  8.91793950555055 -0.04121593769377 -0.28721482388239
 6  10.21218667926793 -0.44190585378538 -1.03618933893389
 6  10.10357363396340 -1.99584746464646 -1.48718568456846
 6  11.39003366716672 -0.19450434153415 -0.15982394489449
 6  12.81474921042104 -0.32466249974998 -0.86513401850185
 6  13.97852912471247 -0.11842755705571  0.25248165976598
 6  15.41829782078208 -0.22815189878988 -0.45680133263326
 6  15.67528379937994 -1.62372076037604 -0.94315614191419
 6  16.44814180688069  0.28185470277028  0.56465119981998
 6  17.89820740844084  0.41328505810581  0.07901137413741
 6  18.82261267986798  1.06535461396140  0.96215947264727
 6  20.30111291569157  1.16778621112111  0.47175388138814
 6  20.36622946874688  1.97361466656666 -0.95635033093309
 6  21.13568863586358  1.87817951785179  1.47438137813781
 1 -4.10837120062006  3.60660391179118  1.69228532433243
 1 -10.13774589788979  4.05386766126613 -0.52874740094009
 1 -10.24306873097310 -2.40370590569057 -1.33197101650165
 1 -2.52706999419942 -1.13833403610361  1.81801829252925
 1 -2.22815628192819  1.89455151625162  1.45050869986999
 1 -1.91849493589359  0.77771687808781  3.63293363076308
 1 -2.87548465756576  2.20633985678568  3.64675269746975
 1 -3.64854765526553  0.66167132143214  3.75714739993999
 1 -2.22056717571757 -1.54508517931793 -0.48959696679668
 1 -2.07062343134313  0.10775839563956 -0.95988272287229
 1 -0.35545097379738  0.46362594989499  0.82713657665767
 1 -0.17104552485248 -1.20795156175618  1.20590404870487
 1 -5.47806198389839  6.99600711271127  0.35372520382038
 1 -5.55900737203720  6.40112299369937  1.92902491499150
 1 -4.40917576217622  5.47896216421642  1.02115284788479
 1 -9.59338959875988  5.55165854785479 -0.50608196089609
 1 -9.13801286498650  8.08030775177518  0.63161293699370
 1 -7.47847577967797  7.28656549294930  1.12711167146715
 1 -12.05401587458746  3.07056620372037 -2.10407623912391
 1 -13.24698199589959  1.87334607700770 -1.42567829602960
 1 -12.41684271697170  2.93956129022902 -0.39663010251025
 1 -12.73273523842384 -1.61830275307531 -1.17043054395439
 1 -13.30688298739874 -0.18067077757776 -1.47818357275728
 1 -12.88368356755676 -1.91950561266127 -3.48838979707971
 1 -12.04231463716371 -0.38700717201720 -3.72570154855486
 1 -10.97200203960396 -1.69177020422042 -3.23124140234023
 1 -9.04676929552955 -4.89617611841184 -1.71700776377638
 1 -8.28780316551655 -5.89547550085009 -0.68589854495450
 1 -9.75848002700270 -5.01459990839084 -0.00004227292729
 1 -3.48482600110011 -3.35953255885589 -0.20707844594459
 1 -1.80612400000000 -4.62878509190919  3.61412312991299
 1 -3.21128756605661 -5.81516104100410  3.57869890759076
 1 -1.58401892239224 -6.17014779957996  2.63175653675368
 1  2.86308436323632 -1.46328295109511 -1.56086753545355
 1  2.52506894819482  0.25300338513851 -2.33934499199920
 1  4.00414090079008 -0.94569298309831  0.18225962616262
 1  4.30092540404040  1.54286982968297 -2.83505399109911
 1  5.67633456565657  2.32735315921592 -2.30589802820282
 1  5.72810237873787  0.73600479137914 -3.13952020892089
 1  6.82578076197620  1.34124410501050  0.34552416631663
 1  6.24776264836484 -0.27016435313531  0.56225242074207
 1  7.50062218501850 -0.93229390239024 -1.47904266146615
 1  7.47185974447445  0.68857796079608 -2.08248907180718
 1  9.16323236753675  0.99704920242024  0.16700912901290
 1  8.62652577337734 -0.64428278097810  0.61683780718072
 1  10.31140577237724 -0.05811966416642 -1.88099325732573
 1  9.30177978707871 -2.05504378787879 -2.12241062296230
 1  10.94976411701170 -2.43546694599460 -1.97326268436844
 1  9.98742093919392 -2.53651776647665 -0.54160155385539
 1  11.45232687428743  0.98104453785379 -0.01142337153715
 1  11.23610120562056 -0.76200749834984  0.83213953405341
 1  12.81976992949295 -1.42280970027003 -1.30073234473447
 1  12.95612144204420  0.36326126212621 -1.67485181888189
 1  13.99310073037304  0.90117548084809  0.69046387508751
 1  13.75162347294729 -0.87287366626663  1.22176455045505
 1  15.59688008940894  0.68785218221822 -1.31190245904590
 1  15.33647744454445 -2.27105644684468 -0.17116525202520
 1  15.08640028442844 -2.08147266726673 -1.78465983948395
 1  16.61100938053805 -1.82818371537154 -1.29658617191719
 1  16.10730400390039  1.27437577127713  0.82464838113811
 1  16.59717379517952 -0.42579886468647  1.42751124582458
 1  18.21548828652865 -0.48306482048205 -0.21335153075308
 1  17.85944325392539  0.96023491759176 -0.83045878947895
 1  18.47788684558456  1.99994126212621  1.34983693049305
 1  18.92389835233524  0.52458729822982  1.81637488298830
 1  20.59350918321832  0.22060305790579  0.28473436563656
 1  19.86145296379638  3.01774255075508 -0.96149833453345
 1  21.29035283608361  1.89338048014801 -1.52889087028703
 1  19.80962936053605  1.52593288348835 -1.73611199559956
 1  21.15883973747374  1.35062070297030  2.41048471727173
 1  22.08312620542054  2.07241771247125  1.12949960356036
 1  20.74936501500150  2.93979009620962  1.46381351805181

