%nproc=4
%Mem=2GB
# td=(NStates=1) CAM-B3LYP/6-31G(d,p) 

TD

0 1
<<<<<<< HEAD
12 -7.18422899589959  0.68388713681368 -0.04214652725273
 6 -4.87651226922692 -1.95605678407841  0.40529706240624
 6 -4.69896982588259  2.80344879217922  1.13731009590959
 6 -9.39590432593259  3.03894939043904 -0.36023888358836
 6 -9.57937825152515 -1.69438494949495 -0.78919534863486
 7 -5.12016544114412  0.40828064616462  0.71128154645465
 6 -4.35924563066307 -0.71704152615262  0.78660668386839
 6 -2.89240824622462 -0.40791021672167  1.24552490669067
 6 -3.07773121152115  1.08977164546455  1.73586431713171
 6 -4.34295129002900  1.46891764056406  1.13850087998800
 6 -2.98453353545355  1.06850913901390  3.31616302520252
 6 -1.87442090309031 -0.65044030543054  0.20082404070407
 6 -0.47610503310331 -0.50187453465347  0.61820594989499
 6  0.55250638783878 -0.70230374327433 -0.39878525902590
 8  0.20056129622962 -1.15513092069207 -1.59763609530953
 8  1.74069588008801 -0.36362375877588 -0.05676246514651
 7 -7.05064551245125  2.64547013681368  0.23390208570857
 6 -5.96477575657566  3.40740171597160  0.63805733933393
 6 -6.38278553165317  4.74886917631763  0.76210689788979
 6 -7.71513422042204  4.76863749524952  0.26092448374837
 6 -8.04464873647365  3.48108730403040 -0.01395884958496
 6 -5.44409236593659  5.86908937483748  0.94840960146015
 6 -8.52798059565957  5.98014904860486  0.03144012941294
 6 -8.47659155045505  7.19002512111211  0.65150139993999
 7 -9.11931420402040  0.73006586768677 -0.61302533623362
 6 -9.89000526022602  1.81772172527253 -0.57744406850685
 6 -11.17533663026303  1.48812715181518 -1.10553227272727
 6 -11.30366277017702  0.10467583168317 -1.19320803480348
 6 -9.95069074977498 -0.37565954025403 -0.93312832893289
 6 -12.41635045874587  2.38842941394139 -1.35817259205921
 6 -12.44212875917592 -0.80869827992799 -1.67613842234223
 6 -12.41850933933393 -1.26887929912991 -3.13102822142214
 7 -7.28180764906491 -1.37436705030503 -0.16383106010601
 6 -8.28774901470147 -2.23831900400040 -0.50280523572357
 6 -7.83493963956396 -3.63256152365237 -0.48728600590059
 6 -6.48518240234023 -3.52730706770677 -0.15749748164817
 6 -6.20662325872587 -2.16446472777278  0.06153895809581
 6 -8.56320378777878 -4.76345918831883 -0.87094557295730
 6 -5.35428989928993 -4.33606749024902  0.10306317891789
 8 -5.20614945284528 -5.53460794419442  0.05320235093509
 6 -4.18854243364336 -3.29984577437744  0.53160302560256
 6 -3.59424005490549 -3.64637985928593  1.85455582848285
 8 -3.77089869046905 -3.10334707090709  2.86994967606761
 8 -2.64000519421942 -4.70340506290629  1.78183676457646
 6 -2.22491307920792 -5.26305053415341  2.93613854935494
 6  2.82436494819482 -0.55251304590459 -1.16641784218422
 6  4.01578366736674 -0.37002517881788 -0.42747289628963
 6  5.16637012141214  0.33896016141614 -0.78544831753175
 6  5.19046746974697  1.34738738803880 -1.96984114941494
 6  6.45827015981598  0.40813266346635 -0.00815730093009
 6  7.62356989488949 -0.10447079397940 -0.76230318081808
 6  8.94741661426143 -0.04804993539354 -0.00015182798280
 6  10.06527715221522 -0.72854992669267 -0.84434540504050
 6  10.00502720292029 -2.11521245734573 -1.16583004800480
 6  11.46710958785879 -0.40142392319232 -0.00160929232923
 6  12.70694560226022 -0.43071712281228 -0.75073509640964
 6  13.94974444284428 -0.04781598439844  0.13546061356136
 6  15.31993811871187 -0.07161089018902 -0.57092533233323
 6  15.67188885778578 -1.45223285708571 -1.14840445814581
 6  16.41060516641664  0.42336669666967  0.34921942914291
 6  17.86063065246525  0.59229062746275 -0.32696851145115
 6  18.88200857035704  1.27229544654465  0.70514094709471
 6  20.35418408760876  1.24772510601060  0.14058882208221
 6  20.50279163296330  2.10691898909891 -1.13568456115612
 6  21.20405133593360  1.86294923122312  1.31423678707871
 1 -3.98014949944995  3.49179470087009  1.66043062996300
 1 -10.04895528822882  3.81914274927493 -0.47575296679668
 1 -10.57056034543454 -2.52440178097810 -0.96192284448445
 1 -2.65897235413541 -1.05289360326033  2.14339503070307
 1 -2.40193379857986  1.70438402100210  1.36078672907291
 1 -1.86444090159016  0.91314176707671  3.63628734223422
 1 -3.32009706970697  1.97397145464546  3.43622578797880
 1 -3.53620706340634  0.31946663066307  3.55290770357036
 1 -2.23500598549855 -1.61158111851185 -0.18068197739774
 1 -2.05909758225823  0.08611586198620 -0.59162920252025
 1 -0.26627014441444  0.62461707560756  0.95831623072307
 1 -0.18968677067707 -1.05322983818382  1.47027098229823
 1 -5.77802657805781  6.82443108720872  0.48817452665267
 1 -5.34683167256726  6.02165552865287  2.04460075717572
 1 -4.50943489948995  5.57035820222022  0.44453762936294
 1 -9.22751480398040  5.99776592469247 -0.61278150635064
 1 -8.86509772567257  8.11765250415042  0.37472709450945
 1 -7.51718118391839  7.13821022052205  1.42034041954195
 1 -12.22203630873087  3.16708703470347 -2.15074807950795
 1 -13.35957562676268  1.84098798999900 -1.40808199969997
 1 -12.64969670077008  3.09071772647265 -0.59933117711771
 1 -12.44371915031503 -1.85577502260226 -1.11250620552055
 1 -13.36315503440344 -0.49152588938894 -1.46360188768877
 1 -13.32158851145114 -1.88206289248925 -3.62639252375237
 1 -12.31388495269527 -0.44465900350035 -3.98670216591659
 1 -11.29948622792279 -1.62315718281828 -3.34663328332833
 1 -9.05932553555356 -4.50160090299030 -1.77329059315932
 1 -7.79516888168817 -5.58076808100810 -0.87404701770177
 1 -9.36334621952195 -4.92872789408941 -0.04069589218922
 1 -3.31833252915292 -3.23540679137914 -0.28328359985999
 1 -1.50442860936094 -4.55277171687169  3.48944185948595
 1 -3.20051966056606 -5.37688930653065  3.53443628252825
 1 -2.03600171167117 -6.44915418861886  2.47009096199620
 1  2.75478478257826 -1.50288212411241 -1.59471343634363
 1  2.63246072367237  0.17738201780178 -2.09347249944994
 1  4.27150805640564 -0.95105732093209  0.44966818281828
 1  4.03074203770377  1.65529423982398 -2.36482485218522
 1  5.77989340104010  2.23879413831383 -1.52741921012101
 1  5.72996030363036  0.90872197969797 -2.74579331033103
 1  6.58233029592959  1.45582958295830  0.35910855365537
 1  6.24802892229223 -0.09003704110411  0.93988370507051
 1  7.50360774547455 -0.99967920312031 -1.15801712531253
 1  7.54121655755576  0.51938514661466 -1.68143106670667
 1  8.96635868746875  0.91152903790379  0.32714034623462
 1  8.82713120182018 -0.77944345054505  0.97411527522752
 1  10.17430498189819 -0.17094455675568 -1.78208309780978
 1  9.11599658515852 -2.50356833333333 -1.76759268406841
 1  10.89007156285629 -2.31431821572157 -1.74208845274527
 1  10.01449433543354 -2.80654259625963 -0.31427086678668
 1  11.48024570547055  0.49439166936694  0.41817330483048
 1  11.35738879227923 -0.90559652095209  0.99212983458346
 1  13.04382770167017 -1.43000116131613 -1.17787545514551
 1  12.70762451495149  0.30276096709671 -1.67624098539854
 1  13.69975141184118  1.00464302030203  0.72372971597160
 1  13.97948070117012 -0.57362696739674  1.05729224572457
 1  15.15610889938994  0.69707919291929 -1.55332969096910
 1  15.70224766766677 -2.02767305940594 -0.31025247914791
 1  14.77165021572157 -1.76554893049305 -1.86089350445045
 1  16.63849347874788 -1.59772529742974 -1.54779624912491
 1  16.08696389708971  1.36807464116412  0.88109465376538
 1  16.41161560876088 -0.42639181428143  1.18910167136714
 1  18.21735267396740 -0.32284883228323 -0.41266460686069
 1  17.87582464696470  0.98680599949995 -1.25668924472447
 1  18.49408020062006  2.30422458015802  1.02843084838484
 1  18.79921708200820  0.63588776977698  1.62563256355636
 1  20.76614152685269  0.32783893209321 -0.15788872487249
 1  20.36426053265327  3.20392395429543 -1.23874746814682
 1  21.53429768186819  1.87641429422942 -1.56968833213321
 1  19.64324822922292  1.80121193199320 -1.91680864986499
 1  21.01426740194020  1.26447455655566  2.26402601980198
 1  22.32469417571757  1.86231746144614  1.05800076637664
 1  20.96258598849885  2.90722080538054  1.62665310581058
=======
12 -7.17269784278428  0.63682243034303  0.20206789418942
 6 -4.80995561356136 -1.91500267866787  0.47315384808481
 6 -4.78373830273027  2.86476492379238  1.04328069296930
 6 -9.43280801630163  3.12906840234023 -0.39457231693169
 6 -9.47947826152615 -1.85768127912791 -0.98278470757076
 7 -5.15356878147815  0.48854867296730  0.76960737903790
 6 -4.38176788288829 -0.64699452145215  0.92446046924692
 6 -2.91443044844484 -0.31309073477348  1.21354170837084
 6 -3.06499993839384  1.12769543784378  1.58195892659266
 6 -4.43688068296830  1.56868761756176  0.98838586848685
 6 -2.99619470157016  1.29845213331333  3.17069847874787
 6 -1.93525698669867 -0.63869913131313  0.10968492679268
 6 -0.43612103470347 -0.52133648084808  0.65481961126113
 6  0.45107624482448 -0.70273378627863 -0.62928830933093
 8  0.09928116821682 -1.02367777537754 -1.77216354805481
 8  1.79526133663366 -0.46947434383438 -0.22775956485649
 7 -7.13436388428843  2.65725131493149  0.30032872837284
 6 -6.05409468846885  3.41572254805481  0.72721625522552
 6 -6.48788604170417  4.85170946034603  0.84769545674567
 6 -7.76761946894689  4.87917854935494  0.36221461276128
 6 -8.21290556215622  3.52561175647565  0.00658320462046
 6 -5.57150510721072  5.84608707460746  1.26428118861886
 6 -8.54896269386939  6.07360839453945  0.10470745614561
 6 -8.45749964126413  7.16816293489349  0.90727697749775
 7 -9.08679095169517  0.69662252335234 -0.57861189488949
 6 -9.84947120682068  1.80821077417742 -0.61409773387339
 6 -11.25246434303430  1.44239257835784 -0.96928864836484
 6 -11.23622602650265  0.12029739383938 -1.24614332833283
 6 -9.93644932563256 -0.41850382468247 -0.96891190729073
 6 -12.31250007370737  2.48970954195420 -1.30483725852585
 6 -12.30894544084408 -0.78529593969397 -1.76799760826083
 6 -12.16939442784278 -1.20617302850285 -3.21502662126213
 7 -7.24043351165117 -1.34006361996200 -0.23847852485249
 6 -8.20358059785979 -2.17917308940894 -0.68080303550355
 6 -7.79132527812781 -3.55862412991299 -0.58840611791179
 6 -6.55242912701270 -3.58986332333233 -0.06709844174417
 6 -6.17213981038104 -2.12722100340034  0.14429723392339
 6 -8.66968443584358 -4.71403424582458 -0.83109158755876
 6 -5.35347981828183 -4.39618350185019  0.19983285588559
 8 -5.12936177407741 -5.60055453885388  0.22981001170117
 6 -4.15999957935794 -3.20242603240324  0.50396026132613
 6 -3.49320995189519 -3.67582280358036  1.80237060996100
 8 -3.82504410501050 -3.18355509170917  2.88218089918992
 8 -2.67131832553255 -4.75012973537354  1.80071865276528
 6 -2.11986257415742 -5.05459968906891  3.08151308680868
 6  2.82820533223322 -0.74873266786679 -1.25084628502850
 6  4.17861995099510 -0.47101527782778 -0.54653480248025
 6  5.11474495889589  0.22585885128513 -1.05553532623262
 6  5.22861128412841  0.99906255555556 -2.27593175847585
 6  6.50519485228523  0.27884973517352 -0.14581106630663
 6  7.67950548844884 -0.33001334823482 -0.88447539803980
 6  8.95297717031703 -0.22126725712571 -0.02752456525653
 6  10.19550017451745 -0.60324739643964 -0.82869383988399
 6  10.16028272847285 -2.10623155925593 -1.30111357635764
 6  11.40818369526953 -0.34926870767077  0.05851672027203
 6  12.75846075377538 -0.61991604270427 -0.66700672357236
 6  13.95354482288229 -0.19647084988499  0.23726079357936
 6  15.35303142804280 -0.16581031013101 -0.46538477827783
 6  15.63529519841984 -1.60519815361536 -0.87494711241124
 6  16.41614572047205  0.40933529352935  0.48916342354235
 6  17.76744133353335  0.59972137053705 -0.24441025562556
 6  18.79445981548155  1.34438265526553  0.64956538953895
 6  20.30365903510351  1.46752708620862  0.10851561476148
 6  20.29532088588859  2.32298059525953 -1.11285227792779
 6  21.09557048784879  2.03154609090909  1.32540790419042
 1 -4.05301678617862  3.69891541294129  1.27095168206821
 1 -10.24944533723372  3.83750458545855 -0.40708610011001
 1 -10.34933822322232 -2.56857619841984 -1.28832548474848
 1 -2.72666912381238 -1.04416273017302  2.04695538673867
 1 -2.21128473367337  1.64610819341934  1.12105275567557
 1 -2.18080253775378  0.87895834873487  3.45956967046705
 1 -3.04205926592659  2.24844890239024  3.22955512091209
 1 -3.81579502220222  0.69447413141314  3.64083649644964
 1 -1.90974345924592 -1.63251321172117 -0.48821273047305
 1 -1.82426409890989 -0.00725347494749 -0.73655369496950
 1 -0.37003052045205  0.55133974787479  1.07168756785679
 1 -0.26604440644064 -1.26287080228023  1.32137609280928
 1 -5.92256103150315  6.92929157325733  0.94921063026303
 1 -5.53358034743474  6.17691105420542  2.26414271137114
 1 -4.63265722172217  5.34310547694769  0.86341951755176
 1 -9.27985003750375  6.10610675877588 -0.80288051625162
 1 -8.77956917281728  7.98556929582958  0.60532015381538
 1 -7.78710817661766  7.01197759725973  1.77636602210221
 1 -12.26179028412841  3.18403872987299 -2.42970597529753
 1 -13.19944961416141  1.92836672787279 -1.38978016951695
 1 -12.29254098519852  3.29160781548155 -0.54802604660466
 1 -12.36586136453646 -1.70703014811481 -1.17312226712671
 1 -13.20847956685669 -0.28467520432043 -1.43394892239224
 1 -13.09179553215322 -1.90783546974698 -3.44791467596760
 1 -12.23543710791079 -0.50189472707271 -3.91667516321632
 1 -11.27013329262926 -1.65828069516952 -3.55338395839584
 1 -9.23446304930493 -4.85139588248825 -1.84851811591159
 1 -8.08891825662566 -5.66282628682868 -0.65829544254425
 1 -9.51121100600060 -4.79255427672767 -0.34281610421042
 1 -3.33704440034003 -3.40377362806281 -0.39243451495149
 1 -1.11392955945595 -4.35790222992299  3.17917083238324
 1 -2.71603121172117 -5.24039565716572  3.97786062496250
 1 -1.83485159665967 -6.11491076427643  2.76856080898090
 1  2.75648495259526 -1.80689252515251 -1.66596056105611
 1  2.72135961356136  0.02917719731973 -1.92675582778278
 1  4.42173307890789 -0.89591180638064  0.31275449144914
 1  4.34675363886389  0.86702541294129 -3.16394476417642
 1  5.49904531623162  2.09048930783078 -2.05304177237724
 1  6.06267357495750  0.73712481998200 -2.82902163316332
 1  6.65799786268627  1.37480148014801 -0.02422978017802
 1  6.40773489288929 -0.26411444884488  0.70007972467247
 1  7.45420280498050 -1.44896413161316 -1.00615193879388
 1  7.91672410831083  0.17613082118212 -1.77602052565257
 1  9.04774682628263  0.82374025902590  0.21553918611861
 1  8.83509199789979 -0.74165967216722  0.92183004670467
 1  10.31219877127713  0.09983252095210 -1.88900378987899
 1  9.41682666816682 -2.66014399089909 -2.07073299809981
 1  11.22839539523952 -2.50875765966597 -1.92274651855186
 1  10.14123700970097 -2.75610755275528 -0.31745118481848
 1  11.34791247214721  0.67276950715072  0.41197268476848
 1  11.26334938833883 -1.06260222152215  1.00164078567857
 1  12.96280959985999 -1.76791495269527 -0.77134480208021
 1  12.87469122162216 -0.30609991899190 -1.57008036933693
 1  13.69378081478148  0.88817137313731  0.47024436743674
 1  14.11164391749175 -0.71160076477648  1.14264078057806
 1  15.37870115861586  0.30329981498150 -1.33081743974397
 1  15.63521096399640 -2.24010430253025 -0.12265371927193
 1  14.97001005170517 -1.96261863746375 -1.60545796089609
 1  16.41223085248525 -1.54121964686469 -1.60991246074607
 1  16.18750395109511  1.48631646534653  1.17190373467347
 1  16.57768221542154 -0.27588676377638  1.39673243444344
 1  18.37843878257826 -0.18447499489949 -0.52204554495450
 1  17.45353241774178  1.22152947184718 -1.14753832963296
 1  18.18811960456046  2.29560371807181  0.74824282958296
 1  18.92022918321832  0.96584076507651  1.69184918521852
 1  20.73088800150015  0.45231137933793 -0.18243117911791
 1  20.06875098169817  3.28211177307731 -0.83064665806581
 1  21.40671492359236  2.24210086288629 -1.58516988028803
 1  19.66247015141514  2.06522833363336 -1.97580454945495
 1  21.24289026422642  1.33325143424342  2.17671728892889
 1  21.90251195749575  2.27790902060206  0.92480744704470
 1  20.59996972687269  2.86404648794880  1.75871631213121
>>>>>>> 8e03b5b5abfc0030b3aa597dc0de36371bfbd096

