%nproc=4
%Mem=3GB
# td=(NStates=1) iop(3/107=0140000000,3/108=0140000000) CAM-B3LYP/6-31G(d,p) 

TD

0 1
12 -7.19729442114211  0.66035441894189  0.10388675867587
 6 -4.83402221872187 -1.91409864046405  0.41535693809381
 6 -4.74372040264026  2.75922464036404  1.18289839503950
 6 -9.35910267476748  3.09478703170317 -0.25707818311831
 6 -9.61430752875288 -1.77283904960496 -0.79585639053905
 7 -5.15854288548855  0.44114020462046  0.68926675067507
 6 -4.39918216551655 -0.69374051725172  0.75160305500550
 6 -2.93923014361436 -0.41681007900790  1.25385105420542
 6 -3.06851007790779  1.07616631823182  1.73485976527653
 6 -4.40592082678268  1.54063871497150  1.11581597549755
 6 -2.92079826062606  1.19086190549055  3.30120543514351
 6 -1.97195292499250 -0.67882387158716  0.09756356665667
 6 -0.45799150835084 -0.53853710171017  0.51879526182618
 6  0.53336525972597 -0.59339596149615 -0.58982877297730
 8  0.23717393419342 -1.06762053975398 -1.73927132023202
 8  1.76396499489949 -0.34280421882188 -0.26492187978798
 7 -7.00256790019002  2.59456266616662  0.39273019711971
 6 -5.91443158695870  3.35177894529453  0.86373224932493
 6 -6.39541444984498  4.76568343194320  0.80257851655166
 6 -7.70036482178218  4.80826263146315  0.46542266866687
 6 -8.04547407490749  3.43955089388939  0.19712771137114
 6 -5.41178321222122  5.88476795049505  1.12019217441744
 6 -8.46415642364236  6.02058232783278  0.14631524402440
 6 -8.34788319831983  7.21419056875688  0.86798085738574
 7 -9.14206324742474  0.65257225162516 -0.42056863076308
 6 -9.88462594889489  1.77982130643064 -0.72102491599160
 6 -11.12378633133313  1.57322676717672 -1.14550941064106
 6 -11.20346983418342  0.26032357815782 -1.38049807810781
 6 -9.87993559715972 -0.38524871827183 -0.89574177547755
 6 -12.17951888958896  2.56931217261726 -1.56941639433943
 6 -12.27807160006001 -0.57455357915792 -1.95787511811181
 6 -12.19287119601960 -1.15839603190319 -3.35039569076908
 7 -7.27140010241024 -1.36169100480048 -0.23037571267127
 6 -8.28066239253925 -2.20114866036604 -0.58320990089009
 6 -7.87204924472447 -3.62169272067207 -0.55806610641064
 6 -6.56982477297730 -3.55320830293029 -0.16914899659966
 6 -6.26386011771177 -2.18147610341034  0.04688652405241
 6 -8.63867620712071 -4.85251134953495 -0.85287867096710
 6 -5.32308777167717 -4.42500606400640  0.16573154725473
 8 -5.26134712701270 -5.60402725972597  0.26909285788579
 6 -4.16980148274827 -3.34144159155916  0.56681500310031
 6 -3.59105328212821 -3.60386832953295  1.88900486898690
 8 -3.81377416081608 -3.03303066096610  2.93583694189419
 8 -2.85530088288829 -4.76027464596460  1.83689272677268
 6 -2.38869782678268 -5.30621582748275  3.04694209460946
 6  2.76911323172317 -0.75100338923892 -1.18423194039404
 6  4.12744362956296 -0.50330559845985 -0.56364892769277
 6  5.09653514481448  0.31976850485049 -0.99160203720372
 6  5.01897562316232  1.26495417071707 -2.15036917191719
 6  6.44409068776878  0.31289190519052 -0.23061358575858
 6  7.61921337393739 -0.21549009700970 -1.02356268496850
 6  8.93072078367837 -0.19746156225623 -0.08902500490049
 6  10.17019247984799 -0.66478814201420 -0.82203792379238
 6  10.18494177077708 -2.17562544244424 -1.17596456245625
 6  11.46203086688669 -0.29086397749775 -0.01974993749375
 6  12.83424115961596 -0.41465149864986 -0.75236274137414
 6  13.95267653945394 -0.18702441674167  0.27066347794779
 6  15.36167215821582 -0.15991507510751 -0.44190984348435
 6  15.68136440744074 -1.67480586888689 -0.82886471277128
 6  16.44957194989499  0.43709022632263  0.44373910861086
 6  17.85461304900490  0.66515024462446 -0.19059558655866
 6  18.82496291489149  1.28901698019802  0.78150140684068
 6  20.21132393679368  1.39254868736874  0.12982968896890
 6  20.22519536533654  2.30769807490749 -1.15159985588559
 6  21.24442950995099  2.00423212311231  1.04541848184818
 1 -3.93015337883788  3.57377062846285  1.46395249104911
 1 -10.10649277257726  3.92372464696470 -0.20336486268627
 1 -10.47677210131013 -2.32407794289429 -1.14966278567857
 1 -2.84455174237424 -1.08482868556856  2.10076656735674
 1 -2.28694216051605  1.71147320842084  1.50703435243524
 1 -1.86659974637464  1.16860596699670  3.47299763716372
 1 -2.95737284638464  2.15029425222522  3.70082810501050
 1 -3.57247004750475  0.57024217851785  3.76985867106711
 1 -1.97149226822682 -1.60077074787479 -0.38821682878288
 1 -2.19575594459446  0.18547616741674 -0.79436617121712
 1 -0.25085051375138  0.43700328762876  0.92586644964496
 1 -0.13940236053605 -1.29417018361836  1.35771923022302
 1 -5.63901807950795  6.91212872487249  0.63823365466547
 1 -5.36235770707071  5.94391727312731  2.18287029952995
 1 -4.42350719531953  5.47037130513051  0.64008474107411
 1 -9.24473473327333  5.88252163416342 -0.66121747444744
 1 -8.98204726842684  7.93582330333033  0.30421019671967
 1 -7.56891482358236  7.30642747914791  1.50223918421842
 1 -12.05704617761776  3.14953410051005 -2.34827065856586
 1 -13.07101439913991  1.85195393779378 -1.68224395259526
 1 -12.31850288298830  3.34826216031603 -0.79183962346235
 1 -12.63154511941194 -1.48147907070707 -1.27045054595459
 1 -13.24038633773377  0.18823611311131 -1.64398015241524
 1 -12.99529472867287 -2.05743940604060 -3.47830878897890
 1 -12.32175258095810 -0.49628810011001 -4.25204418281828
 1 -11.25220005940594 -1.77696872407241 -3.37407568576858
 1 -9.03649826842684 -4.91714821562156 -1.87004306730673
 1 -7.94179856505651 -5.79928588188819 -0.88809876497650
 1 -9.53547772677268 -5.04982343074307 -0.38934120282028
 1 -3.64182170067007 -3.70904751035103 -0.37008474657466
 1 -1.67102048964896 -4.58961117451745  3.70008172577258
 1 -3.21632807010701 -5.55373489838984  3.97429846754675
 1 -1.98310883138314 -6.10686147094709  2.79617297839784
 1  2.51903995879588 -1.75032165496550 -1.57157860656066
 1  2.61248769006901  0.05171325612561 -1.88436949444944
 1  4.02224271097110 -1.19822823662366  0.30629202940294
 1  3.83917922942294  1.67085262796280 -2.40332081778178
 1  5.64020095229523  2.30012043594359 -1.93691112951295
 1  5.70506007450745  0.73727491839184 -2.84665092199220
 1  6.46172435633563  1.23954393499350 -0.04023440954095
 1  6.19346721882188 -0.36121345804580  0.80699689518952
 1  7.55602772557256 -1.28133880688069 -1.41192594979498
 1  7.90291284978498  0.40331943494349 -1.88396921982198
 1  9.06377242154215  0.68143764126413  0.56399882798280
 1  8.65723884468447 -0.96454480718072  0.78783490689069
 1  10.32906753855386 -0.12168602080208 -1.74057921592159
 1  9.35389499859986 -2.59366765026503 -1.91220960286029
 1  11.16539568016802 -2.58804220352035 -1.71708706680668
 1  10.02419461656166 -2.78752286698670 -0.27252464616462
 1  11.27687932953295  0.71297773117312  0.44517228802880
 1  11.49539713521352 -1.05303660126013  0.81751807190719
 1  13.02233018551855 -1.47577499679968 -1.27211948344834
 1  12.68141397129713  0.33307824382438 -1.66404073777378
 1  13.75936735703570  0.75038040134013  1.01638646734673
 1  14.16437474807481 -1.04454083298330  1.06339871387139
 1  15.42816321772177  0.40245364236424 -1.42622389118912
 1  15.81908570537054 -2.33084242544254  0.10088195269527
 1  14.80359200360036 -2.06327084708471 -1.51667304080408
 1  16.60887916751675 -1.96864776177618 -1.43255976927693
 1  15.96964023752375  1.22714104780478  0.80425634193419
 1  16.79062314011401 -0.16510279507951  1.36435493019302
 1  18.34371110881088 -0.24597111111111 -0.59174937053705
 1  17.66572388198820  1.48473736783678 -1.05333107670767
 1  18.47013607050705  2.41518278627863  1.00163211001100
 1  18.95904186668667  0.76134097359736  1.79580282578258
 1  20.26757658995900  0.46346734433443 -0.09403351115111
 1  19.93418023652365  3.38499927642764 -0.84912709740974
 1  21.21004480528053  2.39042018411841 -1.78123610481048
 1  19.41566996459646  1.86631692189219 -1.90150853525353
 1  21.28507236073607  1.71628726962696  2.12995666446645
 1  22.20378827162716  1.83791426212621  0.63428008160816
 1  21.21817189568957  3.04921103830383  1.31874901160116

