%nproc=4
%Mem=2GB
# td=(NStates=1) CAM-B3LYP/6-31G(d,p) 

TD

0 1
12 -7.08267884088409  0.65492424052405  0.10380806820682
 6 -4.91154577257726 -1.93103428182818  0.43421995469547
 6 -4.97636756565657  2.73597204450445  1.24036040094009
 6 -9.36965170067007  3.11158665416542 -0.48710156985699
 6 -9.57959827352735 -1.72025753675368 -0.95691212031203
 7 -5.10916434103410  0.36988680678068  0.70646106440644
 6 -4.36203590969097 -0.74476429842984  0.80123814701470
 6 -2.91237024242424 -0.44880430613061  1.19630998519852
 6 -2.98033147154715  1.08478114641464  1.61750248094809
 6 -4.38208520342034  1.49093984278428  1.16137316721672
 6 -2.89296437853785  1.34099638773877  3.08596000490049
 6 -1.94554801580158 -0.64729999139914  0.00547450575058
 6 -0.48505592819282 -0.40761510871087  0.55826995629563
 6  0.58559969716972 -0.77597111001100 -0.48671405190519
 8  0.21071231133113 -1.12461786938694 -1.60630696239624
 8  1.76944875537554 -0.38314571097110 -0.11247803670367
 7 -7.05922637053705  2.60900649044904  0.37519621512151
 6 -6.07151643064307  3.28216919271927  0.82270580418042
 6 -6.35741299439944  4.82672696209621  0.75563625082508
 6 -7.67309001600160  4.84546517801780  0.24737312861286
 6 -8.08181245284529  3.44866406170617  0.01541408770877
 6 -5.44575253195319  5.94081654755476  1.12593735423542
 6 -8.47515531313131  6.04632566626663 -0.00282329692969
 6 -8.37851174247425  7.06534265286529  0.75361161096110
 7 -9.14316658925893  0.69457231833183 -0.44944897859786
 6 -9.88500476017602  1.91915186828683 -0.70318664276428
 6 -11.18724782138214  1.53288162726273 -1.08235995549555
 6 -11.30466287018702  0.13611897599760 -1.11986070007001
 6 -9.97249292999300 -0.30185215951595 -0.84542955905591
 6 -12.16088491219122  2.58683925492549 -1.51090786558656
 6 -12.33539808610861 -0.77448485858586 -1.64229503800380
 6 -12.36218370677068 -1.14630704190419 -3.15344046264626
 7 -7.24999446774677 -1.38529814341434 -0.19273395039504
 6 -8.29032927272727 -2.20249542164216 -0.57839279447945
 6 -7.84491063666367 -3.69424769226923 -0.47027430473047
 6 -6.52152603670367 -3.57789212621262 -0.11152288418842
 6 -6.20054265066507 -2.13913219451945  0.14032683688369
 6 -8.68880634803480 -4.88741158355836 -0.73432191059106
 6 -5.35913038333833 -4.43249713321332  0.20899377197720
 8 -5.22683152105211 -5.65980046344634  0.14935196589659
 6 -4.25950953035303 -3.38548433823382  0.55427529282928
 6 -3.51034166506651 -3.76551177247725  1.85631600450045
 8 -3.73846544714471 -3.20022675887589  2.89538221932193
 8 -2.73462465616562 -4.76442116451645  1.72721130203020
 6 -2.25630621852185 -5.25318954805480  2.91039597509751
 6  2.86014852655265 -0.73002079667967 -1.13248444884488
 6  4.17899998899890 -0.38551672797280 -0.45602575157516
 6  5.11664514891489  0.47341360676068 -0.95078485118512
 6  4.88999742274227  1.35603825312531 -2.35077924322432
 6  6.41110544334433  0.60466231643164 -0.31148763396340
 6  7.59883742164216 -0.08351869876988 -1.02508945944594
 6  8.97331920452045 -0.18745387578758 -0.22348416121612
 6  10.21126175067507 -0.59178625032503 -0.85820679117912
 6  10.11107780798080 -2.05347628372837 -1.32460592559256
 6  11.37007988488849 -0.35656943774377  0.11139200780078
 6  12.77979288698870 -0.65319937103710 -0.58296831973197
 6  13.94014348274827 -0.20336153895390  0.41418848634864
 6  15.30024614951495 -0.19865359445945 -0.37941618141814
 6  15.61471314021402 -1.74520215401540 -0.91569118681868
 6  16.43845795169517  0.31764612461246  0.48095260246025
 6  17.84854944434443  0.65476687508751 -0.18781459605961
 6  18.84230459995999  1.37265548254825  0.68307874087409
 6  20.24307297649765  1.47336767026703  0.20156491969197
 6  20.35738709250925  2.31021931913191 -1.10067105980598
 6  21.20197112791279  2.00028296459646  1.18978434183418
 1 -4.16013749824983  3.39135465686569  1.50877546444644
 1 -9.84435482818282  3.94514534953495 -0.31410680218022
 1 -10.27860114951495 -2.49518885968597 -1.26627327952795
 1 -2.60585704260426 -1.20193850775077  2.11924261546155
 1 -2.10241384658466  1.68219180178018  0.93564421482148
 1 -1.77498195569557  0.98942939583958  3.45714942844284
 1 -3.14670973097310  2.36500055755576  3.34206637203720
 1 -3.33034647734773  0.77961264526453  3.71683409620962
 1 -2.15770825572557 -1.61251121152115 -0.49755366456646
 1 -2.15010668316832  0.02461971237124 -0.84465450505050
 1 -0.22783630103010  0.57227184108411  0.80324072317232
 1 -0.52429023102310 -1.03992850805080  1.44249820502050
 1 -5.72967174257426  6.89511815591559  0.69795550475048
 1 -5.37298428782878  5.98771213431343  2.26167246434643
 1 -4.38616257225723  5.73290445684568  0.89059223482348
 1 -9.09651170367037  6.10252640074007 -0.90548077627763
 1 -8.92842405830583  8.02679341824182  0.69140876267627
 1 -8.12961242704271  7.21795819531953  1.88809719521952
 1 -11.89575368046805  3.19641996799680 -2.36935994069407
 1 -13.06560622982298  2.04396828802880 -1.76755794729473
 1 -12.40915264636464  3.40825948064807 -0.87409865386539
 1 -12.13023780218022 -1.67982742784278 -1.01056601150115
 1 -13.30901962086209 -0.29534627142714 -1.26504203170317
 1 -13.16769312191219 -1.73131781798180 -3.50711059555956
 1 -12.58034159835984 -0.46571110871087 -3.90317381308131
 1 -11.37352363166317 -1.48422328942894 -3.55469408940894
 1 -9.10395999899990 -4.85681642454245 -1.74211747584758
 1 -8.00285965076507 -5.63132313651365 -0.44256386938694
 1 -9.48635852075208 -4.97656267756776 -0.09444126672667
 1 -3.49187988388839 -3.62918616931693 -0.26954222572257
 1 -1.79767793429343 -4.45013145284528  3.61708462376238
 1 -3.02383199179918 -5.66912853045305  3.63774661356136
 1 -1.34052216371637 -5.93688296149615  2.60046399929993
 1  2.81167047114711 -1.76796863276328 -1.36710067506751
 1  2.76977445504550 -0.19972569296930 -2.06907005920592
 1  4.57565847144714 -0.87310952615261  0.39527274327433
 1  3.88837780128013  1.30793950435044 -2.85486385608561
 1  5.32562797449745  2.29149940884088 -2.03020948914892
 1  5.65905321292129  0.77341844934493 -3.16680541154115
 1  6.61684374727473  1.74219821982198 -0.13474083128313
 1  6.18289240864086  0.26458842144214  0.66613633033303
 1  7.32155954065407 -1.12928216341634 -1.27852917651765
 1  7.71852428832883  0.47750095819582 -1.93503642724272
 1  9.12955500710071  0.87891577657766  0.17789542174217
 1  8.73923241194120 -0.57705321152115  0.68408627232723
 1  10.64705225662566  0.21027356505651 -1.72157704720472
 1  9.27727271277128 -1.94883285978598 -2.11340726552655
 1  11.03166572227223 -2.37958474237424 -1.81400564446445
 1  9.98074096009601 -2.82362430443044 -0.53522296199620
 1  11.30599828072807  0.53223545374537  0.54520600810081
 1  11.31982503590359 -0.99005496679668  0.92447306890689
 1  12.86607992689269 -1.60940910211021 -0.89943761136114
 1  12.86739049154915  0.03979467046705 -1.51791515281528
 1  13.78807024372437  0.85779833583358  0.55250259325933
 1  13.97294004710471 -0.83219282398240  1.32978949544955
 1  15.49733302180218  0.21033051805180 -1.40744510251025
 1  15.66330377327733 -2.46074636673667 -0.00405185908591
 1  14.69325237593759 -1.93819619521952 -1.60763817891789
 1  16.57578720812081 -1.93786931183118 -1.48811028052805
 1  15.99539474017402  1.21650948464846  0.98571511581158
 1  16.34442889008901 -0.22292146724672  1.40603336453645
 1  18.45560649934993 -0.24883143054305 -0.86353969436944
 1  17.57065412991299  1.14608192709271 -1.31642521832183
 1  18.50674146674667  2.29138329602960  1.02675068036804
 1  18.90010717101710  0.82889707070707  1.64436443674367
 1  20.52431734443444  0.43260940914091 -0.22651558755876
 1  20.18213231983198  3.28115167706771 -0.87385097849785
 1  21.20845509760976  2.35307195999600 -1.51342270557056
 1  19.72452635703571  1.93103491429143 -1.80283725272527
 1  21.15618159335934  1.40080818991899  2.08329794699470
 1  22.23757546384638  1.89992122182218  0.95998096439644
 1  21.13360309020902  3.05479556285629  1.44540498099810

