%nproc=4
%Mem=2GB
# td=(NStates=1) CAM-B3LYP/6-31G(d,p) 

TD

0 1
12 -7.11271184418442  0.58690743884388  0.05409309670967
 6 -4.87649226722672 -2.00921209960996  0.51277781048105
 6 -4.83584351325133  2.77585603290329  1.00675704060406
 6 -9.44823955945595  3.13187868336834 -0.43986684638464
 6 -9.57355766946695 -1.69875538653865 -0.88140456955696
 7 -5.11852527712771  0.36199601770177  0.63551396969697
 6 -4.28886859295930 -0.75639546154615  0.74509253245325
 6 -2.88861786718672 -0.45670509620962  1.13228358255826
 6 -2.99357279567957  1.01357402570257  1.60515124582458
 6 -4.34902189708971  1.39568031683168  1.03140016991699
 6 -2.88038312041204  1.07819010711071  3.18017942684268
 6 -1.88386184718472 -0.62592785418542  0.02275623392339
 6 -0.45921334393439 -0.46087043424342  0.45306943624362
 6  0.58895003220322 -0.60325383828383 -0.69944532503250
 8  0.29638087818782 -0.80972638023802 -1.91041737343734
 8  1.78399020952095 -0.44434183058306 -0.23929071797180
 7 -7.18238868676868  2.58242383218322  0.24490318581858
 6 -6.02671195019502  3.28523949974997  0.78505203880388
 6 -6.40035728882888  4.74816910631063  0.87278796599660
 6 -7.71023373037304  4.82805343684368  0.42886127742774
 6 -8.13696796839684  3.47301649694970  0.11634418071807
 6 -5.43789174587459  5.83610607650765  1.22741750225023
 6 -8.55703350095009  5.93553458715872  0.09334632003200
 6 -8.48125201650165  7.04226034463446  0.75280152995300
 7 -9.08218049064907  0.77570043114311 -0.64739877357736
 6 -9.88289454915492  1.84932488558856 -0.63580990509051
 6 -11.23960305690569  1.50323866296630 -1.12248396789679
 6 -11.23730613451345  0.13671903600360 -1.27071578557856
 6 -9.89726540724072 -0.37739971427143 -0.91895691179118
 6 -12.37201602530253  2.50296086708671 -1.36322309710971
 6 -12.38090263656366 -0.81259866996700 -1.73233404190419
 6 -12.26352384078408 -1.04399681088109 -3.25062018061806
 7 -7.18594806310631 -1.40094970857086 -0.12224690169017
 6 -8.26507674747475 -2.19580475257526 -0.58974392959296
 6 -7.87584372997300 -3.65817408490849 -0.42762003930393
 6 -6.55038892299230 -3.59942427942794 -0.04013574547455
 6 -6.23844644104410 -2.21737001830183  0.17885068926893
 6 -8.63672113951395 -4.94980782318232 -0.61601007940794
 6 -5.44105857615762 -4.37698158165817  0.21853472607261
 8 -5.27979681758176 -5.57761224462446  0.38874590529053
 6 -4.25275885528553 -3.42804859465947  0.62984284958496
 6 -3.58573920482048 -3.65213043434343  1.95557593049305
 8 -3.86398799939994 -3.07014375057506  2.95742842394239
 8 -2.85064625832583 -4.76405112751275  1.93884246514652
 6 -2.20586117401740 -5.17071130023002  3.06970190569057
 6  2.81055356705671 -0.50552834743474 -1.21473267366737
 6  4.18998108710871 -0.41545972227223 -0.59101925092509
 6  5.09637312171217  0.48130439583958 -0.91722149484949
 6  4.98959738273827  1.34786743604360 -2.19024318961896
 6  6.44227856065607  0.64959680988099 -0.24019050425043
 6  7.59718725662566 -0.17455780268027 -1.07270422092209
 6  8.94599647224723  0.02078694829483 -0.26824863766377
 6  10.22309293379338 -0.42041911361136 -0.97033800430043
 6  10.10077677787779 -2.00225116121612 -1.40288375337534
 6  11.51640451735174 -0.20455423622362 -0.19755888728873
 6  12.84368927662766 -0.44739879097910 -0.77658768166817
 6  13.99342881128113 -0.10467166996700  0.19265633313331
 6  15.37064318921892 -0.22800652975298 -0.49606784658466
 6  15.68168983788379 -1.70265789958996 -0.81198081578158
 6  16.41875598149815  0.32851721172117  0.43707821502150
 6  17.88536312571257  0.54422582098210 -0.10268608320832
 6  18.70185055455546  1.32615083208321  0.77815824882488
 6  20.23029169836984  1.31283161666167  0.31774653785379
 6  20.45589694349435  1.95735403260326 -1.03490448314831
 6  21.20980191099110  1.85367830413041  1.43921928532853
 1 -3.94125561006101  3.39907542894289  1.32987757465747
 1 -10.07089748244824  3.90714154915492 -0.47231262276228
 1 -10.13404669406941 -2.58896823762376 -1.18667531973197
 1 -2.55031148804880 -1.04255256915691  1.85599629082908
 1 -2.03733733893389  1.60772435503550  1.39635028542854
 1 -2.01264572207221  0.76865731863186  3.44301801530153
 1 -2.65261032103210  2.14115817331733  3.48876104150415
 1 -3.67012045474547  0.62077676167617  3.82832524532453
 1 -2.03091557645765 -1.62182214261426 -0.49120302950295
 1 -2.15956762926293  0.15892314271427 -0.78359839943994
 1 -0.31089460686069  0.62804741864186  0.67936833593359
 1 -0.18911671367137 -1.00051456665667  1.39084303950395
 1 -5.59183795919592  6.90096874097410  0.96816252545255
 1 -5.59188617801780  5.87456081918192  2.33993029012901
 1 -4.41271522752275  5.53943510991099  1.03414659025903
 1 -9.11059311181118  5.79345549364936 -0.79743997219722
 1 -9.04848606450645  7.94157489638964  0.36985660746075
 1 -7.71861132693269  7.22355875537554  1.71767015251525
 1 -12.47223132823282  3.28423874987499 -2.13048605330533
 1 -13.30316998619862  2.17074096529653 -1.44492568406841
 1 -12.52372410351035  2.90700935563556 -0.27502874687469
 1 -12.41660643904391 -1.82205165026503 -1.21618657355736
 1 -13.32218093699370 -0.32882961976198 -1.65490101760176
 1 -13.06871322392239 -1.96280096629663 -3.48884876937694
 1 -12.63480704490449 -0.15499003660366 -4.12325582128213
 1 -11.12642892219222 -1.42812767986799 -3.49927854785478
 1 -9.02233183618362 -5.00234097699770 -1.52529579367937
 1 -7.81327069186919 -5.71122112631263 -0.39154876787679
 1 -9.34851473637364 -5.01022604390439  0.18281645904590
 1 -3.41708240414041 -3.79037228792879 -0.11856712821282
 1 -1.74786295279528 -4.36526296599660  3.67326024132413
 1 -2.79382899149915 -5.56875849344935  4.03852669156916
 1 -1.41200931243124 -5.78040731393139  3.00145409830983
 1  2.82583188728873 -1.66452828872887 -1.37953191819182
 1  2.50501797939794  0.01994627422742 -2.03613676587659
 1  4.45057596319632 -1.23340555575558  0.25122833883388
 1  4.12675163866387  1.36597530793079 -2.64823319301930
 1  5.52752816451645  2.38934919381938 -2.07794426262626
 1  5.64229153675367  0.83733484098410 -2.94117284828483
 1  6.88754081698170  1.71861586158616  0.10288293109311
 1  6.12413653305331  0.25782774537454  0.86144586128613
 1  7.31719910461046 -1.39904914011401 -1.31686300990099
 1  7.74037647354736  0.23568677677768 -2.10503342694269
 1  9.12535458705871  1.16494437943794 -0.07841020882088
 1  8.69309779847985 -0.48060356655666  0.72957082078208
 1  10.50116766816682  0.14137667536754 -1.92553744324432
 1  9.21582656815682 -2.31414939143914 -1.85253117791779
 1  10.92539509520952 -2.42348913281328 -1.98323256715672
 1  10.03719660566057 -2.60485242724272 -0.51242068176818
 1  11.52141982288229  0.82904513471347  0.15334682218222
 1  11.31668472187219 -0.50434639593959  0.68797941954195
 1  13.23904722362236 -1.53446160736074 -1.13196086368637
 1  12.78811256375637  0.45183587458746 -1.60445380668067
 1  13.81919335603560  0.80280283628363  0.64916225922592
 1  13.99513226632663 -0.67280688538854  1.21086760326033
 1  15.41365465396539  0.47814729972997 -1.26414077207721
 1  15.80034747764777 -2.26321661376138  0.01426997309731
 1  15.07424047474747 -1.92671504710471 -1.62632004710471
 1  16.67900753015302 -1.68335386028603 -1.27239870937094
 1  16.23909911061106  1.23754158785879  0.79376592089209
 1  16.44728917611761 -0.40003917901790  1.15149791099110
 1  18.36644758345835 -0.50500704810481 -0.33683702410241
 1  17.89735680018002  1.08578589748975 -1.14445802160216
 1  18.36065685828583  2.27880203790379  0.98009601490149
 1  18.66059321962196  0.89703388438844  1.92374237453745
 1  20.37957286998700  0.29037518571857  0.10142720672067
 1  20.18511261786178  3.05316887878788 -0.89414300770077
 1  21.47997224932493  1.83590024282428 -1.37248861216122
 1  19.64426833123312  1.64974678547855 -1.75539250825082
 1  21.26650262546255  1.34404251335133  2.24455407260726
 1  22.32489419571957  1.95257648734873  1.19139410571057
 1  21.06152588248825  2.80676075937594  1.96168660916092

