%nproc=4
%Mem=2GB
# td=(NStates=1) CAM-B3LYP/6-31G(d,p) 

TD

0 1
12 -7.07011758475848  0.63021176927693  0.02579026642664
 6 -4.77650226822682 -1.88232941134113  0.52167870057006
 6 -4.79985991489149  2.83252169946995  1.15907227212721
 6 -9.43951868736874  3.11229672517252 -0.31751461116112
 6 -9.53496381008101 -1.72262777377738 -0.80649707880788
 7 -5.11595502010201  0.40814063216322  0.74930534883488
 6 -4.26850655675568 -0.64150397239724  0.77478550175018
 6 -2.84629363476348 -0.44857428312831  1.21495184938494
 6 -3.08904234263426  1.07525019331933  1.62575330603060
 6 -4.37701469636964  1.46689743854385  1.09342637253725
 6 -2.95088017011701  1.29940222832283  3.14480588948895
 6 -1.86325978697870 -0.49292455385539 -0.00140618231823
 6 -0.41086850945095 -0.41409575677568  0.50741487078708
 6  0.52713385058506 -0.67076058895890 -0.63188856935694
 8  0.24648588868887 -1.14286969456946 -1.72258859055906
 8  1.78241005150515 -0.36999439583958 -0.23323011191119
 7 -7.17863831173117  2.63773936373637  0.35683437893789
 6 -6.05839511851185  3.36058703450345  0.72321585518552
 6 -6.40305755885589  4.74933922332233  0.69157984518452
 6 -7.77985069206921  4.82448307980798  0.31088948024802
 6 -8.08771304290429  3.52363155845585  0.09882242854285
 6 -5.52963091979198  5.90004247014701  1.10389515001500
 6 -8.48559635723572  6.00065109880988  0.20742772817282
 6 -8.51972586388639  7.20302642124212  0.88366461626163
 7 -9.13593586618662  0.69165202630263 -0.51483551725173
 6 -9.88127438713871  1.84842479557956 -0.65903222732273
 6 -11.20563966056605  1.46902524162416 -1.14678639813981
 6 -11.16674907880788  0.09904526862686 -1.18631734573457
 6 -9.85608128882888 -0.42192416671667 -0.72117713381338
 6 -12.26737556125613  2.44107467846785 -1.66911368616862
 6 -12.39557410371037 -0.79606701680168 -1.61330213871387
 6 -12.31643913231323 -1.29778218941894 -3.05990110871087
 7 -7.14504397269727 -1.39816943054305 -0.25021969896990
 6 -8.14334457425743 -2.21495666776678 -0.53524848004800
 6 -7.80299644524452 -3.55433370087009 -0.49998727602760
 6 -6.43562744684468 -3.52256659365937 -0.04387611951195
 6 -6.17230982738274 -2.18103638493849  0.08683148734873
 6 -8.62540000740074 -4.87636047844784 -0.84311278967897
 6 -5.32276674697470 -4.36160004350435  0.33167604020402
 8 -5.24192303020302 -5.57192167556756  0.22912994369437
 6 -4.14237781718172 -3.33069885968597  0.64152401770177
 6 -3.50384101500150 -3.68158337963796  1.89186955985599
 8 -3.68279988058806 -3.00045678187819  2.88793147424742
 8 -2.78736993069307 -4.75804052645265  1.85310389128913
 6 -2.29203979187919 -5.37986221532153  2.94828976447645
 6  2.83716622832283 -0.65893368796880 -1.19185038543854
 6  4.04200628962896 -0.51775995229523 -0.55452560156016
 6  5.13104658905891  0.33652991839184 -0.96469624232423
 6  4.97899632263226  1.12397504680468 -2.20807497279728
 6  6.40053438623862  0.52315416561656 -0.21342782798280
 6  7.62994053195320 -0.11939228612861 -1.01261821232123
 6  8.86555842844284 -0.16710184058406 -0.18180999379938
 6  10.16643726822682 -0.49309638133813 -0.96116708720872
 6  10.20055675587559 -1.86525746184618 -1.62609607460746
 6  11.37696057295730 -0.21848562936294 -0.09131826322632
 6  12.75280018771877 -0.48691274237424 -0.68847887078708
 6  13.93286275467547 -0.08341954475448  0.19445651315131
 6  15.40182630753075 -0.12452618171817 -0.51341958175818
 6  15.70383205210521 -1.53274090789079 -0.90791040874087
 6  16.38550265616562  0.47646200620062  0.45856036323632
 6  17.75805039443944  0.53247464586459 -0.10019583418342
 6  18.71358172767277  1.17960617761776  0.83631406440644
 6  20.17542621182118  1.26901723522352  0.31827659085909
 6  20.37925927972797  2.02075037223722 -0.99569056175618
 6  21.11788271907191  1.85778871517152  1.41902726612661
 1 -4.11102258675868  3.44628014941494  1.56065065196520
 1 -10.21557194989499  3.96103693869387 -0.41786717821782
 1 -10.41337462686269 -2.39710905170517 -1.26588324052405
 1 -2.63572002890289 -1.10497881178118  2.08118881008101
 1 -2.26050965616562  1.71600518311831  1.15598624902490
 1 -1.88220267776778  1.30582103500350  3.53367708120812
 1 -3.02910797079708  2.38809286678668  3.50095226062606
 1 -3.80242368506851  0.60276496049605  3.59168158095810
 1 -1.89056154105411 -1.49774973537354 -0.50727463666367
 1 -2.09773144564456  0.37977522792279 -0.59417945754575
 1 -0.19285280268027  0.60348496239624  0.82417281638164
 1 -0.27916571857186 -0.98799331453145  1.37306126132613
 1 -5.62652142754275  6.78475711981198  0.59542525172517
 1 -5.45144213361336  6.40873423652365  1.97671396849685
 1 -4.54383833983398  5.57964913131313  0.83756693229323
 1 -9.31643369586959  5.93469961806181 -0.42117234543454
 1 -9.00806202210221  8.01660239913991  0.38432805460546
 1 -7.91856132193219  7.23729012851285  1.76522490799080
 1 -12.00509461456146  3.11631195719572 -2.55436844154415
 1 -13.14564423362336  1.84812870407041 -2.03619481098110
 1 -12.43867559865987  2.99914856955696 -0.79034027802780
 1 -12.51986676507651 -1.73421286638664 -1.01801675657566
 1 -13.36959567846785 -0.21681841864186 -1.69217474497450
 1 -13.22441879447945 -1.86459114531453 -3.28969885438544
 1 -12.20070363456346 -0.48775331293129 -3.72776627232723
 1 -11.43940021932193 -1.99199406650665 -3.08527714771477
 1 -9.11560116311631 -4.73042378527853 -1.93449671377138
 1 -7.95943530833083 -5.76513651785179 -0.79050866386639
 1 -9.37531741664166 -5.05591061236124 -0.00788261086109
 1 -3.39070976687669 -3.44992824352435 -0.07831310281028
 1 -1.95272343884388 -4.68876531623162  3.61837475277528
 1 -3.13459306790679 -5.99025064266427  3.55715855475548
 1 -1.52253036453645 -6.19190846404640  2.57841179407941
 1  2.62563186728673 -1.66192802870287 -1.55570953595360
 1  2.53933141074107 -0.01628734913491 -1.92111526372637
 1  4.16418732433243 -0.85238745394539  0.39191240724072
 1  3.98200716421642  1.29400811121112 -2.54191256095610
 1  5.45944135583558  2.03944420332033 -1.99744621282128
 1  5.35308261586159  0.70206131363136 -3.20577930893089
 1  6.43463552645264  1.53499749974997 -0.03709106630663
 1  6.39859397879788  0.05951791439144  0.72267198389839
 1  7.31007839253925 -1.20214945014501 -1.24718604220422
 1  7.72312474837484  0.55523873197320 -2.03522644624462
 1  8.90551260286029  0.80295818081808  0.18498613081308
 1  8.83791227992799 -0.95187069326933  0.66693455715572
 1  10.26745429682968  0.18786132383238 -1.74072896239624
 1  9.19346433193319 -2.02993096959696 -2.18961488628863
 1  11.02496505220522 -2.09229601350135 -2.20031427532753
 1  10.12931581758176 -2.72863480548055 -0.92107154685469
 1  11.18971665256526  0.74411664186419  0.30679216671667
 1  11.28287134053405 -1.02580854215422  0.59485010661066
 1  12.92267558645865 -1.67599576077608 -0.76387405500550
 1  12.82769652215221 -0.07607691669167 -1.74774813611361
 1  13.76926836353635  0.81476403240324  0.56527387038704
 1  13.96971972507251 -0.70105971067107  0.80599711621162
 1  15.25351864036404  0.49885937093709 -1.34247860586059
 1  15.63574101700170 -2.08773906600660 -0.02112356625663
 1  15.10513356405641 -2.02872524812481 -1.70982839793979
 1  16.77681731113111 -1.56303182808281 -1.17772924242424
 1  16.22379758045804  1.39422725642564  0.71369791409141
 1  16.45197964516451 -0.25206438153815  1.42625538673867
 1  18.36163710241024 -0.49009555695570 -0.49031237163716
 1  17.92470953545355  1.12715003390339 -1.07038061386139
 1  18.29999079167917  2.25628978667867  1.17472547784779
 1  18.61947910821082  0.81254543554355  1.75175517581758
 1  20.58832374507451  0.22344849304931  0.24579164316432
 1  20.22879698629863  3.16582014391439 -1.02993658705871
 1  21.43388764086409  1.68661531433143 -1.66959832313231
 1  19.74661856625663  1.72180399119912 -1.69263623262326
 1  20.97498347354735  1.36456456555655  2.33433305050505
 1  22.14731643794379  1.82692392209221  1.04033900020002
 1  20.89686941684169  2.91968205150515  1.41841228172817

