%nproc=4
%Mem=3GB
# td=(NStates=1) iop(3/107=0140000000,3/108=0140000000) CAM-B3LYP/6-31G(d,p) 

TD

0 1
12 -7.14348904060406  0.52162054555456  0.11358772877288
 6 -4.85735455195520 -1.97070430103010  0.70221562396240
 6 -4.78028405900590  2.91547026492649  1.11821192639264
 6 -9.37791455595559  3.08952650565057 -0.40811328662866
 6 -9.57942404040404 -1.72993475917592 -0.90207701260126
 7 -5.14764179537954  0.43143923452345  0.91432925692569
 6 -4.38683093039304 -0.68141928512851  0.88888678337834
 6 -2.88476469706971 -0.35137353535354  1.20912658175818
 6 -2.97775100200020  1.06481518311831  1.79761604090409
 6 -4.40405063976398  1.50215486658666  1.13420781468147
 6 -3.01859804060406  1.08489130843084  3.47179249384939
 6 -1.92257798749875 -0.45675166436644  0.03425723602360
 6 -0.51862757195720 -0.36947019501950  0.44167755005501
 6  0.50375229842984 -0.50115673757376 -0.75204499459946
 8  0.23375359215922 -0.91357513521352 -1.83389078217822
 8  1.75528412681268 -0.32045198359836 -0.31390677827783
 7 -7.13297094049405  2.63751696159616  0.40380130423042
 6 -6.04359450325032  3.41887565496550  0.76361223732373
 6 -6.41860676907691  4.79716658025803  0.69026728542854
 6 -7.68755354065406  4.92528433363336  0.27872399879988
 6 -8.10656018351835  3.45677261606161  0.01034903350335
 6 -5.50322235613561  5.94033350705071  1.13663381858186
 6 -8.48943895189519  6.09499976957696  0.10218083058306
 6 -8.31978038803880  7.26540569026903  0.70315437473747
 7 -9.09409845094510  0.68244523892389 -0.66337291119112
 6 -9.87347483378338  1.73637696199620 -0.76422923642364
 6 -11.26659061176118  1.38274771927193 -1.21237609730973
 6 -11.23195268246825  0.09374692049205 -1.33027305560556
 6 -9.91001860546055 -0.39643983738374 -0.93124532583258
 6 -12.36255719341934  2.41778702010201 -1.44445389808981
 6 -12.38497229012901 -0.75514163796380 -1.59487881848185
 6 -12.38313022192219 -1.22150234253425 -3.15230588178818
 7 -7.31287424982498 -1.41655649134913 -0.03438611371137
 6 -8.30379470577058 -2.28964751025103 -0.56039761966197
 6 -7.96524856465647 -3.66358691009101 -0.44597489728973
 6 -6.57467525802580 -3.55571855395540 -0.03259534123412
 6 -6.28461219291929 -2.23258121392139  0.22269410481048
 6 -8.77377971747175 -4.72087818621862 -0.86481986508651
 6 -5.36862232513251 -4.36839040244024  0.25837081118112
 8 -5.18464945724572 -5.59055591259126  0.19270521912191
 6 -4.15502000460046 -3.32878032543254  0.63334165576558
 6 -3.43411758855886 -3.71968991169117  1.86570253875388
 8 -3.56593937733773 -3.28974633253325  2.99756311451145
 8 -2.61719707250725 -4.66566518501850  1.69070810831083
 6 -1.91916087308731 -5.16283148904891  2.77203460386039
 6  2.81435775617562 -0.53468175707571 -1.35293881108111
 6  4.16098698389839 -0.31661692959296 -0.62192475527553
 6  5.20450594189419  0.47565409340934 -1.01064394139414
 6  5.29726345194519  1.33852152745275 -2.24903903890389
 6  6.48361464016402  0.41942255825583 -0.21569209360936
 6  7.61338279087909 -0.22484103210321 -0.90658098679868
 6  8.88033574517452 -0.33601541764176 -0.09944604700470
 6  10.23105856645665 -0.67138880208021 -0.90379609960996
 6  10.10857413401340 -2.11175905580558 -1.35933289928993
 6  11.36702136593659 -0.36234112521252 -0.00693865636564
 6  12.74148188368837 -0.49895992949295 -0.71863936903690
 6  13.88729000080008 -0.04218993329333  0.20832724432443
 6  15.35403139413941 -0.21649073267327 -0.55314096659666
 6  15.67615388638864 -1.63189157745775 -0.84918674497450
 6  16.32842983568357  0.25030154745475  0.41565630033003
 6  17.75921350905091  0.67672140174017 -0.15065159215922
 6  18.91435185378538  1.18665674417442  0.79880313701370
 6  20.18117092149215  1.24866429892989  0.26634334033403
 6  20.33637648344834  2.16197350245025 -0.99633432933293
 6  21.12872793979398  1.79935163506351  1.40015395539554
 1 -3.96834719821982  3.54068732013201  1.45243133893389
 1 -10.16900902420242  3.83813608810881 -0.27835236143614
 1 -10.27110153425343 -2.44991052615261 -1.17281510091009
 1 -2.51038832603260 -1.22911311401140  1.89355584628463
 1 -2.35911937823782  1.83617567866787  1.44528817781778
 1 -2.23103619001900  0.32943204960496  3.85157549494949
 1 -2.81345845494549  2.15993521632163  3.84088211041104
 1 -4.06399920042004  0.72811796609661  3.85091677687769
 1 -2.05688080708071 -1.43525419621962 -0.38131613871387
 1 -2.22376874587459  0.42970058985899 -0.65393212781278
 1 -0.04540996969697  0.61799138643864  1.05629949294929
 1 -0.16414483478348 -0.86058682528253  1.38999245754575
 1 -5.54957913561356  6.77414492649265  0.41138096939694
 1 -5.97665913721372  6.50647352875287  2.08954096659666
 1 -4.57762260686069  5.61888615661566  1.52609334193419
 1 -9.20988124792479  5.98148153015301 -0.62298365106511
 1 -9.06188525222522  8.01995171617162  0.61364113981398
 1 -7.52638057015702  7.36652348874888  1.52333129342934
 1 -12.04776524952495  3.27308645574557 -2.09580541204120
 1 -13.43322061976198  1.88961770417042 -1.47424315251525
 1 -12.64799583228323  3.19215654975498 -0.51193163266327
 1 -12.52032399729973 -1.58739966276628 -1.15623912481248
 1 -13.32011431053105 -0.13161587208721 -1.54666042044204
 1 -13.17452265146515 -2.05234889698970 -3.16464742284228
 1 -12.62337274297430 -0.22810128142814 -3.77895687408741
 1 -11.52466730613061 -1.69222024922492 -3.16433471167117
 1 -9.43780839943994 -4.43683018381838 -1.58655471847185
 1 -8.14282866806681 -5.61816777007701 -1.25789574467447
 1 -9.41103528252825 -5.41672012041204  0.07309504080408
 1 -3.49276679517952 -3.47674428002800 -0.14296203430343
 1 -1.33444683228323 -4.41290350375038  3.22092380998100
 1 -2.66272270957096 -5.58638816371637  3.54395543324332
 1 -1.41004152465247 -6.22239302410241  2.42382574367437
 1  2.69664771957196 -1.46892351515152 -1.63311476017602
 1  2.76751319261926 -0.05506742194219 -2.29763082058206
 1  4.19876036273627 -0.78650706450645  0.26581798199820
 1  4.28199351085108  1.52473801650165 -2.74603508920892
 1  5.67660459265927  2.22464288818882 -1.99480691909191
 1  5.84214378287829  0.80978216911691 -2.86059231613161
 1  6.70996918081808  1.40618059865987 -0.02356274237424
 1  6.30287815991599  0.05993865716572  0.73696989248925
 1  7.20602272507251 -1.18076874987499 -1.46839159635964
 1  7.88666122462246  0.57429653265327 -1.57623844674467
 1  9.13652969726973  0.50033953145315  0.32486491459146
 1  8.78387150795080 -1.18530688338834  0.59806592999300
 1  10.19442407420742  0.09027517531753 -1.93017817581758
 1  9.30036964606461 -2.10959924342434 -2.32162054395440
 1  10.90260940154015 -2.43223662296230 -1.93476883498350
 1  10.05853805090509 -2.85780989568957 -0.55555294899490
 1  11.21109275087509  0.72875930933093  0.35264303510351
 1  11.48586618211821 -1.09474077167717  0.81709802990299
 1  12.79269722222222 -1.60102752205221 -1.00046231773177
 1  12.74274010391039  0.11662659865987 -1.74408874257426
 1  13.76232765306531  1.01350671397140  0.49861469016902
 1  13.93052136273627 -0.58007438633863  1.07242961696170
 1  15.20340074147415  0.32862625962596 -1.53354462326233
 1  15.70771456825683 -2.33518285948595  0.14108597309731
 1  14.98072971737174 -1.93981850185019 -1.77877925142514
 1  16.72913119271927 -1.71036193319332 -1.29824633793379
 1  15.92072534603460  1.27989632333233  1.13102901920192
 1  16.60574465226523 -0.29679596439644  1.41741023572357
 1  18.09854659235923 -0.30555706970697 -0.71035123072307
 1  17.62397970757076  1.29646854095410 -0.92839858345835
 1  18.30856991389139  2.08485975397540  1.28704065086509
 1  18.83807977047705  0.56045088458846  1.69776302180218
 1  20.57421725402540  0.09922091969197  0.18072396459646
 1  19.69032585108511  2.98404918141814 -0.87454963966397
 1  21.42035583638364  2.35674681678168 -1.08077605880588
 1  20.01287968556856  1.65396568676868 -2.02390077447745
 1  21.17301115461546  0.98123376427643  2.10777444624462
 1  22.18179607240724  2.00929139983998  1.10122677627763
 1  20.66819689818982  2.81353747094709  1.77904504120412

