%nproc=4
%Mem=3GB
# td=(NStates=1) iop(3/107=0140000000,3/108=0140000000) CAM-B3LYP/6-31G(d,p) 

TD

0 1
12 -7.15301999369937  0.67207559105911  0.16046241624162
 6 -4.73821263776378 -1.93432066266627  0.39689509190919
 6 -4.82103813441344  2.77573629152915  1.14702480768077
 6 -9.41016778127813  3.13851140414041 -0.37331980728073
 6 -9.57085318331833 -1.73980574627463 -0.80722752765277
 7 -5.17073410461046  0.48652474307431  0.73230105410541
 6 -4.41936418371837 -0.70622176537654  0.68062595729573
 6 -2.96823304390439 -0.43927232523252  1.20981665076508
 6 -3.06765999289929  1.08033673527353  1.59368564786479
 6 -4.37420765546555  1.48988363946395  1.09712410631063
 6 -2.96044222502250  1.31635445474547  3.17603291789179
 6 -1.90128585828583 -0.66005199439944 -0.01390758045805
 6 -0.48069377857786 -0.51697494549455  0.49694307660766
 6  0.50088201140114 -0.77352397429743 -0.60532032213221
 8  0.19820003680368 -1.06661043874387 -1.73546093919392
 8  1.67574617301730 -0.46288622702270 -0.13570895849585
 7 -7.14764240764076  2.65432864276428  0.34354527862786
 6 -6.09343948774878  3.36009977737774  0.77799367546755
 6 -6.40502541094109  4.80630749434944  0.79008726742674
 6 -7.71953673897390  4.97489929512951  0.27392351875188
 6 -8.17481700920092  3.53823076187619  0.03846184478448
 6 -5.45455748964897  5.86328580228023  1.18696885208521
 6 -8.46237624562456  6.12686295589559  0.09657026952695
 6 -8.38899730973097  7.34345349504950  0.52533659295930
 7 -9.13844288538854  0.70075707010701 -0.53586015991599
 6 -9.96289377567757  1.78252157645765 -0.56978979247925
 6 -11.31306525922592  1.48147759225923 -1.01383624332433
 6 -11.28917840504050  0.06059360516052 -1.15254528282828
 6 -9.95687329092909 -0.36568676207621 -0.82648484978498
 6 -12.28134907260726  2.44626986838684 -1.32499195189519
 6 -12.47638143104311 -0.76627275107511 -1.61463079367937
 6 -12.37604951385139 -1.15065525782578 -3.13410406160616
 7 -7.24631759415942 -1.32457729342934 -0.07108978407841
 6 -8.30935526182618 -2.21035958145815 -0.46616819671967
 6 -7.81524356415642 -3.57916846824682 -0.46747704750475
 6 -6.50778856935694 -3.53649663176318 -0.17173925562556
 6 -6.18426215791579 -2.22187014281428  0.09980181558156
 6 -8.66911925142514 -4.79140523892389 -0.85862924602460
 6 -5.32095755865587 -4.39243280668067  0.07804277837784
 8 -5.23244423672367 -5.58570542754275  0.23973992259226
 6 -4.13616811941194 -3.33777122452245  0.40472879447945
 6 -3.48194237103710 -3.63727166986699  1.72407837633763
 8 -3.67013979737974 -3.03121047894789  2.77800115831583
 8 -2.80451580438044 -4.77795641414141  1.54419345684568
 6 -2.14029298629863 -5.29931513741374  2.78498589898990
 6  2.84894121452145 -0.63106139503950 -1.13548706590659
 6  4.14056494169417 -0.49059432733273 -0.44663722652265
 6  5.14531002230223  0.24867139513951 -0.81084396139614
 6  5.14733845944594  1.22107978327833 -1.94952908790879
 6  6.54876115481548  0.15912652865287  0.00629010461046
 6  7.68955040764076 -0.35558410641064 -0.87217754645465
 6  8.96823453505351 -0.15139695579558 -0.15906200860086
 6  10.20595605620562 -0.60151181438144 -0.87798351835184
 6  10.15292856945695 -2.09553743364336 -1.41712867886789
 6  11.47818248204820 -0.23116800790079 -0.03086104860486
 6  12.83370110561056 -0.44451448494849 -0.71294879998000
 6  13.95733700550055  0.03926821252125  0.23855026662666
 6  15.39759575057506 -0.17911699529953 -0.47821347384738
 6  15.68985525652565 -1.67236562486249 -0.75575740204020
 6  16.35223221592159  0.51582810011001  0.40986572127213
 6  17.82384997269727  0.46085981558156 -0.16520304730473
 6  18.82412283088309  1.35145322382238  0.73972722942294
 6  20.28384118851885  1.38885831833183  0.18594530053005
 6  20.31964481028103  2.14362166726673 -1.09806450235023
 6  21.32197726472647  1.88526022592259  1.25426936693669
 1 -4.02717308080808  3.48224147554756  1.53026912271227
 1 -10.05497762106211  4.09117139163916 -0.55386991319132
 1 -10.14877930203020 -2.54134967006701 -1.06320413981398
 1 -2.75290257745775 -0.89386958965897  2.03158964966497
 1 -2.26703016931693  1.58820088118812  1.04172782178218
 1 -2.18193127952795  0.86689579597960  3.69595993339334
 1 -3.21252836193619  2.35411463426343  3.16655467766777
 1 -3.82030483098310  0.82369752405241  3.47520920612061
 1 -2.25277039603960 -1.69700037083708 -0.17958596569657
 1 -2.06278264726473 -0.03744612481248 -0.90946768136814
 1 -0.48352378107811  0.65478506580658  0.87973183618362
 1 -0.03908232853285 -0.97859862646265  1.46730018831883
 1 -5.44166834453445  6.80461797379738  0.53811364266427
 1 -5.68766023732373  6.25512839423942  2.19513152565256
 1 -4.32041688628863  5.60409467746775  1.27265799839984
 1 -9.27082734253425  5.77125050705070 -0.53488484118412
 1 -9.19956902060206  8.07174689568957  0.36931670737074
 1 -7.72068000010001  7.50601743814382  1.24167312761276
 1 -12.08420889388939  2.83782292939294 -2.51374720622062
 1 -13.26808410611061  1.96210495289529 -1.48742447064706
 1 -12.40180121282128  3.38593592769277 -0.57912835233523
 1 -12.58822078697870 -1.68460938373837 -0.79310281118112
 1 -13.31224352345235 -0.30490320082008 -1.28147390179018
 1 -13.08111331053105 -1.95543920602060 -3.16226718481848
 1 -12.49067947364736 -0.35438390969097 -3.79752873127313
 1 -11.48180301970197 -1.55448647584758 -3.35774405260526
 1 -8.85823044164416 -4.97371387218722 -2.05145120812081
 1 -8.02919730493049 -5.92033798709871 -0.46772672777278
 1 -9.52775695469547 -4.92539098749875 -0.38685095379538
 1 -3.47511503000300 -3.50558716431643 -0.40720845894589
 1 -1.62390577817782 -4.33274548794880  3.13190490809081
 1 -3.01814825212521 -5.54032355725573  3.26127716541654
 1 -1.49909042954295 -6.26546733153315  2.32148550965096
 1  2.67990604540454 -1.67876449924992 -1.81561301000100
 1  2.86490293159316 -0.16404832003200 -1.94944600210021
 1  4.26205669236924 -1.28784719851985  0.47076847704770
 1  4.11528684018402  1.65200074277428 -2.27645813151315
 1  5.58423535573557  2.21871229512951 -1.65977341574157
 1  5.82137170567057  1.08258944984498 -2.82580883778378
 1  6.98175635953595  1.17002698329833  0.58456807070707
 1  6.46754462656266 -0.45701303800380  0.86021221672167
 1  7.60355247804781 -1.48685935893589 -1.11092584978498
 1  7.56016857535754  0.12282138513851 -1.77158798169817
 1  9.13906995129513  0.92395189268927  0.12094452255225
 1  8.85820894169417 -0.86817517021702  0.82806893029303
 1  10.50513514531453  0.11212736053605 -1.61852701070107
 1  9.09666927602760 -2.27774605810581 -2.00274865676568
 1  11.05344448504851 -2.15529892919292 -2.18046340444044
 1  10.13119531663166 -2.73720783548355 -0.60941833553355
 1  11.22372401400140  0.73725015841584  0.16752452325233
 1  11.55567316281628 -0.67165846344634  1.07494381448145
 1  13.09929788228823 -1.56211363066307 -1.15110738223822
 1  12.72833866376638  0.42182711871187 -1.32111644534453
 1  13.72324374467447  1.12857822112211  0.67639246794679
 1  13.99956826742674 -0.72000837973797  1.00677305130513
 1  15.26763716511651  0.25684908190819 -1.48009927872787
 1  15.81943574037404 -2.14948428962896  0.10468233273327
 1  14.76526817121712 -2.01690621062106 -1.34141551505151
 1  16.80989926952695 -1.79152004900490 -1.20078659195920
 1  15.86831010451045  1.45208354205421  0.49808572487249
 1  16.52593667146715  0.12843655885589  1.47735623032303
 1  18.17525426312631 -0.47968448244824 -0.52021221682168
 1  17.96877418701870  0.95841473557356 -1.28015375897590
 1  18.31804086098610  2.28342961096110  0.66363831063106
 1  18.77199316181618  0.76311115061506  1.78049129462946
 1  20.68620845314532  0.14838583618362  0.05121101330133
 1  19.93315013351335  3.19495027152715 -0.84383656835684
 1  21.38617241804181  2.06461760386039 -1.48178615981598
 1  19.56109450705070  1.70345063526353 -1.98315670007001
 1  21.11884573807381  1.28235387628763  2.21137480628063
 1  22.36830472327233  1.76281675237524  0.71642829642964
 1  21.18584866336634  2.96116223342334  1.44947208390839

