%nproc=4
%Mem=2GB
# td=(NStates=1) CAM-B3LYP/6-31G(d,p) 

TD

0 1
12 -7.11468204120412  0.64626337443744  0.00086777417742
 6 -4.84476909490949 -1.94275545394539  0.47934446714671
 6 -4.80716064496450  2.82165061236124  1.17339370427043
 6 -9.44736947244724  3.03039853535354 -0.29258211791179
 6 -9.49952026572657 -1.70364587558756 -0.91669809890989
 7 -5.11869529412941  0.46057587568757  0.72599301760176
 6 -4.32430213631363 -0.76426624862486  0.81058908210821
 6 -2.93521252665267 -0.35365479117912  1.22687304150415
 6 -3.12479591799180  1.13380604890489  1.62109283998400
 6 -4.45549254415442  1.51572232103210  1.16864389428943
 6 -2.95591067316732  1.41984427252725  3.18403981288129
 6 -1.93783724472447 -0.73362862426243  0.06224018231823
 6 -0.47341476407641 -0.50243459065907  0.41849597889789
 6  0.55752688988899 -0.68574208710871 -0.59900528102810
 8  0.29713095319532 -0.94680008760876 -1.72509884158416
 8  1.74922673317332 -0.24449184558456 -0.26986377527753
 7 -7.14845529342934  2.58647423722372  0.38351704720472
 6 -6.10662994199420  3.34469544534453  0.84025755935594
 6 -6.37207446054605  4.81189547894789  0.66111679887989
 6 -7.72723543054305  4.80751138263826  0.29930832213221
 6 -8.25808007960796  3.42051124642464  0.16951949824983
 6 -5.55049300600060  5.91418388428843  1.01117587808781
 6 -8.53528132573257  5.95192622632263  0.19070605600560
 6 -8.45149904120412  7.07056317491749  0.94696094589459
 7 -9.19285155775578  0.72710557165717 -0.50489452315232
 6 -9.96066232593259  1.73237319041904 -0.65434175827583
 6 -11.25119421602160  1.48050638973897 -1.20618233773377
 6 -11.24566697059706  0.00678604270427 -1.18723743774377
 6 -9.83644932563256 -0.45211718601860 -0.85148016411641
 6 -12.34792361606161  2.38840941194119 -1.40486726152615
 6 -12.42795734203420 -0.76159356945695 -1.74527533603360
 6 -12.43735122352235 -1.11874428562856 -3.22054717331733
 7 -7.23836330463046 -1.45262487608761 -0.13867854485449
 6 -8.27139737953795 -2.29916508860886 -0.44417937313731
 6 -7.79906605220522 -3.61779004650465 -0.54318159545955
 6 -6.53198708280828 -3.58870320732073 -0.09191092299230
 6 -6.23403600000000 -2.22210049134913 -0.00345754155416
 6 -8.54905237263726 -4.82217505990599 -0.95767424582458
 6 -5.23849832013201 -4.31525540904090  0.18273114571457
 8 -5.10536937483748 -5.49565404880488  0.21678870957096
 6 -4.17224080348035 -3.28339412921292  0.62199206450645
 6 -3.58062869376938 -3.63490871217122  1.94215458835884
 8 -3.81078267886789 -3.00068680488049  3.03112579367937
 8 -2.78452964666467 -4.74984970737074  1.93400198109811
 6 -2.14788537643764 -5.10517474657466  3.13300823632363
 6  2.77587009870987 -0.40554834943494 -1.22364356475648
 6  4.08563065206521 -0.31092926922692 -0.49648979797980
 6  5.21394487888789  0.35312157755776 -0.96187596029603
 6  5.25364378737874  1.16065871517152 -2.17753191849185
 6  6.50104443724372  0.25154700490049 -0.08418490369037
 6  7.70715825372537  0.01188084118412 -1.10291724222422
 6  8.96186805940594 -0.11233636403640 -0.31961377417742
 6  10.23845446994699 -0.62154922662266 -1.00071104160416
 6  10.24131083128313 -2.11573250935094 -1.47513097809781
 6  11.44656753365336 -0.40143392419242 -0.09656878827883
 6  12.76837174487449 -0.68767281838184 -0.73605362826283
 6  13.99765923432343 -0.36144734753475  0.17803487098710
 6  15.36936306120612 -0.32111584068407 -0.51976021582158
 6  15.82310397929793 -1.69232686648665 -0.86827644534453
 6  16.37586169206921  0.43435779577958  0.32526703390339
 6  17.85471006040604  0.60836223462346 -0.17547336193619
 6  18.83826419591959  1.31282949994999  0.78915934893489
 6  20.20219888908891  1.41998233173317  0.26946170937094
 6  20.35471682548255  2.15909420662066 -1.01110210291029
 6  21.04739567036704  1.95845878217822  1.47590295369537
 1 -4.05336682118212  3.27553307470747  1.60483507040704
 1 -10.32608300100010  3.87652848784878 -0.65632102360236
 1 -10.22959624902490 -2.52753209400940 -1.15219187138714
 1 -2.71562801970197 -0.93998231213121  2.30817150835083
 1 -2.35919952515252  1.81711529412941  1.18824947534753
 1 -1.91532599009901  1.17795824872487  3.65044875837584
 1 -2.91822688268827  2.45580963846385  3.41665383078308
 1 -3.77992143484348  0.90461514551455  3.62033444624462
 1 -2.08943142804280 -1.69108906930693 -0.32509641884188
 1 -2.33817549004900 -0.26220897049705 -0.93268330793079
 1 -0.42005552295230  0.45221983588359  0.69786018511851
 1 -0.33855165716572 -1.03703821902190  1.24636859205921
 1 -5.91004978037804  6.81058970307031  0.65277098629863
 1 -5.54202119151915  6.09637300040004  2.08378467556756
 1 -4.50095405140514  5.63676484288429  0.78612178777878
 1 -9.26988904140414  6.05776192429243 -0.76960718891889
 1 -9.33195441134114  7.89432017091709  0.85975559735974
 1 -7.68759822562256  7.33102950245024  1.71939032453245
 1 -12.25243934903490  3.10312063806381 -2.22282528722872
 1 -13.12806247544754  1.70866475767577 -1.68689988148815
 1 -12.32616434753475  3.06824547924792 -0.39969121312131
 1 -12.47345212361236 -1.69475892099210 -1.09333428832883
 1 -13.39556827572757 -0.30421715851585 -1.49842537003700
 1 -13.36200255285529 -1.54091877807781 -3.65287517201720
 1 -12.19120268446845 -0.05526006360636 -3.71202469816982
 1 -11.70817709700970 -1.95296016311631 -3.48378699869987
 1 -8.56044564756476 -4.99131987488749 -1.95267853195320
 1 -8.13322268706871 -5.75456546074607 -0.61103071607161
 1 -9.66913679857986 -4.78108312961296 -0.48321014361436
 1 -3.29054975087509 -3.29248249894990 -0.18798406990699
 1 -1.64990315681568 -4.16033247294730  3.52037495279528
 1 -2.87883749234924 -5.34645626322632  3.78918175707571
 1 -1.46030414191419 -5.79640891409141  3.05046899979998
 1  2.70827013111311 -1.51989382528253 -1.78164212921292
 1  2.77506498409841  0.52380666026603 -1.99680283248325
 1  4.13580448604860 -0.89955217041704  0.22360557655766
 1  4.17550651415142  1.29075778617862 -2.42710107980798
 1  5.51762717441744  2.11900215911591 -1.82276874507451
 1  5.88275558315832  0.83278438593859 -2.92800153115312
 1  6.51641370427043  1.29569356935694  0.48537117991799
 1  6.30817493689369 -0.39910794819482  0.58854857155716
 1  7.56735412011201 -0.95282451765177 -1.61166248984899
 1  7.88090052595260  0.87870107820782 -1.81351427502750
 1  9.22218427002700  0.76287417241724  0.23211084328433
 1  8.97477596629663 -0.93685919211921  0.39755761946195
 1  10.52867041844184 -0.00413787608761 -1.90426531603160
 1  9.35124010951095 -2.25333330983098 -2.20892681748175
 1  11.19324187988799 -2.21880866476648 -2.01469571347135
 1  10.05720860686069 -2.72583452545254 -0.44485392509251
 1  11.52559023992399  0.59592182238224  0.45346683418342
 1  11.31484453785379 -0.99150511181118  0.88632925452545
 1  12.51775509440944 -1.79561772297230 -1.26787445504550
 1  13.00418417091709 -0.23496280528053 -1.63517687898790
 1  13.86159759645965  0.61546410241024  0.89507685068507
 1  14.04738749184919 -1.20172977767777  0.95314183068307
 1  15.06305959445945  0.38384786978698 -1.35995035303530
 1  15.88558600150015 -2.23444373647365 -0.10269172307231
 1  14.90287333803380 -1.98671104670467 -1.43683109820982
 1  16.72722235163517 -1.59047457235724 -1.55185665516552
 1  15.98845404610461  1.33490132383238  0.66344288858886
 1  16.40683513071307  0.07086791169117  1.49300206140614
 1  18.25572651135113 -0.54412095949595 -0.53262660306031
 1  17.75962302680268  1.20342766166617 -1.11213478927893
 1  18.55907670027003  2.32970712841284  0.86696470177018
 1  18.80228738903891  0.81495567656766  1.61390139043904
 1  20.45330024272427  0.30941708990899  0.22288935293529
 1  19.98276238283828  3.20673423532353 -0.77404099749975
 1  21.57420167226723  1.88327498029803 -1.10772213551355
 1  19.93315722012201  1.78240005080508 -1.88700566956696
 1  20.96965294049405  1.40900901000100  2.34553417061706
 1  22.10779248554855  1.95285651535154  1.18726369266927
 1  20.73902363226323  3.06493657695770  1.81634207470747

