%nproc=4
%Mem=2GB
# td=(NStates=1) CAM-B3LYP/6-31G(d,p) 

TD

0 1
<<<<<<< HEAD
12 -7.19633020602060  0.61766051415142  0.19916760416042
 6 -4.90951556955696 -1.97987916631663  0.48806533923392
 6 -4.84098402730273  2.85002344964496  1.19080544544454
 6 -9.45895063056306  3.09970546604660 -0.36714957465747
 6 -9.58997931163116 -1.77108261926193 -0.87961439053905
 7 -5.11522494709471  0.52305212331233  0.61126154445445
 6 -4.44253395949595 -0.69926974897490  0.77584560776078
 6 -2.93620262566257 -0.35629505520552  1.21057141134113
 6 -3.06864030243024  1.01757442574257  1.71595232593259
 6 -4.33522051695169  1.56785753455346  1.18416544644464
 6 -3.02001708380838  1.29831211931193  3.29889129802980
 6 -1.89150261126113 -0.48803406480648  0.04112807110711
 6 -0.53372079467947 -0.29026337353735  0.46271040034003
 6  0.53391452865287 -0.72835634853485 -0.59052443294329
 8  0.21339257935794 -0.97989339693969 -1.75301163286329
 8  1.80973278377838 -0.43064046044604 -0.16437322622262
 7 -7.15102555045505  2.63720931073107  0.31815051055106
 6 -6.08311759075908  3.33520449624963  0.75378891249125
 6 -6.44736198929893  4.80419470887089  0.79344003120312
 6 -7.82126483348335  4.78499913141314  0.47950634193419
 6 -8.23829810141014  3.48301749704971  0.13463600990099
 6 -5.43645160186019  5.75675814171417  1.17774253475348
 6 -8.62501029862986  6.06870790449045  0.12837982338234
 6 -8.35473936523652  7.23753987258726  0.58789503930393
 7 -9.17855012761276  0.69409227032703 -0.42419645334533
 6 -9.92290855055506  1.74798475157516 -0.63096942104210
 6 -11.23762285888589  1.50551889098910 -1.12258397789779
 6 -11.31738414231423  0.10322568666867 -1.30834954895490
 6 -9.94768044874487 -0.38729070337034 -0.93707872397240
 6 -12.37882670637064  2.45003557455746 -1.43788056285629
 6 -12.43824837113711 -0.82373978407841 -1.84909571807181
 6 -12.31910939933993 -1.18381079227923 -3.39621474007401
 7 -7.28245771407141 -1.44021363496350 -0.16819149614961
 6 -8.40017025682568 -2.31812698479848 -0.54300925612561
 6 -7.89194534013401 -3.58366663416342 -0.53785106240624
 6 -6.50262414651465 -3.56192052905291 -0.11196292819282
 6 -6.25307790419042 -2.22892117341734  0.13430623482348
 6 -8.58324579197920 -4.92012485488549 -0.88477695609561
 6 -5.26234070437044 -4.37937182068207  0.18803167576758
 8 -5.22003084098410 -5.55463994739474  0.04883191389139
 6 -4.19215279467947 -3.32435822562256  0.50900076537654
 6 -3.48551918281828 -3.61876709800980  1.91718209110911
 8 -3.75314691529153 -3.03435017121712  2.88016069716972
 8 -2.76057725142514 -4.71665638803880  1.86724530543054
 6 -2.16076666456646 -5.15628985808581  3.07267220272027
 6  2.84800731243124 -0.66541433603360 -1.17322852325233
 6  4.12626471547155 -0.40848902520252 -0.37561771077108
 6  5.12641612601260  0.27645391079108 -0.84025379807981
 6  5.11155957895790  1.06958960826083 -2.22305647094709
 6  6.47090142294229  0.26582843304330 -0.06674315951595
 6  7.65860339823982 -0.35262560946095 -0.94292124262426
 6  8.91307317991799 -0.20688581898190 -0.09383119591959
 6  10.23124374887489 -0.55962303400340 -0.93667463796380
 6  10.17875457565757 -2.11861279737974 -1.35903936893689
 6  11.45402827972797 -0.12656643744374 -0.05904503590359
 6  12.84613952165216 -0.31194524562456 -0.71889191209121
 6  14.05470493889389 -0.06046724952495  0.25475254275428
 6  15.32789891479148 -0.16197992709271 -0.56854509430943
 6  15.80120178907891 -1.67349498329833 -0.84899451715172
 6  16.56101020692069  0.50181454145415  0.31595610281028
 6  17.83249783918392  0.64674607300730 -0.34011982658266
 6  18.86828719821982  1.26054427142714  0.73069350235024
 6  20.33654232343234  1.27955828932893  0.17197196039604
 6  20.54078543234323  2.18130642784278 -1.03450444314431
 6  21.23183411421142  1.78539147544754  1.28762412581258
 1 -4.12596408090809  3.63130865226523  1.56527111401140
 1 -10.15696608930893  3.82614344934493 -0.55727111861186
 1 -10.31903519291929 -2.59939928072807 -1.05463211541154
 1 -2.66017247414741 -1.02774108800880  2.04022471367137
 1 -2.29530313551355  1.66781036363636  1.23166381678168
 1 -1.90530498799880  0.97710816371637  3.48628234173417
 1 -3.28511357135714  2.39508356585659  3.50366253165317
 1 -3.64163760646065  0.71178586258626  3.82640505330533
 1 -2.00897338223822 -1.52367232763276 -0.31980588978898
 1 -2.13858553105311  0.13524077447745 -0.80352039163916
 1 -0.24341785918592  0.75872048594859  0.85149554865487
 1 -0.27443524552455 -0.85603011821182  1.42882683788379
 1 -5.63668244364436  6.79044768886889  0.80233594279428
 1 -5.40002699209921  5.88121148424842  2.35724202130213
 1 -4.61377533353335  5.52969413581358  0.89005218081808
 1 -9.27430948344835  5.90552670077008 -0.74537476567657
 1 -8.94917613351335  8.19746048494850  0.32304192599260
 1 -7.63918338413841  7.54336073557356  1.30617900340034
 1 -12.30433453855385  2.91949227522752 -2.38245124982498
 1 -13.32679234843484  1.85926981818182 -1.15222641414141
 1 -12.58833056415642  3.26682533723372 -0.66684792879288
 1 -12.57267204560456 -1.74907435253525 -1.12875783068307
 1 -13.58028674757476 -0.20423716051605 -1.75427095459546
 1 -12.84244059665967 -1.93863855005501 -3.74174405890589
 1 -12.32128569276928 -0.21086562416242 -3.73038653435344
 1 -11.33727000630063 -1.39160402750275 -3.58477709770977
 1 -8.89035863886389 -4.80115085798580 -2.03699696379638
 1 -7.80391975677568 -5.59724972917292 -0.93368298129813
 1 -9.39889977487749 -5.01437645894590 -0.27075889848985
 1 -3.35087578347835 -3.58049129982998 -0.12680795229523
 1 -1.65050321682168 -4.17487392709271  3.46126904220422
 1 -2.81528113671367 -5.71981359895990  3.69059189808981
 1 -1.42901101260126 -5.83196246944695  2.62843679657966
 1  2.62226153025303 -1.69496133203320 -1.43822778777878
 1  2.66901437903790  0.13528780838084 -1.90709386158616
 1  4.39468037363736 -1.06528874407441  0.54079729572957
 1  4.17273623712371  1.01130984138414 -2.67728609830983
 1  5.65665107680768  1.93597385628563 -2.06159262746275
 1  5.56495380298030  0.59760086758676 -3.00786951795180
 1  6.76626868976898  1.40116411641164  0.37131977477748
 1  6.41563568296830 -0.21212925032503  0.73159287598760
 1  7.65759314401440 -1.34640387558756 -1.34268559215922
 1  7.70628306420642  0.05091829992999 -1.87525044864486
 1  9.08414046564656  1.06135402040204  0.20934856705671
 1  9.03081156985699 -0.75269077527753  0.94822268596860
 1  10.11762931433143  0.01340387808781 -1.80365525502550
 1  9.33250823632363 -2.22376035253525 -2.09088501330133
 1  11.22216477217722 -2.59091587548755 -1.49909415331533
 1  9.98831171717172 -2.75385732773277 -0.38209764946495
 1  11.52482016291629  1.15724795499550  0.01581306880688
 1  11.38202125552555 -0.60494645594559  0.85600622222222
 1  12.77261057995800 -1.44399256045605 -1.01377904550455
 1  12.91573532603260  0.13662435343534 -1.70213357465747
 1  13.93526496319632  1.13608616461646  0.61376871987199
 1  13.91047380048005 -0.47698730343034  1.21817833433343
 1  15.33711700020002  0.19706919191919 -1.44614897289729
 1  15.95475291819182 -2.27327761986199 -0.00809226312631
 1  15.16104915561556 -2.14734711031103 -1.42361977707771
 1  16.83763339273927 -1.64610013491349 -1.26257772727273
 1  16.25765096579658  1.56213404710471  0.76152269656966
 1  16.59765421262126 -0.02393156825683  1.24702746394639
 1  18.15531647034704 -0.30014656205621 -0.52553589398940
 1  17.93342040654066  1.16973429232923 -1.18718229402940
 1  18.43779457205721  2.46722087978798  0.55352335763576
 1  18.63810097039704  0.92780696169617  1.84707470777078
 1  20.68722363506351  0.23778992719272  0.02937000100010
 1  20.49125323192319  3.38786234813481 -0.85505909930993
 1  21.42345659775978  1.75313196599660 -1.80268163146315
 1  19.60966487088709  1.97169898069807 -1.93953092209221
 1  21.15986196139614  1.23662177127713  2.13850346754675
 1  22.35310701700170  1.91266249594959  1.06165113141314
 1  20.79418914881488  2.83090317361736  1.64292473297330
=======
12 -7.16470704370437  0.57772652075208  0.04180186758676
 6 -4.86694131213121 -1.93738491689169  0.53443997669767
 6 -4.86185611451145  2.85107355465547  1.04819118401840
 6 -9.38148288378838  3.03830932643264 -0.40585344504450
 6 -9.50479079277928 -1.79236474747475 -0.90272670177018
 7 -5.08065148974898  0.41350116821682  0.59637005530553
 6 -4.34692439853985 -0.71895171717172  0.76655467866787
 6 -2.98459746514651 -0.36158558425843  1.30074042824282
 6 -3.04722816121612  1.11506417471747  1.69185991669167
 6 -4.42776977187719  1.50794154295430  1.12839986988699
 6 -2.92144722682268  1.44732702080208  3.13322473137314
 6 -1.89739320032003 -0.61192645404540  0.16519047734773
 6 -0.47588501110111 -0.49854420162016  0.62726685598560
 6  0.55909704690469 -0.73319683258326 -0.42453783428343
 8  0.32057329742974 -1.05541094869487 -1.58157448914891
 8  1.79806161666167 -0.39329672607261 -0.00859764866487
 7 -7.02695314321432  2.60403599339934  0.19948864436444
 6 -6.04151343034304  3.41126210201020  0.73084661826183
 6 -6.44734198729873  4.72082637203720  0.73369405660566
 6 -7.75855856285629  4.79673030453045  0.27445583688369
 6 -8.13951822342234  3.48980817611761  0.02537508380838
 6 -5.47443540024002  5.89684215011501  1.04527928842884
 6 -8.66375417301730  5.97783881758176  0.25105209060906
 6 -8.42688657995800  7.17763388198820  0.76447269706971
 7 -9.15645791839184  0.60718357945795 -0.58908294199420
 6 -9.87897415711571  1.79835978907891 -0.70201652575258
 6 -11.20616971357136  1.42239057815782 -1.17407912741274
 6 -11.26368877277728  0.06882224632463 -1.30189890389039
 6 -9.91827750845084 -0.34442641694169 -0.87297231333133
 6 -12.30594941864186  2.41386195719572 -1.38434520932093
 6 -12.39571411771177 -0.84690210031003 -1.70401120962096
 6 -12.40509799819982 -1.08532094329433 -3.30326544514451
 7 -7.22303177147715 -1.42354196779678 -0.17970264726473
 6 -8.32131237103710 -2.25839101120112 -0.50519547474747
 6 -7.86078222382238 -3.65955422292229 -0.46581385868587
 6 -6.55496938103810 -3.59955429242924 -0.05903763566357
 6 -6.18335093149315 -2.24393267456746  0.15798860306031
 6 -8.65315278267827 -4.85330817321732 -0.84033251165117
 6 -5.34018848914891 -4.34780866436644  0.20195306790679
 8 -5.16483532143214 -5.59667415081508  0.24386141684168
 6 -4.10288386778678 -3.25055084488449  0.53809367466747
 6 -3.54558518941894 -3.67385260656066  1.86161653455346
 8 -3.63919552015202 -3.13342007820782  2.98794147524752
 8 -2.75469666336634 -4.73793851625163  1.74209279017902
 6 -2.30883147104710 -5.24627885698570  2.91223615911591
 6  2.88780129182918 -0.65452324692469 -1.04445564596460
 6  4.19180126912691 -0.33523169946995 -0.41381153015302
 6  5.13199668406841  0.51706797219722 -0.80613038573857
 6  5.00127855085509  1.36641929122912 -2.09240340564056
 6  6.42471680448045  0.63304515471547 -0.01513799899990
 6  7.57342488038804  0.00424007710771 -0.85795274577458
 6  8.93461533413341 -0.09629475987599 -0.10315212801280
 6  10.07463808830883 -0.40157722942294 -0.97522849334933
 6  10.05955265546555 -1.85708664476448 -1.42011547654765
 6  11.40729360626063 -0.15683946474647 -0.05654478587859
 6  12.86832173987399 -0.46192024312431 -0.63805382828283
 6  14.00599006740674 -0.20883208600860  0.16676374387439
 6  15.33160928582858 -0.32294602370237 -0.61903014281428
 6  15.71572324122412 -1.69372700650065 -1.08825844354435
 6  16.47830193609361  0.27514187418742  0.37678218541854
 6  17.78690327972797  0.51234263266327 -0.29528534313431
 6  18.86660703020302  1.16520473747375  0.74641507450745
 6  20.24990365956596  1.32861319481948  0.23696846004600
 6  20.32922427622762  2.07494579177918 -1.10405139783978
 6  21.17523845464547  1.82730566686669  1.27511287468747
 1 -4.02137362186219  3.50734625602560  1.60560514741474
 1 -10.14891528422842  3.92179301430143 -0.65992138363836
 1 -10.33741703110311 -2.47681702250225 -1.32551920412041
 1 -2.63831028792879 -1.03076139003900  1.90194088528853
 1 -2.25047865306531  1.65874945754575  1.16347699809981
 1 -1.95536999449945  1.10704115701570  3.45588930243024
 1 -3.15427048704871  2.43106716421642  3.35970813621362
 1 -3.57670111281128  0.64916960096010  3.63736614941494
 1 -2.12888537343734 -1.65705566596660 -0.37959186838684
 1 -2.23060473297330  0.11775902630263 -0.40207024662466
 1 -0.38011152855286  0.41063567746775  1.00112051115112
 1 -0.42474027602760 -1.17629214441444  1.36460041524152
 1 -5.56988576397640  6.70710935503550  0.27529323852385
 1 -5.59660665006501  6.18176153925393  2.25725202230223
 1 -4.31954591059106  5.68664983138314  0.98057123272327
 1 -9.63564561706171  6.03436958505851 -0.27472770097010
 1 -9.39560077597760  7.94807554645465  0.79854947674767
 1 -7.39331879767977  7.48424482398240  1.22141052655266
 1 -12.03766787188719  2.88007833383338 -2.50935394009401
 1 -13.28179784898490  1.91270516171617 -1.40836202770277
 1 -12.32226395749575  3.24415307000700 -0.72880412441244
 1 -12.38030280868087 -1.87333677877788 -1.07455241014101
 1 -13.29984870377038 -0.43643037983798 -1.53753928142814
 1 -13.29946629922992 -1.39681436763676 -3.63986387088709
 1 -12.18896246044605 -0.22468700630063 -4.03648714441444
 1 -11.45236151545155 -1.75916078317832 -3.37351597159716
 1 -8.61128073107311 -4.91205194809481 -2.01809507360736
 1 -8.14191355615561 -5.66975697989799 -0.55507512051205
 1 -9.85475536043604 -4.78146316761676 -0.69935175777578
 1 -3.33279397529753 -3.39005225592559 -0.49867513901390
 1 -1.65783394989499 -4.65454189388939  3.26908982428243
 1 -3.12318192679268 -5.51896351395140  3.32814565346535
 1 -1.66126423792379 -6.10896016921692  2.71172512541254
 1  2.88214751885189 -1.76024786068607 -1.28326229122912
 1  2.63163064066407 -0.28455417581758 -1.99704285648565
 1  4.43499440504050 -0.68942115731573  0.39021223722372
 1  3.95090405390539  1.38546725712571 -2.49315768546855
 1  5.28362377407741  2.34809506840684 -1.71561803000300
 1  5.77294460206021  0.97496860436044 -2.88410714171417
 1  6.73725578847885  1.78541254125413  0.19198184098410
 1  6.50013413281328  0.09677163976398  0.95928564526453
 1  7.28852623732373 -0.89627886308631 -1.38217954155416
 1  7.73358579447945  0.55147835593559 -1.75146807040704
 1  9.10968301990199  0.94284216921692  0.43537116931693
 1  8.82545103380338 -0.89857536373637  0.76928479217922
 1  10.01581913331333  0.36559909760976 -1.91034592409241
 1  9.13700868636864 -2.10131810831083 -1.92745867066707
 1  10.89230178587859 -1.95645242914291 -2.25010925482548
 1  10.34166705270527 -2.48236017801780 -0.38149758945895
 1  11.41667934883488  0.77219945014501  0.25617710521052
 1  11.53450650405041 -0.87803376467647  0.86789741134113
 1  13.05780909980998 -1.51758992019202 -0.87557522512251
 1  13.06088984148415  0.10405109610961 -1.59366272757276
 1  14.14107554425443  0.81211376737674  0.70163750675068
 1  14.01867462056206 -0.87655726042604  1.13077959445945
 1  15.23876716521652  0.30169965496550 -1.29912427042704
 1  15.92220966386639 -2.52787307940794 -0.20752220612061
 1  15.08741179187919 -2.27455983158316 -1.78117553265327
 1  16.63593322272227 -1.91180670557056 -1.56511798129813
 1  16.19229443014301  1.25457329102910  0.73693023732373
 1  16.64232868006800 -0.39519869496950  1.36520928212821
 1  18.65575651435143 -0.29624617201720 -0.59032237263726
 1  17.84701176567657  1.17085440434043 -1.17057063286329
 1  18.43221401400140  2.27484164186419  1.04314231953195
 1  18.93045020532053  0.63285746674667  1.56118611891189
 1  20.50503541624163  0.31271741994199  0.03055011901190
 1  20.02131623822382  3.13714727662766 -1.15207880128013
 1  21.45144939703971  1.98655530833083 -1.25811717501750
 1  19.74268817321732  1.65762757355736 -1.90893786278628
 1  21.17894386958696  0.89557766686669  1.95831544874487
 1  22.11168287458746  1.82350358005801  0.72059702600260
 1  21.06502623252325  2.92471255455546  1.86112655315532
>>>>>>> 8e03b5b5abfc0030b3aa597dc0de36371bfbd096

