%nproc=4
%Mem=2GB
# td=(NStates=1) CAM-B3LYP/6-31G(d,p) 

TD

0 1
<<<<<<< HEAD
12 -7.13909448244824  0.61620036813681  0.10104779217922
 6 -4.86480109810981 -1.97113829222922  0.44104063676368
 6 -4.74775470437044  2.78813726102610  1.19080544544454
 6 -9.41720645614561  3.00959645514551 -0.27488034773477
 6 -9.49677999169917 -1.82278778977898 -0.87450387948795
 7 -5.08752217681768  0.44008382648265  0.67036745504550
 6 -4.39503921002100 -0.64706452845285  0.72981100430043
 6 -2.96317532293229 -0.42508193389339  1.21432178637864
 6 -3.00634407280728  0.96461913021302  1.74411514221422
 6 -4.34408140304030  1.43932468126813  1.15827285718572
 6 -3.15793087518752  1.05508779687969  3.31776318521852
 6 -1.97647110811081 -0.59213447484748 -0.00550659235924
 6 -0.51806922952295 -0.41767611481148  0.47953208250825
 6  0.47543868106811 -0.61823533643364 -0.68554393489349
 8  0.16788802890289 -0.87617302490249 -1.82855918761876
 8  1.71055286578658 -0.17489488588859 -0.43871065996600
 7 -6.97281772967297  2.61440703050305  0.20565926142614
 6 -6.01376065506551  3.34488546434643  0.76009954355436
 6 -6.32567982108211  4.76312060146015  0.72864355155516
 6 -7.58608131513151  4.86760739223922  0.25742413371337
 6 -8.03330760236024  3.50929012431243 -0.01457891159116
 6 -5.37916587328733  5.93010547644765  1.15237999849985
 6 -8.48211600920092  6.01695272897290  0.09944693009301
 6 -8.51109500080008  7.14336045464546  0.76506275607561
 7 -9.12521479407941  0.57198005910591 -0.51566560026003
 6 -9.85455171487149  1.81051100420042 -0.57275359945995
 6 -11.20493959055906  1.44530286938694 -0.94292601210121
 6 -11.12566497039704  0.03277864196420 -1.16601531553155
 6 -9.85542122282228 -0.45955793009301 -0.79044406050605
 6 -12.32250107380738  2.40497106810681 -1.14140091489149
 6 -12.24140868716872 -0.89989739983998 -1.62383319181918
 6 -12.36996448484848 -1.15130754195420 -3.21941706030603
 7 -7.21738120642064 -1.35614522812281 -0.17044172117212
 6 -8.23948418821882 -2.23118829092909 -0.50433538873887
 6 -7.81377752335233 -3.58002627012701 -0.51520879817982
 6 -6.55125901000100 -3.51310564756476 -0.16268800070007
 6 -6.17737033343334 -2.11972025332533  0.08493129732973
 6 -8.65034250165016 -4.81902474487449 -0.77064554295430
 6 -5.38681315161516 -4.32348623212321  0.21199407200720
 8 -5.17812665056506 -5.50922540594059  0.34074110481048
 6 -4.16278985838584 -3.32524831463146  0.63078294359436
 6 -3.56450708160816 -3.65283050435043  2.01713208610861
 8 -3.77031863246325 -2.99944668086809  3.00476315741574
 8 -2.65196639033903 -4.65965068746875  1.85182376327633
 6 -2.06869745764576 -5.05968019711971  3.06736167166717
 6  2.73932644434443 -0.49539733433343 -1.38124932533253
 6  4.14308639763976 -0.46471464776478 -0.74021417041704
 6  5.16173965836584  0.27335360076008 -1.21739151185118
 6  5.12791121412141  1.13743639293929 -2.40376454175418
 6  6.44648898169817  0.43449529972997 -0.33059954515452
 6  7.64520205810581 -0.03567391429143 -1.16441339183918
 6  8.93051492409241  0.15942081168117 -0.40972278507851
 6  10.17504812931293 -0.60823789548955 -1.08502947344734
 6  9.97709440964096 -2.07023795989599 -1.40982444744474
 6  11.46946982388239 -0.42340612141214 -0.27643677507751
 6  12.85178008570857 -0.62107615871587 -0.80003002590259
 6  13.97390685908591 -0.16829803260326  0.20764783228323
 6  15.38249437433743 -0.24574830393039 -0.50209844964496
 6  15.71848351725172 -1.77206484028403 -0.76381599929993
 6  16.34536864276428  0.32580694069407  0.52229673687369
 6  17.75292988238824  0.57202860126013 -0.03738955355536
 6  18.79414978447845  1.27345556255626  0.88748918191819
 6  20.24355302450245  1.42986331983198  0.54748951215122
 6  20.36843819761976  2.07341563876388 -0.91084207690769
 6  21.00861179197920  2.00251318761876  1.62358772217222
 1 -4.18755023952395  3.57502302370237  1.78553314021402
 1 -10.15114550725072  3.85241607660766 -0.26183157465747
 1 -10.26091938133813 -2.66936627742774 -1.12174882708271
 1 -2.66551300820082 -1.10746906080608  1.91260195139514
 1 -2.17087069226923  1.62198578117812  1.41131178157816
 1 -2.27430188768877  0.42354280718072  3.78105181868187
 1 -3.17641270127013  1.99654371187119  3.81651381678168
 1 -3.90524396709671  0.34581926592659  3.65094750755076
 1 -2.08452093699370 -1.56197615801580 -0.46823073227323
 1 -2.23364503700370  0.12463971437144 -0.91339137873787
 1 -0.18773229062906  0.36633124702470  1.08878927802780
 1 -0.42345014701470 -1.22222673787379  1.20837479267927
 1 -5.60526930233023  6.79219786388639  0.38637434663466
 1 -5.53421041044104  6.33439680278028  2.27541383848385
 1 -4.41192514851485  5.72480364676468  0.86567974357436
 1 -9.35226727922792  5.72357850595060 -0.66360658885889
 1 -9.17180839673967  8.02772351125112  0.69933955575558
 1 -7.95269473527353  7.16537293679368  1.82350073557356
 1 -12.12839694479448  2.96907723372337 -1.97543054775478
 1 -13.17740740994099  1.87279117031703 -1.41319251075107
 1 -12.67569930103010  3.08649730443044 -0.14678592259226
 1 -12.04707948634864 -2.00626007110711 -1.17049200410041
 1 -13.14293301220122 -0.44120085688569 -1.20868639613961
 1 -13.02546889948995 -1.95441012721272 -3.39838972347235
 1 -12.57295085928593 -0.27260179777978 -3.80260375607561
 1 -11.28135441474148 -1.55318018511851 -3.52524114411441
 1 -8.78294789778978 -4.97896863976398 -1.88300156425643
 1 -8.20651001580158 -5.68868887308731 -0.35758537153715
 1 -9.74350423532353 -4.72256727802780 -0.14508633123312
 1 -3.49351004690469 -3.50122337303730 -0.29720499199920
 1 -1.57825599209921 -4.20625706540654  3.57036995229523
 1 -2.96934654325433 -5.45453707130713  3.61934477337734
 1 -1.37717582908291 -5.73898317151715  2.76930088298830
 1  2.55352465656566 -1.55337717361736 -1.85957992299230
 1  2.75857333493349  0.29903418301830 -2.28295144734473
 1  4.37933883948395 -1.26604882008201  0.12160537653765
 1  3.95139410291029  1.09459817021702 -2.82150051975198
 1  5.46812222392239  2.26044630353035 -2.29818628682868
 1  5.78448575617562  0.49145025252525 -2.94154288528853
 1  6.62080414331433  1.50519451945195 -0.27628498569857
 1  6.28843296269627 -0.19829786718672  0.66781649834984
 1  7.27796518121812 -0.89969920512051 -1.51200252385238
 1  7.54388682458246  0.54612782088209 -2.06386931053105
 1  9.15840789238924  1.16840472547255 -0.09599196699670
 1  8.76771526022602 -0.39690519671967  0.54287215091509
 1  10.39455700710071 -0.01581904420442 -1.95287017651765
 1  9.02374736023602 -2.17816579307931 -2.07501342614261
 1  10.51336389208921 -2.63771055495550 -2.28334257815782
 1  9.78889177517752 -2.62902484448445 -0.49966940664066
 1  11.24487216811681  0.71015324552455  0.34690617811781
 1  11.38493154655466 -1.15514147544755  0.64037465906591
 1  13.07915123402340 -1.72253041424142 -1.09389705730573
 1  12.87063081558156 -0.13754306330633 -1.77063042434243
 1  13.79260069676968  0.95907846384638  0.62277962096210
 1  13.96080883398340 -0.75583518821882  1.01489800630063
 1  15.44470775927593  0.42603208820882 -1.35105946394639
 1  15.62590003290329 -2.32094238633863  0.24772331843184
 1  14.80662371307131 -2.18119049464946 -1.43513092819282
 1  16.61213084248425 -1.89711523642364 -1.31533300280028
 1  16.12952815351535  1.29846768046805  0.77732427672767
 1  16.48580302750275 -0.23237241234123  1.45260802200220
 1  18.32310324902490 -0.40415696309631 -0.26392973337334
 1  17.83865092959296  1.15612293119312 -0.98338191399140
 1  18.55806659925993  2.21095525322532  0.88054605990599
 1  18.44883204350435  0.86185036603660  1.90526052635264
 1  20.42797771047105  0.28744489268927  0.40215727972797
 1  19.79102320892089  3.01102466436644 -0.74408800220022
 1  21.42038629072907  2.01101775457546 -1.25842720602060
 1  19.72523642804281  1.56492830363036 -1.70651762076208
 1  20.90015599079908  1.51739984908491  2.57787740494049
 1  22.03471517781778  2.01344257395740  1.19616458275828
 1  20.67288701860186  3.16003608690869  1.76684712521252
=======
12 -7.14177475047505  0.58891763986399  0.14209189658966
 6 -4.86446106410641 -1.91518269666967  0.52222875557556
 6 -4.79351928082808  2.83225167246725  1.12406877177718
 6 -9.35446018151815  3.09009450495049 -0.36876973667367
 6 -9.59334964866487 -1.73477898889889 -0.71903833293329
 7 -5.09793321792179  0.36045586368637  0.74000441874187
 6 -4.30799050515052 -0.72572239423942  0.75074309750975
 6 -2.83642264766477 -0.48781820752075  1.17498785298530
 6 -2.99227266566657  1.01541420972097  1.60384111481148
 6 -4.38713570847085  1.42522327112711  1.12675970587059
 6 -2.78526360846085  1.18208049614962  3.17417882678268
 6 -1.88257171817182 -0.67196245764576  0.00291424972497
 6 -0.40313773637364 -0.45829017621762  0.40992512181218
 6  0.54164530173017 -0.65174868776878 -0.78440382088209
 8  0.21946318641864 -0.92407781538154 -1.90173650535054
 8  1.76058786928693 -0.31976937333733 -0.41740852975298
 7 -7.06078652655266  2.64196978677868  0.22925162066207
 6 -5.96839611861186  3.36171714751475  0.62391592519252
 6 -6.32665991909191  4.71446573597360  0.63183387058706
 6 -7.60181288828883  4.81415204670467  0.25928431973197
 6 -8.12860713231323  3.43129232453245 -0.00469792349235
 6 -5.52542049874987  5.83555602150215  1.01176593709371
 6 -8.44777257485748  6.02244327802780  0.05892287768777
 6 -8.38030192149215  7.15959207780778  0.80957720752075
 7 -9.08536080868087  0.65266812791279 -0.55611964566457
 6 -9.92727898759876  1.73959391249125 -0.64265058915892
 6 -11.22148124472447  1.41571991109111 -1.07035875537554
 6 -11.30834323822382 -0.01776641254125 -1.13308202220222
 6 -9.99329501020102 -0.43992596689669 -0.85057007310731
 6 -12.31249007270727  2.51003157415742 -1.16888366316632
 6 -12.49710425672567 -0.77837524762476 -1.54939574807481
 6 -12.28826631503150 -1.19861227242724 -2.98753387198720
 7 -7.18823829212921 -1.41971158475848 -0.12131680868087
 6 -8.29552979277928 -2.22654782688269 -0.47427238243824
 6 -7.84337048264826 -3.65262352985299 -0.49420669796980
 6 -6.46914079817982 -3.61771610861086 -0.16485821772177
 6 -6.15278787518752 -2.25984426572657  0.10805360956096
 6 -8.78665613301330 -4.74615745814581 -0.73346182458246
 6 -5.19726419671967 -4.45466935043504  0.20894376697670
 8 -5.21553039093909 -5.59633411681168  0.12501953265327
 6 -4.16272985238524 -3.36749253905390  0.56958682398240
 6 -3.68074870577058 -3.64142936423642  1.93418379127913
 8 -3.89694129472947 -3.06509324552455  2.89972265336534
 8 -2.76235742944294 -4.69690441284128  1.82021060196020
 6 -2.34203479137914 -5.12167639673967  3.11707664316432
 6  2.92274478617862 -0.51997979257926 -1.37899910031003
 6  4.10835292429243 -0.25518369466947 -0.64474462346235
 6  5.08328181258126  0.49586585198520 -0.94553432613261
 6  4.98951737473747  1.38196084538454 -2.20345451075108
 6  6.41889622242224  0.42852470267027 -0.16779326452645
 6  7.65087262516252 -0.07155750265026 -0.98771572207221
 6  8.83065493809381 -0.04672980338034 -0.22161397419742
 6  10.16671729622962 -0.51939901160116 -0.91344231473147
 6  10.18572527272727 -2.09040997709771 -1.27288075307531
 6  11.40045292219222 -0.14913869466947  0.01298216681668
 6  12.72150705840584 -0.43085713681368 -0.74991501440144
 6  13.98056752515251 -0.01642284508451  0.22500956845685
 6  15.34729085398540 -0.22038576767677 -0.46826506630663
 6  15.57691936083608 -1.62455008880888 -0.82573219091909
 6  16.34894900080008  0.45398975897590  0.44954946214621
 6  17.83287787718772  0.48880027842784 -0.22084789938994
 6  18.79911028052805  1.11323954095410  0.74128456145615
 6  20.26031470067007  1.32006233973397  0.28748351155116
 6  20.48241959575958  2.21644994219422 -0.81180217291729
 6  21.18183911471147  1.66699963626363  1.47525288868887
 1 -4.01242272677268  3.61850737213721  1.33706829372937
 1 -10.00265065776578  3.93844467946795 -0.48817420892089
 1 -10.35473876327633 -2.40877021782178 -1.18469512171217
 1 -2.54444090099010 -1.23696201010101  2.04157484868487
 1 -2.11118472367237  1.38561214381438  1.11418206860686
 1 -1.74438889638964  1.13872432533253  3.29132284578458
 1 -3.10870593059306  2.18927298479848  3.36760892629263
 1 -3.39896333903390  0.42530721472147  3.52061447424743
 1 -2.13096558145815 -1.68575853625363 -0.39919382858286
 1 -2.06385805830583  0.05533278367837 -0.64283432303230
 1 -0.35347886528653  0.53466808070807  0.78246864596460
 1 -0.05377317931793 -1.11952646784679  1.16948090329033
 1 -5.60397917331733  6.85190383448345  0.43777948714872
 1 -5.55084207360736  6.17536089918992  2.14690098719872
 1 -4.51347530353035  5.69273043944394  0.89287246284628
 1 -9.23471552405241  5.89403555165516 -0.62347257545755
 1 -9.02203341924192  7.96482722162216  0.47424704650465
 1 -7.75187465326533  7.31254765426543  1.48025641114111
 1 -12.20164426952695  3.25756608260826 -1.98377138183818
 1 -13.37764743394339  1.95811970317032 -1.15830702220222
 1 -12.47319905100510  3.07601625632563 -0.23170441444144
 1 -12.63945872427243 -1.82379182428243 -1.04945990089009
 1 -13.47200591949195 -0.40518725552555 -1.33645917341734
 1 -13.09126547914791 -1.80555524172417 -3.43833371787179
 1 -12.28637220142014 -0.27985252285229 -3.62844634033403
 1 -11.42447872717272 -1.69000386748675 -3.10672929292929
 1 -9.53973357635764 -4.51768251115111 -1.44333759785979
 1 -8.04440380518052 -5.62632263646365 -1.10489010201020
 1 -9.37304718961896 -5.16951197249725  0.19135731313131
 1 -3.20276097199720 -3.41802505320532 -0.08084335583558
 1 -1.94818298479848 -4.28269470917092  3.57973088838884
 1 -3.16951656025603 -5.61297291489149  3.72041488038804
 1 -1.56449456095610 -6.01313058625863  2.92213616651665
 1  2.84542384648465 -1.61253308920892 -1.87876184118412
 1  2.81436891449145  0.36692097169717 -2.04238739093909
 1  4.18252915851585 -0.94101631683168  0.22713592959296
 1  4.08688765226523  1.57917662806281 -2.38480685038504
 1  5.44351976367637  2.40403066196620 -2.03237970617062
 1  5.50130743834383  0.85281638913891 -2.96409514051405
 1  6.54445650855085  1.67225122512251  0.20540318311831
 1  6.07681180058006 -0.05201323872387  0.79669938663866
 1  7.58438582328233 -1.13889312451245 -1.29627095069507
 1  7.90058249414941  0.57636084418442 -1.73148607220722
 1  8.93265531713171  1.02169005400540  0.20145777797780
 1  8.96966545524552 -0.65289079527953  0.76193405710571
 1  10.30378793019302  0.11797433513351 -1.89052394189419
 1  9.29259424492449 -2.33064104060406 -1.74296022082208
 1  10.94795735143514 -2.16190297419742 -2.06107035093509
 1  10.16350923692369 -2.74494643664366 -0.46204564426443
 1  11.33566124702470  1.06734896509651  0.35437692519252
 1  11.36602965636564 -0.74389035033503  0.94672529412941
 1  12.74054737363736 -1.52731089228923 -0.90820848844884
 1  12.77606135863586  0.17553824482448 -1.80582394369437
 1  13.75564700140014  1.17622017801780  0.49797714071407
 1  14.03665641874187 -0.66039564426443  1.15049156565657
 1  15.41535482398240  0.25156464146415 -1.37536189418942
 1  15.63678112101210 -2.35382567466747 -0.07858931283128
 1  14.87519056975698 -1.98833120872087 -1.53578099319932
 1  16.40611024042405 -1.57466299119912 -1.66498796829683
 1  16.18971417211721  1.64791262496250  0.45549209350935
 1  16.35184963216322  0.04652547744774  1.44895765696570
 1  18.05756669536954 -0.45755230263026 -0.59275261566157
 1  17.66849391389139  1.05572289118912 -1.15094867066707
 1  18.45660645324532  2.18152230993099  0.85835384068407
 1  19.12642980328033  0.49120330133013  1.72956295659566
 1  20.71553646634663  0.42749889808981 -0.09390232623262
 1  20.02942704930493  3.13327688958896 -0.60608420182018
 1  21.58119237133713  2.41461811461146 -1.11804316761676
 1  19.96547045144515  1.68427023782378 -1.87525449444944
 1  20.68085406060606  1.21637974707471  2.44884450165016
 1  22.47870957725772  1.37075830553055  1.40775574187419
 1  21.01724145404540  2.69922000530053  1.70372081258126
>>>>>>> 8e03b5b5abfc0030b3aa597dc0de36371bfbd096

