%nproc=4
%Mem=3GB
# td=(NStates=1) iop(3/107=0140000000,3/108=0140000000) CAM-B3LYP/6-31G(d,p) 

TD

0 1
12 -7.14461915361536  0.67067545104510  0.10416678667867
 6 -4.89247806430643 -1.87363459405941  0.44726012841284
 6 -4.85425145574557  2.83569228712871  1.19908001320132
 6 -9.43914067856786  3.23975152815282 -0.32002447774777
 6 -9.48946504450445 -1.67244901060106 -0.98517532243224
 7 -5.07361439263926  0.47280337093709  0.64688251225122
 6 -4.42312455975598 -0.61752289548955  0.78697659235924
 6 -2.96590281088109 -0.41945034303430  1.25444111321132
 6 -3.07889111601160  1.05735443704370  1.83773005230523
 6 -4.38427866256626  1.55906055715572  1.20641503540354
 6 -3.11609779057906  1.18654147344734  3.34211952655266
 6 -1.91754748444844 -0.50170615981598  0.09567337763776
 6 -0.46141185038504 -0.44774802280228  0.59835321762176
 6  0.52653457665767 -0.83513013491349 -0.47342713281328
 8  0.19806002280228 -1.18808258595860 -1.58025541864186
 8  1.81183978237824 -0.48553849224922 -0.11020640824082
 7 -7.10402804620462  2.65515872577258  0.33817474157416
 6 -6.09848999279928  3.35533930133013  0.72499837593759
 6 -6.42270717911791  4.81751861546155  0.91749000770077
 6 -7.76125091039104  4.90792259745975  0.45856198259826
 6 -8.15666519401940  3.55077201600160  0.10272827142714
 6 -5.49822185608561  5.84999447314731  1.28657881308131
 6 -8.58510851885188  6.07728799839984  0.22329294179418
 6 -8.43617202720272  7.23964311401140  0.87000105940594
 7 -9.08240728182818  0.72064905930593 -0.51116769066907
 6 -9.80736822312231  1.83122644694469 -0.65188800230023
 6 -11.10128408110811  1.52715215971597 -1.16626148584858
 6 -11.23133262046205  0.16964451025103 -1.41618164646465
 6 -9.93047065066507 -0.37591778517852 -0.92370457175718
 6 -12.23414435213521  2.53696893829383 -1.49695914861486
 6 -12.36634042694269 -0.74192031583158 -1.87285661626163
 6 -12.11185309420942 -1.13094328662866 -3.40546119731973
 7 -7.25140810321032 -1.39144398009801 -0.21043371847185
 6 -8.18996332263226 -2.24930347584758 -0.63584516441644
 6 -7.78949098889889 -3.58059861126113 -0.53527382718272
 6 -6.48318610911091 -3.51897487958796 -0.05117719941994
 6 -6.19570330203020 -2.15287324312431  0.07170900630063
 6 -8.64225656515652 -4.75963206160616 -0.80606398949895
 6 -5.28389385228523 -4.32235579897990  0.18590356445645
 8 -5.09090008230823 -5.57799465646565  0.10156610521052
 6 -4.13885838843884 -3.22232968036804  0.50066838843884
 6 -3.59431360816082 -3.54924286698670  1.87773374187419
 8 -3.72632541594159 -3.12925028292829  2.97471082928293
 8 -2.72603795659566 -4.66391501000100  1.75099413691369
 6 -2.03632258925893 -5.10059526542654  3.00463786418642
 6  2.76350267066707 -0.90414870377038 -1.05869938713871
 6  4.12600348554855 -0.70279554745475 -0.44920748354835
 6  5.05385087638764  0.07686421442144 -0.93490636763676
 6  4.93013673927393  0.64643231853185 -2.35495963096310
 6  6.48625490419042  0.17362797879788 -0.35173569796980
 6  7.64850630323032 -0.33235178317832 -1.13559388808881
 6  8.90032774437444 -0.15975779187919 -0.21992809520952
 6  10.24057951855186 -0.66799846304630 -0.92739845984598
 6  10.18981225782578 -2.04770265016502 -1.40244721072107
 6  11.49919458325832 -0.35086997809781 -0.04892285478548
 6  12.84507224272427 -0.56800683418342 -0.76403390849085
 6  13.94856612841284 -0.05314102840284  0.22376878847885
 6  15.30860685168517 -0.09559864346435 -0.45311096359636
 6  15.66791306230623 -1.55331371967197 -0.79803162946295
 6  16.37604459715972  0.46495301260126  0.48761349604961
 6  17.75349293699370  0.68029175877588 -0.14868139513951
 6  18.73620403900390  1.27698577707771  0.72635589228923
 6  20.17023982838284  1.45842527502750  0.16297300330033
 6  20.18693153895390  2.37994529962996 -1.07191188708871
 6  21.18288335533553  1.86707840774077  1.19250319031903
 1 -4.04577494099410  3.69261251265126  1.54510060586059
 1 -10.14350647394740  3.96703897839784 -0.55432995919592
 1 -10.32799722382238 -2.37025256035604 -1.36744456385639
 1 -2.61775906310631 -0.97943814651465  2.24437092779278
 1 -2.22232569886989  1.71871393249325  1.53766741574157
 1 -2.18410149654965  0.88507761416142  3.81211154855486
 1 -3.37206431553155  2.37697692049205  3.36691471367137
 1 -3.81117391789179  0.61994714901490  3.68538022322232
 1 -2.00315543454345 -1.48754942574257 -0.34136214331433
 1 -1.94221059005901  0.35571319111911 -0.71828856345635
 1 -0.06432186088609  0.54385397269727  1.27658152115212
 1 -0.46897531783178 -1.18976974357436  1.58802226052605
 1 -5.86282045974598  6.76274378637864  0.74130396169617
 1 -5.31208267956796  6.06215909730973  2.66128814131413
 1 -4.56252109670967  5.65660992899290  0.89709044164416
 1 -9.38412867266727  5.82176555855585 -0.38451980468047
 1 -9.07677674137414  8.06962668366837  0.93223299899990
 1 -7.53534146624662  7.37857469386939  1.59445840614061
 1 -12.04688516151615  3.11871101820182 -2.33056888838884
 1 -13.15065236293629  1.90121886428643 -1.73875960416042
 1 -12.27494852755276  3.25699303340334 -0.62507294679468
 1 -12.47233919881988 -1.62360328312831 -1.26693019391939
 1 -13.21676397549755 -0.12618532903290 -2.03570932533253
 1 -12.88530372957296 -1.67601126322632 -3.82087304540454
 1 -11.98984939063906 -0.29376784808481 -4.10352933133313
 1 -11.14893973337334 -1.73766479367937 -3.55768404660466
 1 -9.22620723932393 -4.55898239903990 -1.75993205620562
 1 -8.19150353555356 -5.72110806410641 -0.76106606170617
 1 -9.39213339233923 -4.62462091049105  0.01056878817882
 1 -3.40495801430143 -3.26266287188719 -0.33472121022102
 1 -1.42516590419042 -4.32962517591759  3.47589930753075
 1 -2.90022645994600 -5.59537906280628  3.64885592329233
 1 -1.54625514601460 -6.09514029882988  2.69287264836484
 1  2.62153020782078 -2.08915553835384 -1.39395084378438
 1  2.76225266656666 -0.37839975517552 -2.03382443994399
 1  4.40277076377638 -0.83320173397340  0.65085648584859
 1  3.97052236373637  0.45327086978698 -3.03416390209021
 1  5.31240817301730  1.68092851675168 -2.18287572597260
 1  5.63356292479248  0.10360155105510 -3.03994025092509
 1  6.69480766466647  1.27539752035203 -0.09936032213221
 1  6.32241011311131 -0.18787612431243  0.82988918441844
 1  7.53050517331733 -1.52953362636264 -1.43478823602360
 1  8.00055261376138  0.29736883988399 -1.87746856975698
 1  9.08446449074907  0.97327682518252 -0.01849942184218
 1  8.73712683348335 -0.70220857355736  0.83668979237924
 1  10.34300893269327 -0.08343219541954 -1.92082724072407
 1  9.45847545664567 -2.31320960446045 -2.19578796069607
 1  11.27626676727673 -2.36327972727273 -1.75154051215121
 1  10.03525572267227 -2.78120223492349 -0.37252464616462
 1  11.35547718931893  0.82307874127413  0.15667343814381
 1  11.65125272077208 -0.98171946954695  0.79495581568157
 1  12.79327728022802 -1.57849526882688 -0.86637890939094
 1  13.07959378927893 -0.09620468446845 -1.75736006970697
 1  13.78332975327533  1.07372273557356  0.66904173287329
 1  14.02698100870087 -0.85530190909091  1.06232860686069
 1  15.44381478287829  0.31277467446745 -1.32041331013101
 1  15.61774557135714 -2.13331267246725  0.19031089558956
 1  14.97502914731473 -2.02251677167717 -1.64509588308831
 1  16.69892817241724 -1.72942383938394 -1.31860837413741
 1  15.95815908940894  1.43927226092609  0.62997891419142
 1  16.35454953275327 -0.03695998079808  1.49410790549055
 1  18.17662440014001 -0.24684119811981 -0.59353954955496
 1  17.68361567116712  1.20251914601460 -1.06638238183818
 1  18.41622067896790  2.25192646064606  0.97601954875487
 1  18.79738570107011  0.66905174467447  1.68767201270127
 1  20.33367319961996  0.37197819541954 -0.22245635343534
 1  19.64226104460446  3.24053482998300 -0.94757694239424
 1  21.13355715651565  2.46967810991099 -1.29389737093709
 1  19.72583098069807  2.04341463166317 -1.95424380878088
 1  21.24287814131413  1.35434107500750  2.06298996779678
 1  22.07036492929293  2.18149862056206  0.69057571117112
 1  20.98806888538854  2.84740085728573  1.73010014671467

