%nproc=4
%Mem=2GB
# td=(NStates=1) CAM-B3LYP/6-31G(d,p) 

TD

0 1
12 -7.08025859885989  0.63235198329833 -0.02514482708271
 6 -4.91454607260726 -2.00705188358836  0.51637817051705
 6 -4.77579750865087  2.90013846114611  1.03876024092409
 6 -9.48611334683468  3.17144263976398 -0.33957681738174
 6 -9.51909222292229 -1.73261877287729 -0.86837326642664
 7 -5.08189161376138  0.44148396649665  0.56288670697070
 6 -4.39303901000100 -0.64553437543754  0.75999402260226
 6 -2.94068307370737 -0.35467489318932  1.15433578777878
 6 -2.99312275067507  1.16294896319632  1.55935666636664
 6 -4.37975497039704  1.58626937573757  1.01095812571257
 6 -3.00734581668167  1.32974526262626  3.10687209610961
 6 -1.91179464046405 -0.61474673607361  0.07950190849085
 6 -0.57175459805981 -0.37048139533953  0.51526565586559
 6  0.52371350855086 -0.60393390629063 -0.58989436993699
 8  0.26822806290629 -0.85117052465247 -1.78443477517752
 8  1.79708151865187 -0.44774217061706 -0.17454424332433
 7 -7.13094354225423  2.61591718151815  0.24686338183818
 6 -6.05186446544654  3.41150212601260  0.64786832043204
 6 -6.40502775587559  4.73675796519652  0.73037372457246
 6 -7.77200990799080  4.77459809130913  0.37351574287429
 6 -8.20791506310631  3.55233442874287  0.08298084438444
 6 -5.48900685738574  5.96207867376738  1.07594235473547
 6 -8.61836963456346  5.94760579427943  0.22737972337234
 6 -8.37350124142414  7.22895901450145  0.77921417121712
 7 -9.18597086968697  0.59336219731973 -0.52856689038904
 6 -9.92199845954595  1.81540149324932 -0.60552687678768
 6 -11.23202229882988  1.48563690279028 -1.07659937943794
 6 -11.22115451935193  0.15815117921792 -1.24909362336234
 6 -9.92986866756676 -0.39007098139814 -0.84337935403540
 6 -12.40004882858286  2.41328189918992 -1.16102287708771
 6 -12.46978152445245 -0.70144755485549 -1.58173898239824
 6 -12.47611509990999 -1.20961337253725 -3.08580369896990
 7 -7.23967343564356 -1.39108872247225 -0.10396507350735
 6 -8.33331357115712 -2.18450362246225 -0.49011396659666
 6 -7.88714486008601 -3.64053232073207 -0.42292957025703
 6 -6.52580646474648 -3.59019335633563 -0.04703643554355
 6 -6.18003059945995 -2.16518479977998  0.08586139033903
 6 -8.69253672107211 -4.83466630903090 -0.75117359575958
 6 -5.28175264556456 -4.40453433693369  0.24406727932793
 8 -5.19113795169517 -5.54659914331433  0.28616564726473
 6 -4.20097367676768 -3.32889867966797  0.57464733003300
 6 -3.55451608250825 -3.65988120942094  1.88304867776778
 8 -3.67829943054305 -3.13562029822982  2.94004668576858
 8 -2.68942013571357 -4.67175189758976  1.70552913381338
 6 -2.09704029192919 -5.33121735083508  2.89947488298830
 6  2.82060457215722 -0.63423121772177 -1.30362156255626
 6  4.12868495749575 -0.59202737903790 -0.61013116211621
 6  5.21544502890289  0.17317358275828 -0.92693246594659
 6  5.05478390139014  1.07635028432843 -2.20795496079608
 6  6.46841117391739  0.12607445764576 -0.13589007420742
 6  7.67985552345235 -0.28158850575058 -1.04836178667867
 6  9.02822469506951 -0.21239637003700 -0.23670548334834
 6  10.24572519701970 -0.63088015971597 -0.98241921242124
 6  10.24889158935894 -2.08112904900490 -1.34039750475048
 6  11.53623650055006 -0.44438821962196 -0.03491262266227
 6  12.77388229592959 -0.56082013311331 -0.80998102100210
 6  13.97520698909891 -0.07924912771277 -0.00027295979598
 6  15.45351147604761 -0.26218994809481 -0.46225446524652
 6  15.73562523142314 -1.79218685248525 -0.85478509620962
 6  16.36881098699870  0.46687104710471  0.46815132233223
 6  17.82052664206421  0.66364776317632 -0.11969778437844
 6  18.78483885338534  1.29851806880688  0.82599303230323
 6  20.27888655785578  1.48731906540654  0.30144490769077
 6  20.43308466226623  2.47272556975698 -0.89074006670667
 6  21.15381631243124  1.94652758905891  1.48860422382238
 1 -4.05843732823282  3.62881840324032  1.49726431333133
 1 -10.01050144284429  4.03912474747475 -0.54020941244124
 1 -10.44529781918192 -2.56992633343334 -1.12828948114812
 1 -2.76802325922592 -1.18855716961696  1.96437712891289
 1 -2.09425303050305  1.63977756035604  1.04228487888789
 1 -2.18398285578558  0.92289274217422  3.74098781228123
 1 -3.08592365236524  2.56052010951095  3.46100826622662
 1 -3.61712515521552  0.76350103410341  3.71036344914491
 1 -2.08611109600960 -1.65434539493949 -0.17364127332733
 1 -2.33833550605060  0.00274752515252 -0.59825986558656
 1 -0.55985950335034  0.64432904680468  0.77000739983998
 1 -0.23870167216722 -0.81771628682868  1.49157311251125
 1 -5.53030180558056  6.83393203730373  0.42192790199020
 1 -5.72871986138614  6.31570493359336  2.17266356345635
 1 -4.40124408040804  5.56190735713571  1.11042421802180
 1 -9.45709776227623  6.11988813691369 -0.39625985418542
 1 -9.09420063596360  7.93262400130013  0.63069269106911
 1 -7.58618808460846  7.30062646214621  1.53510189568957
 1 -12.13864796989699  2.97537786378638 -1.96894989968997
 1 -13.35797546674667  1.91213510471047 -1.33854504600460
 1 -12.45873760486049  3.22654130883088 -0.35391663566357
 1 -12.77014179257926 -1.62252169726973 -1.00360531543154
 1 -13.34366308520852 -0.23047978477848 -1.65568109560956
 1 -13.20426677927793 -1.87785247144714 -3.54658454295430
 1 -12.34737830203020 -0.26440097769777 -3.63830732643264
 1 -11.51061734103410 -1.67277214431443 -3.24797341734173
 1 -8.98261786478648 -4.61969271217122 -1.85522878697870
 1 -8.03684304910491 -5.79587959215922 -0.63989360236024
 1 -9.68455834073407 -4.92021704300430 -0.11578340094009
 1 -3.43138383428343 -3.51701495219522 -0.16215148664867
 1 -1.32632079857986 -4.68639507920792  3.22525544084408
 1 -2.81885149374937 -5.39709132673267  3.82085492439244
 1 -1.64102221372137 -6.20262953615362  2.51164511741174
 1  2.63789309340934 -1.69163099899990 -1.86831079607961
 1  2.61971944954495  0.14011829142914 -2.14922807500750
 1  4.47316822242224 -1.21965418061806  0.30578379437944
 1  3.99545850935094  1.35484419481948 -2.21909027872787
 1  5.53995940764076  2.17154741364136 -2.20015648384838
 1  5.31737904550455  0.45956706420642 -3.11946067706771
 1  6.44513657655766  1.00852485248525  0.40945358815882
 1  6.39228334773477 -0.57780581798180  0.67911762846285
 1  7.37744512921292 -1.32195143034303 -1.43932525612561
 1  7.67536997289729  0.27961116921692 -1.77146006960696
 1  9.11308335993599  0.75891377637764  0.31679931213121
 1  8.80113860256026 -0.72704821102110  0.57684554825483
 1  10.47305485688569  0.06820935863586 -1.89805469496950
 1  9.32179716521652 -2.32969094559456 -1.93382930773077
 1  11.21758431413141 -2.44337112101210 -1.69880412431243
 1  10.01997488348835 -2.58896083808381 -0.45716515621562
 1  11.44828250915092  0.63190542074207  0.43837532503250
 1  11.54459751315132 -1.07778373967397  0.86235685728573
 1  13.13637695659566 -1.64008216941694 -1.23353102070207
 1  12.69841359385939 -0.05998530753075 -1.79078243954395
 1  13.82082351905191  1.11903445944594  0.10321766476648
 1  14.04617737083708 -0.55688529322932  1.21577809430943
 1  15.44049733823382  0.18328781378138 -1.33754811281128
 1  15.86513395629563 -2.44399469156916  0.13469201530153
 1  15.10696374707471 -2.10981335693569 -1.52692010711071
 1  16.74392402180218 -1.84629015391539 -1.32246371587159
 1  15.80794599529953  1.58583641734173  0.42269881418142
 1  16.58001244844484  0.01018184308431  1.59457221842184
 1  18.27585852455245 -0.33993054045404 -0.38789212961296
 1  17.77919498399840  1.13287060596060 -1.16553012881288
 1  18.51246203880388  2.30112427012701  1.28871687698770
 1  18.75321248154816  0.59897407840784  1.80924092439244
 1  20.76845175787579  0.43138928712871 -0.04858779477948
 1  20.12775688228823  3.50622418431843 -0.62190578397840
 1  21.34493874597460  2.54501115391539 -1.15855721902190
 1  19.79626353075308  2.28253006380638 -1.77284425342534
 1  21.12032800800080  1.41896000510051  2.49018863606361
 1  22.07112881918192  2.13696492619262  1.13024799109911
 1  20.91444117401740  3.08946903020302  1.74896533703370

