%nproc=4
%Mem=2GB
# td=(NStates=1) CAM-B3LYP/6-31G(d,p) 

TD

0 1
12 -7.14001457445745  0.69504825292529  0.04747243464346
 6 -4.87705232323232 -1.86388756715672  0.46721325402540
 6 -4.85003493239324  2.85439388668867  1.04676104100410
 6 -9.48364309980998  3.13355885138514 -0.50849370907091
 6 -9.57886820052005 -1.77060257125713 -0.80294672377238
 7 -5.08898232283228  0.57110692879288  0.62434285258526
 6 -4.30289999609961 -0.62256207820782  0.77386540974097
 6 -2.88747775317532 -0.32258168386839  1.22385273947395
 6 -3.01966540494049  1.16024869316932  1.59512024272427
 6 -4.44033102800280  1.59474022282228  1.03973100300030
 6 -2.88964404650465  1.27347963606361  3.09239064796480
 6 -1.75510897189719 -0.70445570697070  0.18982294059406
 6 -0.36490391299130 -0.41120546774677  0.66989111841184
 6  0.55974711191119 -0.81501501440144 -0.47086246674667
 8  0.28100934103410 -1.19656506410641 -1.61938827052705
 8  1.84020583108311 -0.60237763416342 -0.07809459835984
 7 -7.22355280318032  2.61254684448445  0.33267196269627
 6 -6.10088936793679  3.43948492429243  0.75532906650665
 6 -6.52327958105811  4.82111640104010  0.70977166436644
 6 -7.79881258825883  4.80551118261826  0.27670606190619
 6 -8.25129940154016  3.47997719301930  0.12429497579758
 6 -5.59740769746975  5.91003346924693  1.15140990149015
 6 -8.75455325292529  5.88978001170117  0.16558354375438
 6 -8.71279517081708  7.06089220782078  0.86449269906991
 7 -9.07482975557556  0.74047690879088 -0.38662269596960
 6 -9.96147240694069  1.79689964306431 -0.68249457355736
 6 -11.24658375497550  1.40215855495550 -1.11472319181918
 6 -11.26019842374237  0.00284564866487 -1.23390210421042
 6 -9.92920860156016 -0.38085005930593 -0.71360637673767
 6 -12.34380320402040  2.48703927492749 -1.38929570437044
 6 -12.35811035733573 -0.92364977507751 -1.74110491899190
 6 -12.16679416781678 -1.05326773797380 -3.32555767436744
 7 -7.25936540484048 -1.31817143074307 -0.12591726872687
 6 -8.23777401720172 -2.21068624072407 -0.60676563176318
 6 -7.72627877347735 -3.55810407790779 -0.52970024732473
 6 -6.51045492959296 -3.48069240624062 -0.02881461336134
 6 -6.22655525192519 -2.06218449974998  0.18775157935794
 6 -8.68018548594859 -4.76785962836284 -0.80359883828383
 6 -5.29524399469947 -4.31616550005000  0.17916078867887
 8 -5.12765160306031 -5.54548903230323  0.02182921362136
 6 -4.17123070247025 -3.23355914571457  0.49460932623262
 6 -3.55800643154315 -3.64343956525653  1.89404977787779
 8 -3.77431903250325 -3.17579431563156  2.98036071717172
 8 -2.66623781748175 -4.60819554195420  1.68859744064406
 6 -2.04470505840584 -5.06956118521852  2.88575351085109
 6  2.92751526322632 -0.93190098469847 -1.01127232763276
 6  4.20032212121212 -0.54153232953295 -0.38382853185319
 6  5.17212069646965  0.29493575897590 -0.86007578027803
 6  5.06308473147315  1.06396904620462 -2.05173933923392
 6  6.52616694949495  0.42345419561956 -0.21165765096510
 6  7.73469100700070 -0.17886823372337 -0.99992694319432
 6  8.97298917151715 -0.25758088848885 -0.03336514931493
 6  10.17010763526353 -0.57679475117512 -0.96596756725673
 6  10.08349504970497 -1.99581051715171 -1.42067553255326
 6  11.51028390529053 -0.30625440624062 -0.12388151955195
 6  12.75495040274027 -0.60810486158616 -0.83085310821082
 6  13.94479394779478 -0.20006120892089  0.08092516001600
 6  15.34619074397440 -0.24018774787479 -0.51694993479348
 6  15.79929159805981 -1.64125175897590 -0.90214983268327
 6  16.42579668556856  0.32580694069407  0.40878538573857
 6  17.75346993639364  0.67174857325733 -0.19466528112811
 6  18.74022439193919  1.31492970997100  0.87885831883188
 6  20.18412708190819  1.37193752725273  0.24970973417342
 6  20.25439679347935  2.23041133833383 -1.10560155285529
 6  21.20377130793079  1.95161809810981  1.27481284468447
 1 -4.02435391989199  3.56981250265027  1.25157974487449
 1 -10.16351674437444  4.16257709270927 -1.06396178767877
 1 -10.34328761816182 -2.40567990879088 -1.16810346254626
 1 -2.76319277617762 -1.03959227312731  1.99393008420842
 1 -2.33003660886089  1.79644322692269  1.06414706510651
 1 -1.87965242274227  1.17353780668067  3.38834254775477
 1 -3.08451351135114  2.54042810031003  3.37138930433043
 1 -3.81507495019502  0.74223890789079  3.46306871967197
 1 -1.91148363326333 -1.65281524192419 -0.56100000920092
 1 -1.87967964046405 -0.00118286788679 -0.71136117571757
 1 -0.25167868526853  0.53428804270427  1.19096949604960
 1 -0.03988179017902 -1.19745426062606  1.43787774297430
 1 -6.00677945334533  6.83914255835584  0.80734644384438
 1 -5.49963695309531  5.96940030313031  2.20873717081708
 1 -4.62679663566357  5.70779194559456  0.72597577317732
 1 -9.26777883038304  5.87108325642564 -0.75115534373437
 1 -9.43445466136614  7.83850458935894  0.69032865466547
 1 -8.12627209300930  7.36541294079408  1.70769915541554
 1 -12.00691479657966  3.33262358835884 -2.07542054675468
 1 -13.33915358455845  2.09405329652965 -1.68455964746475
 1 -12.48531026212621  3.08369702440244 -0.52001324532453
 1 -12.44302908130813 -1.85149459455946 -1.26318127302730
 1 -13.41460017891789 -0.57272400920092 -1.49661518901890
 1 -13.05634198679868 -1.51116580278028 -3.56781666616662
 1 -12.35887945214522 -0.02440697829783 -3.81149464516452
 1 -11.41926820612061 -1.61925679277928 -3.64650327032703
 1 -9.02309191219122 -4.81963270617062 -1.78527179127913
 1 -8.13014237903790 -5.71331133533353 -0.82872248524853
 1 -9.67911779667967 -4.82964798609861 -0.15707753035304
 1 -3.31297199309931 -3.16049930063006 -0.21794706620662
 1 -1.43021118761876 -4.29042548224822  3.57964087938794
 1 -3.01296090469047 -5.47546916451645  3.36890972987299
 1 -1.33178128962896 -5.94962423562356  2.60494444734473
 1  2.79529883398340 -1.95471730763076 -1.31793575857586
 1  2.64972244984498 -0.53197891829183 -2.06197935013501
 1  4.49663056865687 -1.09729194439444  0.41057427342734
 1  4.06664562806281  1.12138084848485 -2.31969033873387
 1  5.76720213191319  1.90509076797680 -1.90876734493449
 1  5.45125243284328  0.41456256375638 -3.01265999699970
 1  6.86473853675368  1.47761176117612 -0.01025838303830
 1  6.46476059545955 -0.04846288368837  0.92505222192219
 1  7.56511389608961 -1.34690392559256 -1.24857618121812
 1  7.91081351725173  0.27735094319432 -1.90661358495850
 1  9.23560561216122  0.75749363436344  0.65655328752875
 1  8.96022451115111 -1.15267077327733  0.73596145984598
 1  10.31407895929593  0.25289782748275 -1.88080296979698
 1  9.25019000450045 -2.25210318681868 -2.01395732053205
 1  11.08503105880588 -2.57643442734273 -1.65108935283528
 1  9.80656354235424 -2.39593153515352 -0.46462590229023
 1  11.60381806270627  0.84838706890689  0.12346383388339
 1  11.35101815521552 -0.65912187348735  0.98249887148715
 1  12.82500581948195 -1.59155731693169 -1.27899556715672
 1  12.82262601510151  0.09076976797680 -1.91487484878488
 1  13.71021245794580  0.74782733873387  0.56177352035204
 1  13.92560531363136 -1.00518012271227  0.96013252975298
 1  15.42785607410741  0.39347883288329 -1.44498885688569
 1  15.85264270717072 -2.32860315241524 -0.22297375127513
 1  15.03112616331633 -1.85838821442144 -1.50205762086209
 1  16.57264689408941 -1.55398092299230 -1.78289975947595
 1  16.13499870057006  1.18172600630063  0.79673621792179
 1  16.69334378157816 -0.45300447554755  1.10170293149315
 1  18.15898683738374 -0.40780732813281 -0.52734607500750
 1  17.92886995149515  1.57304462336234 -0.98444202000200
 1  18.25033582618262  2.42645680338034  0.97448545384538
 1  18.62383954425443  0.82692687368737  1.87364736503650
 1  20.41363627632763  0.40413656185619 -0.07691062706271
 1  19.76255036163616  3.24288785068507 -0.89582317571757
 1  21.29990424252425  2.44053070587059 -1.10353171647165
 1  19.79280318471847  1.72977478827883 -2.01504847384738
 1  21.40049602480248  1.13730183928393  2.17128674587459
 1  22.23234494079408  2.07550878057806  0.94386935323532
 1  20.79726945684569  3.00399048234824  1.89171961246125

