%nproc=4
%Mem=2GB
# td=(NStates=1) CAM-B3LYP/6-31G(d,p) 

TD

0 1
12 -7.24501507450745  0.57006575467547  0.10812850025003
 6 -4.86278089608961 -1.92684386278628  0.50899743244324
 6 -4.73707363626363  2.90582903020302  1.07491385628563
 6 -9.38074280978098  3.09957545304530 -0.44160702040204
 6 -9.52127244094410 -1.72788829982998 -0.75641207030703
 7 -5.07056048064806  0.51621143924392  0.69119953825383
 6 -4.33561326742674 -0.66956677867787  0.75791381458146
 6 -2.93029203460346 -0.40277970367037  1.15708606280628
 6 -3.00487392579258  1.17009967826783  1.63172390309031
 6 -4.33152014691469  1.50001074987499  1.07412444234423
 6 -2.95643072517252  1.26165845394539  3.11226263516352
 6 -1.91068452945295 -0.68701396279628  0.12722668096810
 6 -0.41324874747475 -0.47191153835384  0.60134426372637
 6  0.55536667386739 -0.67727124002400 -0.55911129162916
 8  0.11271251135114 -0.99371477907791 -1.75468179987999
 8  1.76651846234623 -0.46104350075008 -0.18510529942994
 7 -7.04267471537154  2.60535612541254  0.16739543504350
 6 -6.02495177417742  3.43103407920792  0.70197373097310
 6 -6.35710296339634  4.80815510491049  0.73879456665667
 6 -7.73911661866187  4.80306093759376  0.26649504080408
 6 -8.09702397399740  3.53543273857386 -0.04453190689069
 6 -5.52363031973197  5.89955242114211  1.13616837733773
 6 -8.61784958255826  5.94840587428743  0.20855784118412
 6 -8.62860675197520  7.14965108370837  0.75304155395540
 7 -9.14429670227023  0.59104196529653 -0.48725275897590
 6 -9.85741200090009  1.75058501160116 -0.62078840294029
 6 -11.24093318991899  1.45936427552755 -1.14799651915192
 6 -11.24883728762876  0.02194755885589 -1.17678639263926
 6 -9.91564724542454 -0.42575454975498 -0.76497151325133
 6 -12.32116093979398  2.38983955495550 -1.36528330313031
 6 -12.23998854515452 -0.76297370747075 -1.76331714021402
 6 -12.38249573797380 -0.91257366856686 -3.32139725832583
 7 -7.18733820212021 -1.37073668726873 -0.07776245324532
 6 -8.35608584838484 -2.27098227032703 -0.39629458465847
 6 -7.81779792539254 -3.59139740724072 -0.40810808810881
 6 -6.34604848894890 -3.56820115711571 -0.07263899579958
 6 -6.17142973937394 -2.23409169046905  0.09424222842284
 6 -8.47295476287629 -4.91557439983998 -0.76843532193219
 6 -5.29336380668067 -4.38918280178018  0.26559943254325
 8 -5.08066690459046 -5.54225870927093  0.13188021872187
 6 -4.14038761816182 -3.26285207500750  0.61023088838884
 6 -3.42043267416742 -3.65301052235224  1.84490486338634
 8 -3.66552815341534 -3.12035877207721  2.83783646474647
 8 -2.67486868056806 -4.66896161856186  1.73060164106411
 6 -1.99907049494949 -5.12482671177118  2.97647258275828
 6  2.83723623532353 -0.56033382798280 -1.18804000440044
 6  4.12140422942294 -0.33164134043404 -0.50114026302630
 6  5.14777826222622  0.43245951135113 -0.86814658735874
 6  5.11410983398340  1.38232088138814 -2.07616178147815
 6  6.42383671647165  0.38288013821382 -0.08230471567157
 6  7.57709524742474 -0.16473682058206 -0.91790874137414
 6  8.92741461406141 -0.12217734813481 -0.07780959375938
 6  10.14970559505950 -0.61953902560256 -0.91798276877688
 6  9.94368106830683 -2.12263319941994 -1.43105657065707
 6  11.39087196409641 -0.28152193299330 -0.13085221662166
 6  12.76503141084108 -0.52595664676468 -0.81147117001700
 6  13.84610407880788 -0.16443764656466  0.09631669916992
 6  15.35774189908991 -0.32773650275027 -0.45997423722372
 6  15.72058372727273 -1.75190282408241 -0.91820143784378
 6  16.29736384228423  0.35270963096310  0.44645915311531
 6  17.68626321572157  0.51907330573057 -0.13726954155416
 6  18.70000036953695  1.28380659765977  0.87552798579858
 6  20.22359102830283  1.34597493099310  0.31975673887389
 6  20.15181653545354  2.20617891509151 -1.06702769546955
 6  21.32975390619062  1.90934387068707  1.25955131853185
 1 -3.98387987248725  3.75140066146615  1.46757134403440
 1 -10.05696608930893  3.98274910991099 -0.53762915441544
 1 -10.23147643704371 -2.32222156295630 -1.19969662186219
 1 -2.71088754565457 -0.86618493239324  2.11813250445045
 1 -2.20257386258626  1.59808339093909  1.28797944834483
 1 -1.91698615611561  1.09400985388539  3.53648736223622
 1 -2.84491955195520  2.35243930143014  3.32905507090709
 1 -3.64511795449545  0.86492117611761  3.98816122892289
 1 -1.93200568546855 -1.72990295069507 -0.52696660586059
 1 -1.95840751325132  0.18609585998600 -0.59079911951195
 1 -0.31644516191619  0.44973958785879  1.14945534463446
 1 -0.26751455345535 -1.31423593879388  1.34957891309131
 1 -5.88524730013001  6.72770141424142  0.35223093229323
 1 -5.68916590599060  6.05467883098310  2.27247354445445
 1 -4.48638259425943  5.79702086848685  1.00420359595960
 1 -9.40751280378038  5.57304345244524 -0.46590681888189
 1 -9.47718893479348  7.82115285418542  0.62278189999000
 1 -7.84390385618562  7.28629502900290  1.59711809730973
 1 -12.01979608470847  2.91525185118512 -2.24841784648465
 1 -13.24684435363536  1.80946483768377 -1.60008119961996
 1 -12.67860959205921  2.96217487218722 -0.45346659065907
 1 -12.31621640004001 -1.86400584568457 -1.54919987488749
 1 -13.14753347224723 -0.21404814161416 -1.41783731123112
 1 -13.31548790139014 -1.52545723192319 -3.68212809730973
 1 -12.19164272847285  0.02013747614761 -3.95326882258226
 1 -11.50585686498650 -1.43756862396240 -3.61350997099710
 1 -8.66294589758976 -4.94752549544955 -1.88438170227023
 1 -7.87549691449145 -5.98327833203320 -0.44189380238024
 1 -9.39847973287329 -5.03346836813681 -0.20418224082408
 1 -3.59560025592559 -3.20146339703970 -0.31858713021302
 1 -1.65357352385238 -4.25618205790579  3.60812372767277
 1 -2.70495010361036 -5.84111572917292  3.57273011191119
 1 -1.20382849434943 -5.78261753495349  2.56143009590959
 1  3.06013531763176 -1.50134197009701 -1.56742070707071
 1  2.67261473907391  0.19890417001700 -2.06033918611861
 1  4.41353225882588 -0.89603181838184  0.30153336933693
 1  4.03069203270327  1.37037574797480 -2.35220359005901
 1  5.47156256795679  2.40203046194619 -1.83226969516952
 1  5.77259456705671  1.02321342884288 -2.94893362436244
 1  6.58275033793379  1.43654765476548  0.16644928772877
 1  6.23424754415442 -0.25461349874988  0.79711942864286
 1  7.37232461716172 -1.15622485768577 -1.15093641724172
 1  7.68879131503150  0.30870407850785 -1.85924884848485
 1  9.36763881548155  0.88261614661466  0.23580121232123
 1  8.78500698939894 -0.79919542574257  0.65020288398840
 1  10.04092164356436  0.00596313401340 -1.90716560606061
 1  8.90364535003500 -2.29144712121212 -2.15318124292429
 1  10.83124568026803 -2.54216100000000 -1.88727297119712
 1  9.67489037503750 -2.77333927592759 -0.62746218591859
 1  11.28704638553855  0.81786401660166  0.06328781628163
 1  11.29342239563957 -0.80780674197420  0.85725634723472
 1  12.69544286318632 -1.51586974817482 -1.24733240084008
 1  12.64627838033803 -0.19256856585659 -1.66511987328733
 1  13.65496693339334  0.79771232723272  0.29772711571157
 1  13.91327408050805 -0.81518112281228  1.14039055555556
 1  15.28064135263526  0.46707619261926 -1.47065142314231
 1  15.73944138703870 -2.53904419651965  0.06992553865387
 1  14.98011106180618 -2.07972034763476 -1.71809922502250
 1  16.63881351075108 -1.68324384928493 -1.29582105160516
 1  15.77567276797680  1.31480931463146  1.02944948924892
 1  16.46181062826282 -0.14998417351735  1.38009077027703
 1  18.06498743744374 -0.46459300670067 -0.48231157155716
 1  17.55365242974298  1.03564088298830 -1.04932850865087
 1  18.32288308090809  2.49040319801980  1.14523252855286
 1  18.86388354865487  0.50425460646065  1.91434143444344
 1  20.76378129082908  0.40513666186619  0.08784584858486
 1  19.85483959055905  3.20466402830283 -0.81763535693569
 1  21.23931818391839  2.31113776657666 -1.37940930423042
 1  19.63480738513852  1.71922373317332 -1.78091506050605
 1  21.20704667986799  1.31764987408741  2.22744236143614
 1  22.20024173047305  1.66448767846785  0.85026999329933
 1  21.01456118601860  2.87128721202120  1.45407584808481

