%nproc=4
%Mem=2GB
# td=(NStates=1) CAM-B3LYP/6-31G(d,p) 

TD

0 1
12 -7.17466803980398  0.60372912101210  0.15674336173617
 6 -4.79706432443244 -2.02472365076508  0.48272480518052
 6 -4.80232016091609  2.82729117641764  1.10921728662866
 6 -9.44280901640164  3.11110660616062 -0.36841970167017
 6 -9.61089140284028 -1.73720923192319 -0.77148357745775
 7 -5.14368779337934  0.38519833793379  0.80376079437944
 6 -4.37835754185419 -0.71405122712271  0.82315033823382
 6 -2.91817082248225 -0.37378680438044  1.24717507170717
 6 -2.92610604900490  1.07185985428543  1.57182791349135
 6 -4.42040903580358  1.52856360516052  1.13375040494049
 6 -2.61057613971397  1.48731101920192  3.09293070197020
 6 -1.86933039403940 -0.68034329572957  0.07863182148215
 6 -0.58629605220522 -0.39573392059206  0.55594972427243
 6  0.48340947814781 -0.66631014391439 -0.56657203770377
 8  0.19599083918392 -1.04477988558856 -1.65994232593259
 8  1.77866967746775 -0.41719911631163 -0.26406319521952
 7 -7.13809425732573  2.62799838963896  0.34226292179218
 6 -6.07961724072407  3.32324330013001  0.84280781438144
 6 -6.36819407250725  4.69642393179318  0.76688737593759
 6 -7.66629933693369  4.82148277977798  0.33514190549055
 6 -8.19455372697270  3.48407760306031  0.05775832213221
 6 -5.43311126782678  5.89980244614461  1.01778653915392
 6 -8.49701749934993  6.05459649334934  0.10490747614761
 6 -8.37260115141514  7.22054817341734  0.85771202100210
 7 -9.12548482108211  0.71246410751075 -0.57460149384938
 6 -9.87482374207421  1.80326027912791 -0.67900422452245
 6 -11.23233232983298  1.47043538263826 -1.15548726822682
 6 -11.22932533643364  0.09724508860886 -1.15358407240724
 6 -9.96708238893889 -0.40008198249825 -0.78270328642864
 6 -12.30758958265826  2.46289686068607 -1.40663743854385
 6 -12.46505105140514 -0.74377178727873 -1.70630143864386
 6 -12.37643513191319 -1.09213162436244 -3.27334245284528
 7 -7.27186665496550 -1.40241985558556 -0.15559023602360
 6 -8.27082732253225 -2.25399057115712 -0.47883283848385
 6 -7.89373551915192 -3.70320858835884 -0.50673795109511
 6 -6.47441132523252 -3.58180251725173 -0.12484421632163
 6 -6.16677927432743 -2.22396067736774  0.10047285148515
 6 -8.65664313171317 -4.92162500490049 -0.84166264466447
 6 -5.36189065936594 -4.37981186468647  0.16993986658666
 8 -5.28542738063806 -5.60794527792779  0.20613764446445
 6 -4.20717429682968 -3.40473626342634  0.46288615391539
 6 -3.61385201610161 -3.72947816911691  1.83148352125213
 8 -3.69486108670867 -3.14042077827783  2.95965864696470
 8 -2.78056925062506 -4.83414813721372  1.75167374827483
 6 -2.30521110901090 -5.25303953305330  3.06753168866887
 6  2.78266077777778 -0.58402619721972 -1.24579577997800
 6  4.14958704770477 -0.39311748804881 -0.77320746974697
 6  5.08200168456846  0.37174343974397 -1.03886365906591
 6  5.08198662166217  1.25843849314931 -2.24931909720972
 6  6.39255358815882  0.29562141234123 -0.34686117131713
 6  7.64840237813781 -0.24590493739374 -0.98889584008401
 6  9.01269314191419  0.08107297689769 -0.28268008080808
 6  10.31424204870487 -0.46558363006301 -0.99052002250225
 6  10.15804250445044 -2.05016595269527 -1.13551701670167
 6  11.47472034893489 -0.10429421022102 -0.05421455285529
 6  12.75564047174717 -0.37594164526453 -0.71966198909891
 6  13.93588305670567 -0.01694289708971  0.28250531803180
 6  15.37062318721872 -0.05287901700170 -0.36340458025803
 6  15.70902257115712 -1.60399803360336 -0.86492611031103
 6  16.49790389628963  0.28538289828983  0.62022652985299
 6  17.83750834023402  0.49172057045705 -0.09806562116212
 6  18.88461883138314  1.08613683068307  0.81364179717972
 6  20.25617428662866  1.31312164566457  0.26370113331333
 6  20.20784213801380  2.08952724992499 -1.14148514121412
 6  21.24759569036904  2.00402333863386  1.23152851625163
 1 -4.18322980748075  3.57403292469247  1.43360794769477
 1 -10.10301069376938  3.93558439343934 -0.47884327582758
 1 -10.34850814021402 -2.39588892969297 -0.93741039323932
 1 -2.50396685358536 -1.06416473037304  2.08009870107011
 1 -2.06651025622562  1.31609519211921  0.79188983938394
 1 -1.63023748124812  1.17758821172117  3.41146485998600
 1 -2.77001206120612  2.45524958245825  3.07985015041504
 1 -3.38956239893989  0.84473915791579  3.66324873767377
 1 -1.97458994389439 -1.71996195659566 -0.25576948614861
 1 -2.33640531303130 -0.05854860446045 -0.79649968956896
 1 -0.85593911131113  0.68875348924892  0.78773917301730
 1 -0.34238204020402 -0.91467598279828  1.45542949814982
 1 -5.58654743014301  6.84449309340934  0.17147285648565
 1 -5.59985697509751  6.29422278537854  1.94954125122512
 1 -4.26444040004000  5.70556172257226  0.93747692329233
 1 -9.33190524302430  6.02622877097710 -0.60184041224122
 1 -9.09980119601960  8.11358209710971  0.74924454625463
 1 -7.60071953775378  7.24248064756476  1.59704809030903
 1 -11.93955806090609  3.22184251025103 -2.13382638733873
 1 -12.99421909110911  1.96609050025002 -1.88716990849085
 1 -12.52103383448345  3.13817247194719 -0.40413165716572
 1 -12.49433421182118 -1.81308075317532 -1.25668062296230
 1 -13.31971068996900 -0.25881261806181 -1.51065659315932
 1 -13.04822117471747 -1.93077776397640 -3.42705258975898
 1 -12.23722728692869 -0.25696023362336 -3.97756125182518
 1 -11.33695997529753 -1.62492735983598 -3.37830645064506
 1 -9.15151475447545 -5.13171391429143 -1.89395265936594
 1 -7.91471083588359 -5.74758476267627 -0.84648426142614
 1 -9.50318020292029 -5.36747176847685 -0.15814763736374
 1 -3.40217091299130 -3.58845209590959 -0.15108037953795
 1 -1.64486265276528 -4.57492393209321  3.41758467376738
 1 -3.01502111071107 -5.48369998759876  3.58587142604260
 1 -1.46320443194319 -5.97009628282828  2.74123807670767
 1  2.53944324842484 -1.74181601750175 -1.58264222922292
 1  2.57055453305331  0.14048832843284 -2.18422157435743
 1  4.34000490609061 -1.07902011721172 -0.05231201520152
 1  4.11031999549955  1.31869057945794 -2.74352272197220
 1  5.30650606230623  2.22820307920792 -1.99876634483448
 1  5.80169747734773  1.06949805730573 -3.32041077207721
 1  6.68141020392039  1.23429742974297 -0.17582493969397
 1  6.14479859925993 -0.25121315871587  0.52388210491049
 1  7.52119950465046 -1.34972420762076 -1.24457578117812
 1  7.64635707160716  0.13637684578458 -1.94596752035203
 1  8.95839789138914  1.33605149014902 -0.20035240304030
 1  9.08078656735674 -0.35581108730873  1.03511137483748
 1  10.52397994939494 -0.02153961626163 -1.92745763526353
 1  9.22570755625562 -1.99576755325533 -1.56318224302430
 1  10.94791734743474 -2.42117890179018 -1.80050429432943
 1  10.19587247324733 -2.52214415641564  0.05307586788679
 1  11.42388006890689  0.99477170737074  0.13095458295830
 1  11.26449950335034 -0.56629259055906  0.98363898549855
 1  12.95164848374838 -1.38126628782878 -1.22707037463746
 1  12.87865161766176  0.22879357035704 -1.70268362966297
 1  13.82862429912991  0.89601215721572  0.96027337033703
 1  14.03556630973097 -0.91528113281328  1.07312382888289
 1  15.28557184568457  0.58131761676168 -1.21649600760076
 1  15.88424586748675 -2.14250454255426  0.10673922002200
 1  14.90663371407141 -2.16453882948295 -1.32531994709471
 1  16.65695532493249 -1.60209573447345 -1.72661413091309
 1  16.06650185088509  1.34515234893489  1.16702324662466
 1  16.62838728592859 -0.52936211131113  1.27844060526053
 1  18.24316525522552 -0.42779932733273 -0.56578991939194
 1  17.71754881938194  1.20342766166617 -0.99483305910591
 1  18.35151594419442  2.12843700140014  1.05746375167517
 1  18.98128528882888  0.70677485848585  1.78603860416042
 1  20.55192010471047  0.31377752595260  0.07759482348235
 1  19.44994910151015  3.01811537343734 -0.76492008540854
 1  21.20127437953795  2.44338099089909 -1.39074043734373
 1  19.81233513791379  1.45905771657166 -1.84174114311431
 1  21.51633760896090  1.29722783188319  2.32244186138614
 1  22.23293499979998  2.04995622532253  0.87439240554055
 1  20.95794552445245  3.00384046734674  1.85477591809181

