%nproc=4
%Mem=3GB
# td=(NStates=1) iop(3/107=0140000000,3/108=0140000000) CAM-B3LYP/6-31G(d,p) 

TD

0 1
12 -7.08825351705171  0.61360974447445  0.19585595559556
 6 -4.83852266876688 -2.02020925152515  0.46906230863086
 6 -4.72080811141114  2.81975069296930  1.30788089328933
 6 -9.30041680618062  3.10749830283028 -0.43099557485749
 6 -9.49890598859886 -1.69812157785779 -0.95026183108311
 7 -5.13030006120612  0.41276736733673  0.80013783778378
 6 -4.39909215651565 -0.74892603580358  0.92665055975598
 6 -2.99077529812981 -0.45676407440744  1.35059072817282
 6 -3.04300752765277  1.01251995359536  1.76808308760876
 6 -4.40567080178018  1.38657330843084  1.30780517441744
 6 -2.99043522432243  1.05244806410641  3.26568188278828
 6 -1.93677940764076 -0.60927691689169  0.17104091439144
 6 -0.46775248444844 -0.42131537953795  0.60449383168317
 6  0.43044496769677 -0.73613023492349 -0.54137392749275
 8  0.17881809860986 -1.01106488418842 -1.62059945304530
 8  1.72206080448045 -0.46588652705271 -0.14770015761576
 7 -7.01297894129413  2.58500171007101  0.41814273837384
 6 -5.95765590939094  3.36231999939994  0.83509938603860
 6 -6.26927183558356  4.76362322592259  0.69597785648565
 6 -7.64274906020602  4.89517132233223  0.30770689708971
 6 -8.09763929142914  3.44887182598260  0.15270326892689
 6 -5.35665769966997  5.94691416511651  0.96898705390539
 6 -8.41716172417242  6.03380364996500  0.17358797129713
 6 -8.16158456845685  7.19400855055506  0.60648470777078
 7 -9.07486652775277  0.66405339973997 -0.64218079197920
 6 -9.83923140944094  1.79507283158316 -0.76849966346635
 6 -11.12979693239324  1.59658910341034 -1.23250811051105
 6 -11.24334382158216  0.21973951975198 -1.38098812711271
 6 -9.93675127872787 -0.30927112051205 -1.02364456575658
 6 -12.19047998569857  2.61362660406041 -1.44741419411941
 6 -12.33113690659066 -0.76838296209621 -1.78930826142614
 6 -12.07086899579958 -1.08213840614061 -3.27426807800780
 7 -7.21167412981298 -1.35741057675768 -0.24310698579858
 6 -8.27864219051905 -2.20270881638164 -0.60964254415442
 6 -7.88899093889389 -3.60258080948095 -0.55028532833283
 6 -6.47071486198620 -3.51479446154615 -0.11737381908191
 6 -6.17985171687169 -2.18792674847485  0.06907874327433
 6 -8.77213955345535 -4.76146224462446 -0.79181256435644
 6 -5.37157262016202 -4.29689325272527  0.14311928602860
 8 -5.34327531983198 -5.56074293129313  0.20938688728873
 6 -4.23816831943194 -3.38744619201920  0.56406472807281
 6 -3.67663183998400 -3.77842578527853  1.96214218271827
 8 -3.75868865226523 -3.22025938383838  3.07732109030903
 8 -2.80986633943394 -4.83844246274627  1.73056209370937
 6 -2.29055801280128 -5.41837704360436  3.00888828922892
 6  2.74594091449145 -0.61179946884688 -1.21220473767377
 6  4.10759164436444 -0.38240350825082 -0.48209077187719
 6  5.17083257455746  0.36720324832483 -0.91947482448245
 6  5.06844056965696  1.18756643194319 -2.28096223122312
 6  6.37798407710771  0.38475909190919 -0.19588011241124
 6  7.64469592219222 -0.28283683168317 -0.89091942064206
 6  8.90150786238624 -0.09502131823182 -0.19318542094209
 6  10.08993445404541 -0.63819548274827 -0.93755947594759
 6  10.14345762236224 -2.14015189508951 -1.33991095709571
 6  11.38632329612961 -0.30902579367937 -0.06848481098110
 6  12.78515625112511 -0.31939197269727 -0.72311981708171
 6  13.98037930973097 -0.09930564486449  0.22102851445145
 6  15.33032902390239 -0.12303138673867 -0.47702335483548
 6  15.58308457945795 -1.54459284758476 -1.01550337663766
 6  16.41858885158516  0.37011352865287  0.46234096879688
 6  17.70396798449845  0.56278000760076 -0.20580710771077
 6  18.66678709730973  1.41180925942594  0.63932718941894
 6  20.16860966536654  1.43258269076908  0.19819652565257
 6  20.28663150895090  2.34936224132413 -1.07649234513451
 6  21.19479454645465  1.84481618151815  1.29441338133813
 1 -3.91486184968497  3.27814106550655  1.79920601640164
 1 -9.81526364966497  3.96460873537354 -0.55527005320532
 1 -10.24089851395139 -2.50450598569857 -1.24674249364937
 1 -2.64583187038704 -1.10834103680368  2.15594208490849
 1 -2.23076654295430  1.62221428252825  1.51787543654365
 1 -2.07398048444844  0.55907501390139  3.55092542994299
 1 -2.93385049414941  2.01961118391839  3.64434245644564
 1 -3.85285808630863  0.48348350265027  3.72207389258926
 1 -1.84080919991999 -1.57712838363836 -0.16762476957696
 1 -2.30082645164516  0.10701832163216 -0.48307504210421
 1 -0.06565199389939  0.39237882518252  1.05667953095310
 1 -0.23243166346635 -1.22164293089309  1.28088154645465
 1 -5.33321749944994  6.45661317331733  0.15303513481348
 1 -5.42264373567357  6.59915279667967  1.87504951745175
 1 -4.28367321192119  5.53216748474847  1.02845357795780
 1 -9.48232849264926  5.84421780378038 -0.36206755945595
 1 -8.85310437413741  7.87210693169317  0.34917469316932
 1 -6.98119605170517  7.20698753515352  1.12282124242424
 1 -12.17551802480248  3.34772391949195 -2.13842967446745
 1 -13.04236153385338  2.08003674607461 -1.59040476867687
 1 -12.49254028672867  3.08262559665967 -0.43587402690269
 1 -12.42166413131313 -1.58953987678768 -1.21247474837484
 1 -13.29238153725373 -0.21804451495150 -1.55003075747575
 1 -12.87322252145215 -1.71872553465347 -3.60177113521352
 1 -12.31350175587559 -0.29016748804880 -3.86889586798680
 1 -11.19969480888089 -1.56530755795580 -3.53252153035304
 1 -9.31637625622562 -4.76269277007701 -1.80990705370537
 1 -8.10885527072707 -5.67639359265927 -0.85213516861686
 1 -9.63771795079508 -4.96215466386639 -0.07969023772377
 1 -3.19999751825183 -3.56663326892689 -0.24021175927593
 1 -1.84126751435144 -4.51647386078608  3.52801451905191
 1 -3.03236967426743 -5.98458798369837  3.61998303600360
 1 -1.65809633013301 -6.18087887268727  2.84303766486649
 1  2.71029908470847 -1.62823944674468 -1.71622307100710
 1  2.42852929422942  0.21862994779478 -1.90571162866287
 1  4.47564805150515 -1.02883129692969  0.28698009820982
 1  4.18580389188919  1.26325186788679 -2.75346583228323
 1  5.50807773997400  2.16896732063206 -2.07830526892689
 1  5.69562913141314  0.66803799469947 -2.99725598249825
 1  6.60477866176618  1.45934591519152 -0.04475486158616
 1  6.18738661076108 -0.08873621032103  0.77125332083208
 1  7.43657578037804 -1.29050972397240 -1.28161291849185
 1  7.75701826032603  0.15362446544654 -1.91432225512551
 1  9.00715675997600  0.95112460996100 -0.14333190509051
 1  8.70602372317232 -0.53470182288229  0.78756487988799
 1  10.00044467626763  0.12061820962096 -1.81341649964996
 1  9.23137274637464 -2.45217350085009 -1.84355273717372
 1  10.97618675927593 -2.32997639693969 -1.79714507260726
 1  10.36249844694470 -2.69305342004200 -0.40181757545755
 1  11.11481312291229  0.63024945834583  0.50929870067007
 1  11.47926552205221 -1.07309860746075  0.68233455355536
 1  12.87741569406941 -1.37835525482548 -0.93380565206521
 1  12.84394022392239  0.33270820682068 -1.62790712441244
 1  13.77142856315632  0.95604096739674  0.62501733043304
 1  13.87931624222422 -0.75317169606961  1.10850322432243
 1  15.32170257165717  0.55605900290029 -1.41229249804981
 1  15.50742453925393 -2.18520786198620 -0.03589172467247
 1  14.79282092649265 -1.90977549754976 -1.95049642314231
 1  16.55622390199020 -1.73056395339534 -1.50409692299230
 1  15.88608188168817  1.30462879657966  0.78169408570857
 1  16.47847192499250 -0.01255754055406  1.38945744044404
 1  18.33885062276228 -0.46306282028203 -0.30011020662066
 1  17.64194150375037  0.95150404450445 -1.21945768936894
 1  18.18189724662466  2.28719998799880  0.80861280808081
 1  18.63532949544955  0.91793663316332  1.60288353385339
 1  20.50293012531253  0.29476047364736  0.09880577277728
 1  20.03688050655066  3.38654943144314 -0.82862504720472
 1  21.38294209500950  2.16812795489549 -1.48890687188719
 1  19.84583298089809  2.02067235743574 -2.07533591799180
 1  21.19423327682768  1.10309595049505  2.09716338513851
 1  22.26867476027603  1.85703617431743  0.97719437303730
 1  21.07342742124213  2.97541365856586  1.71681881858186

