%nproc=4
%Mem=3GB
# td=(NStates=1) iop(3/107=0140000000,3/108=0140000000) CAM-B3LYP/6-31G(d,p) 

TD

0 1
12 -7.10703539523952  0.59419780328033  0.16209257925793
 6 -4.83482229872987 -1.96557378797880  0.54200960336034
 6 -4.77903393399340  2.79365808370837  1.28424853005301
 6 -9.32586935143514  3.15091264426443 -0.53251572687269
 6 -9.47851394939494 -1.74981674737474 -0.86506331123112
 7 -5.12565959715972  0.43812990359036  0.73337116111611
 6 -4.36880912821282 -0.69501064426443  0.76064395909591
 6 -2.98399462006201 -0.40128852685269  1.23445911501150
 6 -2.99298252515252  1.02864156575658  1.67614389368937
 6 -4.33768400310031  1.47180183128313  1.21089548344834
 6 -2.98537471827183  1.23406622592259  3.24400971557156
 6 -2.06658238793879 -0.60044603380338 -0.00774696439644
 6 -0.52502821202120 -0.50804405240524  0.47331071337134
 6  0.46976890009001 -0.58223484538454 -0.65570536063606
 8  0.16890710751075 -1.04167794549455 -1.77896528962896
 8  1.66746534493449 -0.29020895929593 -0.32671805940594
 7 -7.06595423882388  2.63686689658966  0.29717064116412
 6 -5.99079922372237  3.37785155255526  0.79250512661266
 6 -6.38816372477248  4.77486435003500  0.83776203490349
 6 -7.65411019631963  4.87457926312631  0.30496662306231
 6 -8.08026755425543  3.46136307510751  0.00763876247625
 6 -5.44468650255025  5.91053052675268  1.16823697889789
 6 -8.54759476747675  6.04001427102710  0.31731234373437
 6 -8.44615302530253  7.22833198289829  0.93463752305231
 7 -8.96884592569257  0.69825682008201 -0.59843641754175
 6 -9.73023050935093  1.79873319761976 -0.70057287078708
 6 -11.09684363706371  1.52736218071807 -1.20074493419342
 6 -11.25981546874687  0.15076262206221 -1.24599462776278
 6 -9.79857746134613 -0.36421661506151 -0.96781898319832
 6 -12.20812174987499  2.53823906530653 -1.58201765446545
 6 -12.40834462736274 -0.64796091989199 -1.80270960156016
 6 -12.29991190009001 -1.05016520882088 -3.28085873707371
 7 -7.19006196859686 -1.39710454615462 -0.16501917701770
 6 -8.28172249854986 -2.24451299679968 -0.50745232513251
 6 -7.78971101090109 -3.61544209560956 -0.45055535533553
 6 -6.40441823232323 -3.56344932703270  0.00187810611061
 6 -6.14586831853185 -2.21026898269827  0.10959279467947
 6 -8.57296963646365 -4.87619371777178 -0.83506688978898
 6 -5.29707517041704 -4.37076063946395  0.29566454055406
 8 -5.33435442774277 -5.58486534353435  0.43331928052805
 6 -4.16046054865487 -3.31075852325233  0.56814513611361
 6 -3.42925710251025 -3.65058300100010  1.96723269176918
 8 -3.59019180258026 -3.09456681458146  2.97717107530753
 8 -2.67668302110211 -4.80891951045105  1.81978101560156
 6 -2.11787074407441 -5.29302450835084  3.03859125952595
 6  2.76416273667367 -0.59091738063806 -1.23241675887589
 6  4.11004188938894 -0.41489675757576 -0.63788635143514
 6  5.11344683598360  0.31502803080308 -1.01148402540254
 6  5.04031775737574  1.23143081838184 -2.16046018101810
 6  6.42723900260026  0.39253986998700 -0.26350687508751
 6  7.64385583818382 -0.27485603360336 -1.01606193489349
 6  8.93231094269427 -0.25650746684668 -0.24153025542554
 6  10.20313577417742 -0.62575423862386 -1.00010573057306
 6  10.04532780938094 -2.05311319121912 -1.45099206520652
 6  11.39618428222822 -0.40343523462346 -0.12319028152815
 6  12.79485722122212 -0.56035606910691 -0.79569707480748
 6  13.89346061786179 -0.28140385468547  0.07884429602960
 6  15.28601459245925 -0.23077216081608 -0.60015566806681
 6  15.67312358335834 -1.64697308560856 -0.97808963526353
 6  16.36942393509351  0.44022053935394  0.40387512221222
 6  17.68928651635164  0.65342907250725 -0.23197972497250
 6  18.66881730033003  1.30315839433943  0.76662991969197
 6  20.10166297069707  1.37236666916692  0.46221292729273
 6  20.37324016981698  2.15368267336734 -0.82139683558356
 6  20.89842490949095  2.00905260516052  1.45407934793479
 1 -4.09663002650265  3.37333058445845  1.76725282108211
 1 -9.95517764106411  3.92053432793279 -0.96147067326733
 1 -10.31401582568257 -2.54988052315232 -1.10699851925192
 1 -2.67065435263526 -0.98054825752575  1.98506499719972
 1 -2.23032649894990  1.62348440954095  1.01641529052905
 1 -1.95033812021202  0.82834194059406  3.63070340774077
 1 -2.81817892699270  2.35455467826783  3.58847686988699
 1 -3.77701050155015  0.61209636393639  3.74336602180218
 1 -2.09810492949295 -1.61291196199620 -0.28764677177718
 1 -2.24167053605361  0.26504412421242 -0.65971270587059
 1 -0.31565699439944  0.52168175547555  1.08825268826883
 1 -0.22188060836084 -1.35598636523652  1.13259671797180
 1 -5.46258043574357  6.62007951995199  0.37092692399240
 1 -5.57183865516552  6.14257713911391  2.16987900040004
 1 -4.48681352595260  5.53707797579758  1.01060179277928
 1 -9.45730599039904  5.87230061206121 -0.27055840854085
 1 -9.47133619731973  7.84189391039104  0.84718449414942
 1 -7.71864979707971  7.47018385478548  1.76112507280728
 1 -12.15394586758676  2.88746789388939 -2.52311814331433
 1 -13.17847514521452  2.05849459185919 -1.58342407060706
 1 -12.21749278197820  3.40640797489749 -0.85437587708771
 1 -12.64504646954695 -1.50927184998500 -1.05777927882788
 1 -13.40574287338734 -0.15395810631063 -1.65221097549755
 1 -13.02271747094709 -1.76565022712271 -3.79696065416542
 1 -12.23824423012301 -0.12493096439644 -3.74368334673467
 1 -11.31066590599060 -1.64398542574257 -3.50345862406241
 1 -9.15298991759176 -4.73498999979998 -1.82970903390339
 1 -8.11184556975697 -5.69779573287329 -0.72562251735173
 1 -9.38108228722872 -4.79534798319832 -0.21446371507151
 1 -3.17240475897590 -3.35825243084308 -0.06988472657266
 1 -1.57966135373537 -4.47951016441644  3.32156387398740
 1 -2.93671010831083 -5.61472099699970  3.84503554125413
 1 -1.53190371087109 -6.20734151895190  2.81666502760276
 1  2.70608866366637 -1.68347497029703 -1.63919536823682
 1  2.68762520382038  0.21155924072407 -2.15604666216622
 1  3.99332981968197 -1.00399881368137  0.21776317651765
 1  3.99915522702270  1.35092063476348 -2.79332981868187
 1  5.31727866006601  2.17740816471647 -1.81842928132813
 1  5.93948351685169  0.99703089398940 -2.96189244614461
 1  6.71617980188019  1.46738671927193 -0.21586197229723
 1  6.23958183028303 -0.12959029572957  0.91565776127613
 1  7.41249337213721 -1.25509618261826 -1.44225898309831
 1  7.92851541004100  0.16847595059506 -1.91751257415742
 1  9.09452549684969  0.78389788728873 -0.06286385828583
 1  8.68026114691469 -0.76222457515752  0.71814793819382
 1  10.14590922272227  0.00480662846285 -1.86562172017202
 1  9.21491110021002 -2.20227851135114 -2.00546892879288
 1  10.77805694629463 -2.31431483078308 -2.10446580468047
 1  9.93881607870787 -2.76713082778278 -0.52974036773677
 1  11.58927056865686  0.55527196059606  0.41513928472847
 1  11.42647024252425 -0.82243354095410  0.80826714681468
 1  12.85481343384338 -1.61014843414341 -1.22191446294629
 1  12.84768059795980  0.33002793879388 -1.59357369106911
 1  13.89073049334933  0.80155551885189  0.42567739643964
 1  13.81486979757976 -0.90280665956596  1.10484285828583
 1  15.24519492089209  0.34292768976898 -1.54102537133713
 1  15.70390418721872 -2.25311465266527 -0.20916905240524
 1  14.87896954135413 -2.02972749274928 -1.64996637013701
 1  16.80419869946995 -1.72092298929893 -1.29954646794679
 1  16.00703397689769  1.34562289598960  0.69130504680468
 1  16.23561763956396 -0.33045933073307  1.32977147184718
 1  18.16215295299530 -0.35984249824983 -0.56226642224222
 1  17.75460276987699  1.23726262036204 -1.08012375597560
 1  18.32954201110111  2.16063733173317  1.05824777157716
 1  18.73172913541354  1.11590643014301  1.96195944144414
 1  20.49838967126713  0.41778277587759  0.37795368756876
 1  19.73497031553156  3.05014579107911 -0.59565174987499
 1  21.34352815361536  2.10760190229023 -1.18414639583958
 1  19.86053445104510  1.69917020722072 -1.72129051345134
 1  20.77945179867987  1.37777341824182  2.38370203900390
 1  22.06957485028503  1.90823129382938  1.27692434603460
 1  20.73320339883988  2.95935205240524  1.50186732343234

