%nproc=4
%Mem=2GB
# td=(NStates=1) CAM-B3LYP/6-31G(d,p) 

TD

0 1
<<<<<<< HEAD
12 -7.17543811681168  0.63215196329633  0.14482216961696
 6 -4.92284690269027 -1.94284546294629  0.49012554525453
 6 -4.84420434933493  2.73480192749275  1.12179854475448
 6 -9.39761449694969  3.10336583208321 -0.41576443614361
 6 -9.53199351305131 -1.77771328232823 -0.87818424752475
 7 -4.99746317091709  0.38390820892089  0.73623404170417
 6 -4.29706941304130 -0.80445026702670  0.78793681688169
 6 -2.91346035143514 -0.47664709040904  1.19482983718372
 6 -3.07628106650665  0.91134380268027  1.74262499319932
 6 -4.33360035493549  1.42783353215322  1.21356838673867
 6 -2.86429151125113  1.12855514361436  3.23986539543954
 6 -1.95065852685269 -0.59353461486149  0.08626258455846
 6 -0.38305572817282 -0.27618196539654  0.47322145144514
 6  0.62352348954895 -0.56662017491749 -0.59830521102110
 8  0.29427066716672 -0.87133254085409 -1.74941127282728
 8  1.87574938543854 -0.41776917331733 -0.18648543744374
 7 -7.12907335523552  2.67898348814881  0.40977967346735
 6 -6.04110338933893  3.39215019081908  0.80375390899090
 6 -6.42071932503250  4.76485077447745  0.86432711991199
 6 -7.76191889888989  4.82228285978598  0.48870726202620
 6 -8.18752302390239  3.48756795209521  0.12793533983398
 6 -5.45454341104110  5.85805827172717  1.19290405090509
 6 -8.50947874547455  6.07459849354936  0.27945493089309
 6 -8.55486937823782  7.18751487008701  0.94787103690369
 7 -9.11665393799380  0.65615847694769 -0.48728276197620
 6 -9.78184444414441  1.85812576567657 -0.72559888398840
 6 -11.11689078567857  1.52106044514451 -1.26497821732173
 6 -11.21342374627463  0.08957432153215 -1.36505521952195
 6 -9.96171185188519 -0.40190216451645 -0.91956697279728
 6 -12.13731255495549  2.44157472847285 -1.73738051285129
 6 -12.43848839513951 -0.76245365546555 -1.90379118761876
 6 -12.14006149454945 -1.11808421962196 -3.36753187178718
 7 -7.17442691099110 -1.40779039263926 -0.19994467146715
 6 -8.28796903670367 -2.27199237133713 -0.64640959615962
 6 -7.84310045564556 -3.60340860836084 -0.48642591989199
 6 -6.48816270037004 -3.61500583758376 -0.17677940984098
 6 -6.19144174057406 -2.22275055635564  0.04405720992099
 6 -8.72823029042904 -4.89185202760276 -0.81357983638364
 6 -5.27218168846885 -4.39246312981298  0.24099697229723
 8 -5.28432727062706 -5.59810429382938  0.30125715641564
 6 -4.29637321672167 -3.32600839063906  0.58945881118112
 6 -3.72165279617962 -3.66683190449045  1.99468984188419
 8 -4.02555415601560 -3.10716745294529  3.06580926202620
 8 -2.82883407710771 -4.58321304370437  1.96962554345435
 6 -2.26836742464246 -5.21528575767577  3.12173710921092
 6  2.84707721942194 -0.62365015961596 -1.16808800920092
 6  4.17195928492849 -0.36785496179618 -0.58175832483248
 6  5.09296278067807  0.36867313271327 -1.05799557225723
 6  5.10977940094009  1.12089473877388 -2.31260542584258
 6  6.40687502030203  0.40347219741974 -0.30701718691869
 6  7.67095463336334 -0.11147149404941 -1.09662661316132
 6  9.05471734433443 -0.02216734713471 -0.31171298409841
 6  10.30178080258026 -0.64534160586059 -0.84258522902290
 6  10.17794449464946 -2.02561349744974 -1.20261372637264
 6  11.45007788468847 -0.27555133593359  0.12249311791179
 6  12.80164507220722 -0.63329738083808 -0.59524954785479
 6  13.99538900730073 -0.27065826862686  0.24874194169417
 6  15.23120924582458 -0.31001473057306 -0.52081032083208
 6  15.77171884078408 -1.69006664046405 -0.84705432313231
 6  16.43766787268727  0.40130449044904  0.45833034023402
 6  17.79722431183118  0.67225862426243 -0.25647146174617
 6  18.71176154565456  1.38027624462446  0.63770420342034
 6  20.13485215441544  1.46367670117012  0.18729349254925
 6  20.32629398319832  2.16611490869087 -1.16251724442444
 6  21.17009794059406  2.01852478877888  1.18645400880088
 1 -4.01272275677568  3.27896341774177  1.61419600650065
 1 -10.10886127882788  3.74145498049805 -0.38730412191219
 1 -10.34460775017502 -2.39426876767677 -1.04640129232923
 1 -2.59194565146515 -1.13009132303230  1.89421011221122
 1 -2.24055766096610  1.60606418901890  1.31672232263226
 1 -1.88853331083108  0.97821827472747  3.42215592909291
 1 -2.85747080708071  2.22189624712471  3.48516068146815
 1 -3.54262770547055  0.56867155115512  3.87893030583058
 1 -1.95647813271327 -1.62619257965797 -0.20750465966597
 1 -2.16774844734473  0.05527277767777 -0.72740277987799
 1 -0.50123364076408  0.68107272117212  0.66637703680368
 1 -0.10957875987599 -0.88930344554455  1.32775673087309
 1 -5.92527130253025  6.80027867196720  0.64668037723772
 1 -5.44146113551355  5.96730009310931  2.21070736783678
 1 -4.31191514751475  5.73118428482848  0.61828500410041
 1 -9.36497855035504  5.76677282538254 -0.32336256445645
 1 -9.07685890179018  8.03172391129113  0.63096271807181
 1 -7.69553901970197  7.15632203170317  1.85411379687969
 1 -11.93710781588159  2.98369869586959 -2.60520352505251
 1 -13.19801947114711  2.05655954715472 -1.61973316481648
 1 -12.52784451555156  3.31989064376438 -0.95469671367137
 1 -12.57200197859786 -1.73712315741574 -1.09119407430743
 1 -13.38481720062006 -0.18836557335734 -1.91722725022502
 1 -12.85610196279628 -1.91053573977398 -4.08474835933593
 1 -12.03867743194320 -0.18965350295030 -3.99137263296330
 1 -11.13456973627363 -1.61035590269027 -3.47523614361436
 1 -9.25449505250525 -4.71218196109611 -1.78917218131813
 1 -8.13905327012701 -5.96632663686369 -0.91034064706471
 1 -9.73309319421942 -5.01043606490649 -0.09568139073907
 1 -3.41038173407341 -3.47475072577258  0.07527225572557
 1 -1.68174634113411 -4.53600003970397  3.69616253155316
 1 -3.18484809340934 -5.28726034363436  3.84776761566157
 1 -1.65596370787079 -6.09393866706671  2.62034598749875
 1  2.77269657375738 -1.63488532443244 -1.36935090009001
 1  2.81970944854485  0.06615089468947 -2.11176432863286
 1  4.36699760536054 -1.04273648884889  0.43950716671667
 1  4.06147511101110  1.46345505590559 -2.76505487518752
 1  5.53817922962296  2.20700095899590 -2.25477194539454
 1  5.62483979157916  0.61119222672267 -3.07272600360036
 1  6.54926698959896  1.42142614261426  0.21210385318532
 1  6.27798191759176 -0.20996903430343  0.65332504920492
 1  7.38194557925793 -1.04403363856386 -1.54151547514752
 1  7.85141757765777  0.60755396349635 -1.93840676427643
 1  9.09978202980298  1.04101198619862  0.13349098129813
 1  8.99507799649965 -0.61076658285829  0.66677454115411
 1  10.54373192459246  0.03378591629163 -1.68563345284528
 1  9.06968195369537 -2.27002497899790 -1.75208113291329
 1  10.90211276697670 -2.29322610651065 -1.90670491439144
 1  10.39465235123513 -2.85185712771277 -0.36402584228423
 1  11.45014269516952  0.80329255945595  0.33175466296630
 1  11.43233628702870 -0.76728268956896  1.03502412401240
 1  12.88938225712571 -1.63161132233223 -0.80447811541154
 1  12.82427618011801 -0.16991630063006 -1.49198255955596
 1  13.89567100380038  0.69360191619162  0.75463280628063
 1  14.01943469656966 -1.04050365506551  1.11749826632663
 1  14.99362265076508  0.15911539653965 -1.47186154415442
 1  16.18705614851485 -2.11865215731573  0.21430997709771
 1  15.09601265196520 -2.57952032763276 -1.44610202530253
 1  16.66509613901390 -1.74071959685969 -1.52498396789679
 1  15.93077827852785  1.39661749544955  0.60148669296930
 1  16.58918336553655 -0.16890606570657  1.39117187838784
 1  17.97830876957696 -0.29419596699670 -0.51800514091409
 1  17.64712177667767  1.50399771867187 -1.00698427422742
 1  18.40083087568757  2.43684784248425  0.91040904620462
 1  18.80363752405241  0.94661884288429  1.55773577387739
 1  20.39110402310231  0.44423057125713  0.02366943094309
 1  19.77762186878688  3.09176273817382 -1.09065265866587
 1  21.39868412051205  2.22951960476048 -1.31449281258126
 1  19.84516842124212  1.42511432223222 -1.95954292329233
 1  21.08600457565757  1.47578568766877  2.11368098529853
 1  22.09972167846784  2.15017624732473  0.74398936523652
 1  20.80852058195820  3.03832391569157  1.38126856735674
=======
12 -7.11140171317132  0.60548929702970  0.00540822822282
 6 -4.85916053405341 -1.94297547594759  0.42385891859186
 6 -4.81782171107111  2.87536598389839  1.08287465236524
 6 -9.46176091159116  2.98756425192519 -0.23589644934493
 6 -9.50627094079408 -1.74634014501450 -0.82109853895390
 7 -5.14109753435344  0.46807662576258  0.72666308460846
 6 -4.33169287538754 -0.65684550655065  0.79153717691769
 6 -2.88279728512851 -0.29970939663966  1.12577293149315
 6 -3.03848728712871  1.19903257155716  1.73467419811981
 6 -4.40687768266827  1.58031878067807  1.19999702960296
 6 -2.83462854495450  1.41325361346135  3.17375878477848
 6 -1.88796225722572 -0.54146940834083  0.03818777707771
 6 -0.49137656025603 -0.38474282148215  0.40603473277328
 6  0.54474561176118 -0.71986549944994 -0.63984936543654
 8  0.27634887498750 -1.06903231083108 -1.81923825552555
 8  1.83289510001000 -0.61306870327033 -0.22137892679268
 7 -7.09810025792579  2.66007159695970  0.23801249674968
 6 -6.02256153515352  3.41650262606261  0.64442797639764
 6 -6.50512776587659  4.77252154155416  0.69195988318832
 6 -7.81296400340034  4.85573620512051  0.37143553485349
 6 -8.20894516611661  3.41020021532153  0.09845239153915
 6 -5.54956291299130  5.77953041894189  0.99861462196220
 6 -8.68117591519152  6.03851488518852  0.28194517991799
 6 -8.53548744004400  7.16489260786079  0.96020227002700
 7 -9.19519179177918  0.63128598969897 -0.46224025772577
 6 -9.89248550825083  1.74268422152215 -0.65788211231123
 6 -11.29686878347835  1.38488682778278 -1.02070378987899
 6 -11.20447285118512  0.01096646074607 -1.14229294329433
 6 -9.99129481018102 -0.44940691499150 -0.84863988008801
 6 -12.29553837753775  2.39860043104310 -1.30628740354035
 6 -12.39225377167717 -0.90911832193219 -1.59130993949395
 6 -12.37886537493749 -1.07022943414341 -3.09700481908191
 7 -7.26888635693569 -1.46110572417242 -0.18893357035704
 6 -8.35553579337934 -2.24611978407841 -0.51596655185519
 6 -7.79704585018502 -3.67117538503850 -0.47147442474247
 6 -6.34675855995600 -3.55142947994800 -0.19582131403140
 6 -6.15345794219422 -2.18710699199920  0.06384918911891
 6 -8.55251271867187 -4.83720656305631 -0.92293077147715
 6 -5.28189265956596 -4.32112599609961  0.07861073367337
 8 -5.12597143504350 -5.56377086048605  0.20777780848085
 6 -4.16534011341134 -3.30015580538054  0.49714958025803
 6 -3.61266189708971 -3.60403562486249  1.94583495639564
 8 -3.87113871447145 -3.00462719891989  2.98104078517852
 8 -2.71252244594459 -4.64591931433143  1.90808938983898
 6 -2.15980656855686 -5.04968919801980  3.12730766626663
 6  2.81024353605361 -0.72452024662466 -1.23990519091909
 6  4.19245133413341 -0.41870004630463 -0.59278942794279
 6  5.18420190459046  0.40562682808281 -1.05977575027503
 6  5.24022244524452  1.22118476777678 -2.30845501080108
 6  6.44094842764276  0.47041889208921 -0.24022050725073
 6  7.70800833873387  0.04477413051305 -1.16675362586259
 6  8.94878675127513 -0.05420055045505 -0.17029884268427
 6  10.22238286278628 -0.51144821652165 -0.88326929742974
 6  10.13721042124212 -2.02695363146315 -1.40872433743374
 6  11.44390726762676 -0.28829261006101  0.05301617021702
 6  12.76699160686069 -0.44086813791379 -0.79094911781178
 6  13.94570403880388 -0.19122032483248  0.18586565406541
 6  15.34231035593559 -0.36199992909291 -0.55171341114111
 6  15.62076374527453 -1.81263889768977 -0.72809242694269
 6  16.41748585448545  0.35112947294729  0.38148265546555
 6  17.83128771817182  0.48903030143014 -0.17967378197820
 6  18.86724709420942  1.20134835183518  0.80521095409541
 6  20.28175684488449  1.32902323582358  0.31567633083308
 6  20.36735808960896  2.25453375057506 -0.88992998569857
 6  21.07961889268927  1.80877381368137  1.45382074547455
 1 -4.13298478297830  3.65052057345735  1.21085567246725
 1 -10.27316770947095  3.77333816881688 -0.47374276577658
 1 -10.22782607200720 -2.42812215301530 -1.19625627782778
 1 -2.55271172807281 -0.99197751165117  1.96650734193419
 1 -2.34352795799580  1.82020560316032  1.12183283368337
 1 -1.76557101460146  1.12808326122612  3.26534024752475
 1 -3.39591465146515  2.33646770427043  3.54849701510151
 1 -3.55820926362636  0.67544222822282  3.69338175097510
 1 -1.95631811671167 -1.52535249564956 -0.38360226942694
 1 -2.22392406490649  0.15518276867687 -0.74272431203120
 1 -0.26012953035304  0.59791440534053  0.80551095019502
 1 -0.17873567556756 -0.99477399259926  1.35436939213921
 1 -5.77647642304230  6.69586823092309  0.48264397359736
 1 -5.50422741214121  6.06935029812981  1.97907420452045
 1 -4.48003195919592  5.66270743714371  1.07233040864086
 1 -9.60620267276728  5.98645479357936 -0.46571679987999
 1 -9.17112832873287  8.10643138203820  0.61652127392739
 1 -7.51846131193119  7.21668806830683  1.55186357185719
 1 -12.24098820392039  3.01510183618362 -2.10804380908091
 1 -13.33898356755675  1.85218911011101 -1.55625681718172
 1 -12.19776150725072  3.13937259195920 -0.58333957795780
 1 -12.38019279767977 -1.87565701080108 -1.13650860576058
 1 -13.32329104800480 -0.49316605340534 -1.28995452295230
 1 -13.29762611521152 -1.65500018621862 -3.43457334183418
 1 -12.34867843204321 -0.07311184878488 -3.52357585328533
 1 -11.41472775207521 -1.52236710381038 -3.38176679667967
 1 -8.96200580358036 -4.80866160906091 -1.93075633973397
 1 -7.94385375017502 -5.77954795899590 -0.79335894889489
 1 -9.52780266516652 -4.94470949224923 -0.55859768236824
 1 -3.34999569546955 -3.44374762546255 -0.18047331883188
 1 -1.61846001250125 -4.03908034773477  3.71043395869587
 1 -3.05655526412641 -5.25242686028603  3.79571241014101
 1 -1.35721383288329 -5.88555782898290  2.84821877477748
 1  2.73047235133513 -1.73143497939794 -1.61532549754975
 1  2.53908138573857 -0.14085980638064 -2.13021617381738
 1  4.37661856745675 -0.88090030523052  0.33894711071107
 1  4.25561452495250  1.30170888128813 -2.67683605330533
 1  5.53042845454545  2.30128038693869 -2.02098856705671
 1  5.77332464006401  0.87892900040004 -3.08775750675068
 1  6.68967103000300  1.51722572257226  0.13454609740974
 1  6.40813493289329 -0.18967700510051  0.66808652535253
 1  7.28590597529753 -0.95766500170017 -1.63800512411241
 1  7.71070350625063  0.87855106320632 -2.03074599819982
 1  9.16077812941294  0.88094597959796  0.25301293349335
 1  8.76824531323132 -0.85583108930893  0.49181704540454
 1  10.37736528792879  0.18112064976498 -1.65532042154215
 1  9.30713569906991 -1.95732370887089 -2.20498642344235
 1  11.16176873257326 -2.15247203110311 -1.98442268616862
 1  10.09617250325033 -2.79521146314631 -0.69332877257726
 1  11.45305298619862  0.67218944914491  0.57466895439544
 1  11.86078913231323 -1.13225918721872  0.88456907850785
 1  12.86280959985999 -1.58599676087609 -1.31069873747375
 1  12.80548430093009  0.13432412341234 -1.71882524382438
 1  13.71301273797380  0.99871242724272  0.56541388438844
 1  13.92701545464547 -0.76434603930393  1.15149166566657
 1  15.18299158765877  0.27668715371537 -1.54624898289829
 1  15.95431287418742 -2.19485977807781  0.18816736283628
 1  14.82124517521752 -2.34694707030703 -1.33676109120912
 1  16.60533016241624 -2.00963648854885 -1.47239870937094
 1  16.07688288898890  1.43503133683368  0.53366991129113
 1  16.46428087528753 -0.17168634373437  1.41908466966697
 1  18.11197213591359 -0.57384393179318 -0.19072241264126
 1  17.75440250475048  1.02349966886689 -1.25406898269827
 1  18.49420021262126  2.09795395309531  1.27924592989299
 1  18.87611477177718  0.43057723872387  1.61516151645165
 1  20.66887179987999  0.35046119431943 -0.11340427642764
 1  20.27951205780578  3.36556011791179 -0.72458605200520
 1  21.33024727682768  2.08732538533853 -1.39150051335133
 1  19.83426733113312  2.18355016581658 -1.82570953995400
 1  21.04020999619962  1.15289339843984  2.28426804400440
 1  22.13517522382238  2.10727195689569  1.08320328662866
 1  20.74353408330833  2.64788487178718  1.82484292479248
>>>>>>> 8e03b5b5abfc0030b3aa597dc0de36371bfbd096

