%nproc=4
%Mem=2GB
# td=(NStates=1) CAM-B3LYP/6-31G(d,p) 

TD

0 1
12 -7.16672724572457  0.62941168926893  0.10773846124612
 6 -4.87031164916492 -1.94721589999000  0.48531506420642
 6 -4.85998592749275  2.85449389668967  1.15472183708371
 6 -9.39269400490049  3.07585308080808 -0.37585044474447
 6 -9.48009832353235 -1.76555206620662 -0.94457088618862
 7 -5.11443486808681  0.44814463256326  0.67213763206321
 6 -4.36750645674567 -0.70609043104310  0.76479450265027
 6 -2.93791279667967 -0.26374580028003  1.26147650185019
 6 -3.09644308270827  1.13227589588959  1.59945067576758
 6 -4.46631362626263  1.49992074087409  1.21239826972697
 6 -2.93560864296430  1.28487077517752  3.12366377527753
 6 -1.93920738173817 -0.68819408080808  0.03259721802180
 6 -0.55109253185319 -0.27475182238224  0.50004413371337
 6  0.43647478467847 -0.64433794669467 -0.53424880538054
 8  0.18929016911691 -1.10881628922892 -1.68426475817582
 8  1.69767157765777 -0.29167656405641 -0.23105989488949
 7 -7.16473692159216  2.62751834163416  0.32406110161016
 6 -6.04427370637064  3.38876985278528  0.75905943954395
 6 -6.53617087018702  4.76458074747475  0.86350703790379
 6 -7.85968867586759  4.80593122462246  0.39219761106111
 6 -8.17271154275428  3.46875607090709  0.12213475977598
 6 -5.52911086778678  5.99763222912291  1.15534029452945
 6 -8.70130792839284  5.93234426812681  0.19141612701270
 6 -8.58350224152415  7.12853897249725  0.85617186698670
 7 -9.13139541214121  0.62028488958896 -0.59924395809581
 6 -9.85561182088209  1.74284423752375 -0.64190051415142
 6 -11.26713581018102  1.40255859495950 -1.22010372987299
 6 -11.23146555045505  0.04367973207321 -1.32871158515852
 6 -9.88008368906891 -0.44344631893189 -0.82248726482648
 6 -12.25225404910491  2.43028359935994 -1.46679345414541
 6 -12.28707325362536 -0.75042245234523 -1.88141895039504
 6 -12.22633012141214 -1.13108551975198 -3.30295541414141
 7 -7.28153762206221 -1.43654326792679 -0.08705338233823
 6 -8.27188742854285 -2.28946411851185 -0.48406336153615
 6 -7.79942608820882 -3.61758002550255 -0.49945722302230
 6 -6.47990187428743 -3.51883622062206 -0.11017274917492
 6 -6.20258285468547 -2.21856013731373  0.09777258145815
 6 -8.54280174757476 -4.81487432983298 -0.94293277167717
 6 -5.25045951625162 -4.38259214271427  0.27546041864186
 8 -5.12434127202720 -5.57857234063406  0.18170520122012
 6 -4.20880445984598 -3.25002079187919  0.59793965926593
 6 -3.59992062296230 -3.62516773807381  1.92802317521752
 8 -3.87811941254125 -3.16683341954195  3.03191587268727
 8 -2.69838103180318 -4.64503922632263  1.73961254215422
 6 -2.17050763866387 -5.06525075417542  3.01496643214321
 6  2.74731724342434 -0.59781757635764 -1.22198339873987
 6  4.11341343034303 -0.49885806210621 -0.52701285028503
 6  5.06939042344234  0.39244550995100 -0.85032480518052
 6  5.04172259525953  1.22344499379938 -2.09111327662766
 6  6.40098443124312  0.38850070027003 -0.06112259745975
 6  7.62021955985599 -0.12400274717472 -0.81967891839184
 6  8.94604647724772 -0.20435556595660 -0.16473828662866
 6  10.22476310081008 -0.54283135483548 -0.90514148464846
 6  10.27033373357336 -1.97546848294829 -1.33296676167617
 6  11.43233611051105 -0.25623940474047 -0.03325245664566
 6  12.78131303900390 -0.55285933703370 -0.70291031393139
 6  14.02963243164316 -0.06305750855085  0.18766583408341
 6  15.41410753565357 -0.25626935603560 -0.45289352915292
 6  15.86279794869487 -1.65827346114611 -0.79550916861686
 6  16.57360146604660  0.40721508150815  0.44124863206321
 6  17.83874846424643  0.59398079647965 -0.30139595419542
 6  18.81773214271427  1.20426864386439  0.75004543754375
 6  20.31587025622562  1.26143647714771  0.16715147834783
 6  20.29090044384439  2.09479777697770 -1.21263225592559
 6  21.42512344314432  1.83134607090709  1.14428979237924
 1 -4.05493697819782  3.67414293569357  1.46543113001300
 1 -10.14738513121312  3.72725356035603 -0.51012640414041
 1 -10.27557084648465 -2.42559189999000 -1.03161981418142
 1 -2.82095855275528 -1.05763407730773  2.05028571977198
 1 -2.45695930113011  1.84788837143714  1.12621327172717
 1 -2.02754721222122  0.90752120502050  3.54509822332233
 1 -2.98162322232223  2.35217927542754  3.57358952435243
 1 -3.71168461116112  0.58694337833783  3.59034144694469
 1 -2.02559504440444 -1.92147210761076 -0.16887079627963
 1 -2.21954362686269 -0.16081883148315 -1.09613965356536
 1 -0.67784130153015  0.84931954585459  0.82747314641464
 1 -0.14898270027003 -0.79337385258526  1.31302525772577
 1 -5.93483225862586  6.89766841094109  0.65165087428743
 1 -5.40379736913691  6.22171553465347  2.15379167626763
 1 -4.60634459045905  5.47605877227723  0.56245942154215
 1 -9.24194624712471  5.77396354445445 -0.67256748494850
 1 -9.11174239013901  7.92803354225423  0.54587420922092
 1 -7.89506897269727  7.27567396689669  1.52909129462946
 1 -12.08806291139114  2.91093141914191 -2.38782178687869
 1 -13.24126379557956  2.08966285748575 -1.84159535103510
 1 -12.33267499859986  3.19932858755876 -0.67932917691769
 1 -12.21669644804481 -1.63298274337434 -1.28144309920992
 1 -13.18418713761376 -0.34159089588959 -1.57776330383038
 1 -13.05252160476048 -1.57277196339634 -3.73337322182218
 1 -12.43139670387039 -0.16548108570857 -3.84378787448745
 1 -11.15281156045605 -1.35724059115912 -3.55459407940794
 1 -8.98819842284229 -4.92980372327233 -1.88607187128713
 1 -7.89007837263726 -5.73194319851985 -0.91207082008201
 1 -9.27454733963396 -5.08378339963996 -0.08979080168017
 1 -3.27512820872087 -3.40582383308331  0.02550727922792
 1 -1.52792095859586 -4.43810024972497  3.39896281158116
 1 -3.07634724332433 -5.39523114071407  3.76302914181418
 1 -1.60749886138614 -6.04396366956696  2.68994294719472
 1  2.74194349844985 -1.66925876177618 -1.52245621062106
 1  2.71899937753775 -0.05160088048805 -2.17531068326833
 1  4.27687859345935 -1.08038025322532  0.27518073407341
 1  4.09221818531853  1.58060677107711 -2.60919928962896
 1  5.61674708640864  2.17268752765277 -1.77124359255926
 1  5.61893920152015  0.78008911641164 -2.97669640064006
 1  6.61387345024502  1.41233523352335  0.22825546834683
 1  6.25661978137814 -0.07077511491149  1.02928264496450
 1  7.32134951965196 -1.07019625482548 -1.15265658925893
 1  7.54150658655866  0.54818802690269 -1.63774669826983
 1  9.21215326692669  0.85208309330933  0.34479211141114
 1  9.02898138683869 -0.84384989118912  0.89698756245625
 1  10.35782333373337 -0.07922538483848 -1.68129301880188
 1  9.38791377687769 -2.28188616511651 -2.01586751155116
 1  11.39920247594759 -2.36489327322732 -1.67123136703670
 1  10.00583346934694 -2.59676161816182 -0.46878631833183
 1  11.49654733563356  0.78308053825383  0.17839932743274
 1  11.44450750415042 -0.77426338763876  1.00425104670467
 1  12.80424374327433 -1.61261942314231 -1.02037970557056
 1  12.76989074157416 -0.09910921992199 -1.62008536983698
 1  13.96988842554255  0.97396995299530  0.32803014601460
 1  13.90727348044805 -0.59905951065107  1.03244976147615
 1  15.48776206470647  0.42845233023302 -1.36681103910391
 1  16.01542898579858 -2.17477776987699  0.09359790589059
 1  15.00999405010501 -2.08454082968297 -1.43194060916092
 1  16.78820845024503 -1.68731425632563 -1.28794026352635
 1  16.07513271397140  1.27716555025503  0.68784532883288
 1  16.75457990519052 -0.26236541164116  1.21651441264126
 1  18.35892683138314 -0.36096264366437 -0.73633697409741
 1  17.65912297679768  1.15820313921392 -1.14939851565157
 1  18.51318211081108  2.20371452915292  1.12114011931193
 1  18.78215537583759  0.63829801080108  1.79186918721872
 1  20.71189610231023  0.35116126432643  0.14498156215622
 1  20.33373748034803  3.14247780968097 -0.77593118651865
 1  21.38985323742374  1.88695534833483 -1.31722308560856
 1  19.66238014241424  1.84848665946595 -2.09930689968997
 1  21.53861983718372  1.23418152725272  2.03056267346735
 1  22.42969467576757  2.08252948264826  0.56591155745575
 1  20.89342907280728  2.55019510281028  1.39998043854385

