%nproc=4
%Mem=2GB
# td=(NStates=1) CAM-B3LYP/6-31G(d,p) 

TD

0 1
<<<<<<< HEAD
12 -7.18747932093209  0.61313006110611 -0.00704301690169
 6 -4.84183880188019 -2.01993317171717  0.50193672637264
 6 -4.77196712561256  2.84365281258126  1.04635100000000
 6 -9.35332006750675  3.11514701020102 -0.44266712641264
 6 -9.58341865556556 -1.74202971397140 -0.70548697779778
 7 -5.10793421802180  0.46122594069407  0.68268868716872
 6 -4.36616632273227 -0.71348117011701  0.74933295649565
 6 -2.95822482788279 -0.28411783748375  1.18528888308831
 6 -3.01203464186419  1.12264493279328  1.70831156185619
 6 -4.32410940584058  1.51751250005001  1.10339736963696
 6 -3.00180526262626  1.10805309340934  3.22387379627963
 6 -1.96948040904090 -0.68098335973597  0.03632759105911
 6 -0.48540596319632 -0.55518986618662  0.49730385968597
 6  0.44515565276528 -0.73311682458246 -0.70416579707971
 8  0.29068030813081 -1.29264467206721 -1.72899923162316
 8  1.78312012251225 -0.42681007740774 -0.34789157805781
 7 -7.00142058995900  2.58460405020502  0.36266496199620
 6 -6.01331061006101  3.38691966776678  0.75289882348235
 6 -6.30039729282928  4.78511280068007  0.74192487968797
 6 -7.67905061206121  4.84901553305331  0.29867825912591
 6 -8.03256752835284  3.45961515681568  0.05132767906791
 6 -5.52741069776978  5.87605007090709  1.08777353785379
 6 -8.62977077467747  5.95654668836884  0.20670765616562
 6 -8.47376126742674  7.07005312391239  0.93296954675468
 7 -9.12914518711871  0.70620348144814 -0.46382041574157
 6 -9.84018027772777  1.79280923402340 -0.59757608170817
 6 -11.14323341994199  1.53289162826283 -1.06934865436544
 6 -11.23687609150915  0.02136750085009 -1.32442115611561
 6 -9.96365204590459 -0.41531350565056 -0.85020003610361
 6 -12.20960978467847  2.49253982498250 -1.40877765256526
 6 -12.35383993029303 -0.71189859996000 -1.69048985748575
 6 -12.36883437183718 -0.92999541074107 -3.21234635323532
 7 -7.26248571687169 -1.37811742534253 -0.16864154115412
 6 -8.32833307310731 -2.23038821092109 -0.45624057925793
 6 -7.92164831043104 -3.60625889338934 -0.40873815111511
 6 -6.57461134523452 -3.56046038303830 -0.13217494939494
 6 -6.24699729612961 -2.22338061936194  0.03549635383538
 6 -8.68723619101910 -4.92173501590159 -0.77177565596560
 6 -5.35056952725273 -4.38133201670167  0.25847872047205
 8 -5.32353119101910 -5.53982846624662  0.32244927562756
 6 -4.16172975237524 -3.28202399219922  0.59014888018802
 6 -3.58074870577058 -3.70277549884989  1.86148652155216
 8 -3.77443904450445 -3.06721345754575  2.96616929802980
 8 -2.72861405510551 -4.75336005840584  1.74832341324132
 6 -2.21674226212621 -5.29592382148215  2.96927186268627
 6  2.78987149884988 -0.69320711531153 -1.27328852925293
 6  4.13179526852685 -0.41340951725173 -0.60138028702870
 6  5.18145162956296  0.31438770417042 -1.10096986968697
 6  5.12682110511051  1.11932458175818 -2.32915708100810
 6  6.36870120292029  0.39533138333833 -0.20183666886689
 6  7.65598313621362 -0.09233958085809 -0.89451640214021
 6  9.00454232683268 -0.06587171757176 -0.09894170697070
 6  10.21799242374237 -0.50812788448845 -0.81835280578058
 6  10.17253395359536 -1.96579751585159 -1.25133859885989
 6  11.49331220812081 -0.18160194099410 -0.01153028442844
 6  12.88384329202920 -0.39511356245625 -0.61775179807981
 6  13.99042851125112  0.00098889608961  0.12581964946495
 6  15.36988311321132 -0.19586331543154 -0.48194643444344
 6  15.68370003890389 -1.66564419821982 -0.75932555025503
 6  16.35076918281828  0.56108046804680  0.41121562876288
 6  17.75702029142914  0.61532293069307 -0.18506432103210
 6  18.82169253875388  1.33896211321132  0.74074450745075
 6  20.22030069926993  1.35210554405441  0.22954771797180
 6  20.44979633343334  2.06357465466547 -1.08171916461646
 6  21.15371630243024  1.82734567086709  1.38533389678968
 1 -4.07727921242124  3.70703622502250  1.34760934783478
 1 -10.07060745344534  3.97517835283528 -0.50427581908191
 1 -10.37648093749375 -2.48371771257126 -1.03505015721572
 1 -2.65867232413241 -1.09040735463546  1.83852454365436
 1 -2.21768537373737  1.62931651425143  1.37806845724572
 1 -1.93265772327233  0.94595504840484  3.51895560906091
 1 -3.43763882388239  1.99789384688469  3.58429059445945
 1 -3.36733017571757  0.23495817981798  3.71661407420742
 1 -2.16237872277228 -1.77344730513051 -0.01196510571057
 1 -1.99377104960496 -0.20361311091109 -0.90178021762176
 1 -0.21494501190119  0.51872648654865  0.68270866996700
 1 -0.27479528152815 -1.14153866906691  1.31898585378538
 1 -5.50718949434944  6.80621926602660  0.24813052225222
 1 -5.61422841224122  6.19970333343334  2.14082037913791
 1 -4.42651660766077  5.64649581598160  0.89963313891389
 1 -9.42927497999800  5.93088923702370 -0.81301152935294
 1 -9.00120133603360  7.99838057695770  0.85430505230523
 1 -7.74043350915092  7.14267066656666  1.72984136963696
 1 -11.84680878597860  3.22112243824382 -2.25463846854686
 1 -12.83458312751275  1.86328021922192 -2.09832102360236
 1 -12.71400313141314  3.20200885558556 -0.55758700270027
 1 -12.28404318271827 -1.65126457155716 -1.11380633553355
 1 -13.23467218611861 -0.28236497329733 -1.27250277777778
 1 -13.24304065666567 -1.49753443964396 -3.37854773927393
 1 -12.65938950315032 -0.00426496409641 -3.81433492919292
 1 -11.58706498579858 -1.57524239133913 -3.45031365136514
 1 -8.89077868086809 -4.63567431033103 -1.80807407150715
 1 -8.08113747854785 -5.69790979517952 -0.78509812281228
 1 -9.81318120302030 -4.95199022032203 -0.34375619821982
 1 -3.34070476637664 -3.55016826752675 -0.05951122262226
 1 -1.64028219471947 -4.62146858655866  3.57732064736474
 1 -3.07533714231423 -5.54579619721972  3.64347718661866
 1 -1.34072218371837 -6.20435970917092  2.83412736563656
 1  2.72599190329033 -1.54266610251025 -1.89001296629663
 1  2.72766024362436  0.19312359195920 -2.08535168736874
 1  4.23582448804880 -0.97790000520052  0.37700091609161
 1  4.01388035153515  1.25778448884889 -2.73945231493149
 1  5.65298070977098  2.08251851075108 -2.02156862506251
 1  5.97365467306731  0.70087119461946 -3.02089082008201
 1  6.42589465236524  1.42894689468947  0.22146478927893
 1  6.30577469686969 -0.15305334273427  0.77871758845885
 1  7.33566095079508 -1.08306754195420 -1.34121544514451
 1  7.75680811671167  0.42569577767777 -1.70869379297930
 1  9.04595664726473  0.91153903890389  0.25269290149015
 1  8.74268275697570 -0.69860536673667  0.73186104980498
 1  10.23368091949195  0.21846438413841 -1.61028591809181
 1  9.07318230373037 -2.09401737823782 -1.70998692349235
 1  10.90157271297130 -2.14497128102810 -2.11771601550155
 1  10.45246813281328 -2.75733767576758 -0.38601804150415
 1  11.49883756465647  0.99074130433043  0.05068655615562
 1  11.42504555795580 -0.56142210351035  0.99080970257026
 1  12.97351066996700 -1.43965212641264 -0.83513118071807
 1  12.91894564706470  0.07869856085609 -1.67819118041804
 1  13.85410684738474  1.18624118011801  0.36162350535053
 1  13.98380113321332 -0.50821042574257  1.27886440294029
 1  15.20686397489749  0.39399888488849 -1.36586094409441
 1  15.84113155605561 -2.28214850695069  0.01221976807681
 1  14.98788183888389 -1.98974134973497 -1.51816923202320
 1  16.76408603800380 -1.69380490539054 -1.29788125762576
 1  16.10781598229823  1.40981881558156  0.76558310261026
 1  16.43067751495149  0.09643046794680  1.34056681788179
 1  17.98155909460946 -0.48155470287029 -0.29025236563656
 1  17.59499656415642  1.23664098299830 -1.02847642344234
 1  18.33743453605361  2.35779993769377  0.74367237253725
 1  18.89993715401540  0.82493667466747  1.59460946124612
 1  20.45540045274527  0.20658680688069  0.19361642564256
 1  20.30942504910491  3.07476103800380 -0.95973956735674
 1  21.54765901800180  2.00521717451745 -1.49262062536254
 1  19.89418332273227  1.64025583638364 -2.08103507250725
 1  20.98050402560256  1.34409251835183  2.26873649084909
 1  22.18189989628963  1.73501473117312  1.05568053435344
 1  21.04575430533053  2.90152023532353  1.53040348084809
=======
12 -7.15899647264726  0.58147689578958 -0.00675298789879
 6 -4.85946056405641 -1.97569874827483  0.60988752145215
 6 -4.75342527142714  2.84844329162916  1.04533089798980
 6 -9.41184592009201  3.13353884938494 -0.31843470317032
 6 -9.44664497819782 -1.73537904890489 -0.88272470157016
 7 -5.03741716631663  0.48002782088209  0.67674809310931
 6 -4.29063876997700 -0.74930475247525  0.77284530773077
 6 -2.91831083648365 -0.32561198689869  1.22284263846385
 6 -3.07624106250625  1.19673234153415  1.67006773747375
 6 -4.35933292819282  1.54717546634663  1.15546257615762
 6 -3.02684776687669  1.22725501360136  3.21118252715272
 6 -1.93977743874387 -0.69047430883088  0.08200215851585
 6 -0.44246166876688 -0.50088443564356  0.48047217651765
 6  0.54951608880888 -0.67959147204720 -0.58250363086309
 8  0.24548578867887 -0.84861026862686 -1.74760109180918
 8  1.80235204570457 -0.37362475887589 -0.27576436533653
 7 -7.10146059395940  2.62403799359936  0.30306900240024
 6 -5.99973925292529  3.42216319211921  0.70742427602760
 6 -6.38510576367637  4.80797508690869  0.76980766796680
 6 -7.69552225922592  4.79654028552855  0.34083247454745
 6 -8.13809808140814  3.47045624092409  0.02605515181518
 6 -5.48164612131213  5.86029849574957  1.16896165666567
 6 -8.51904970257026  5.95718675237524  0.17594457985799
 6 -8.40067395869587  7.19092521112111  0.74491074087409
 7 -9.09797206980698  0.59808266936694 -0.57809184288429
 6 -9.86092235193519  1.75478543164316 -0.68235455955596
 6 -11.19124822142214  1.42934127322732 -1.09138085758576
 6 -11.23774617851785  0.07551291539154 -1.26111482548255
 6 -9.94116979767977 -0.41174314861486 -0.96843185928593
 6 -12.23900272397240  2.38517908890889 -1.43332010681068
 6 -12.47886243254325 -0.82262967306731 -1.70162097059706
 6 -12.31457894629463 -1.09918232943294 -3.35690080868087
 7 -7.18027749604961 -1.41332094569457 -0.23204788178818
 6 -8.20006024582458 -2.24160933303330 -0.50722567776778
 6 -7.83332947854785 -3.59673794129413 -0.49926720402040
 6 -6.50818470257026 -3.54928926592659 -0.00698243014301
 6 -6.15134773117312 -2.23324160546055  0.12428523272327
 6 -8.57613508090809 -4.84084692709271 -0.72925140354035
 6 -5.38173264356436 -4.37326120962096  0.29683255585559
 8 -5.13068190609061 -5.53617810121012  0.13976100680068
 6 -4.15946952635263 -3.37516330613061  0.61637150245025
 6 -3.55028565946595 -3.63513873517352  1.93058343124312
 8 -3.64764636523652 -3.08413514971497  3.02827550865086
 8 -2.70732192589259 -4.74263898629863  1.78543712461246
 6 -2.20192077997800 -5.18857308640864  2.94806974247425
 6  2.83464597629763 -0.55938373297330 -1.24783598399840
 6  4.08253034203420 -0.36526470277028 -0.48903905290529
 6  5.14911839623962  0.34847111251125 -0.94790456315632
 6  5.12314073707371  1.35639828912891 -2.07080124542454
 6  6.43085741854185  0.35909775997600 -0.27733421862186
 6  7.60539807770777 -0.18502884978498 -0.93758070857086
 6  8.85958783138314 -0.07049217961796 -0.05786759955996
 6  10.12006263076308 -0.58897596929693 -0.91637260776078
 6  10.00789748994899 -2.09177011311131 -1.22294575957596
 6  11.30486336323632 -0.24198797959796 -0.03671280268027
 6  12.75222012971297 -0.47034108520852 -0.69149917281728
 6  13.99938940734073 -0.16117732053205  0.23722078957896
 6  15.31460758565857 -0.17762149124912 -0.43328156795680
 6  15.67398906780678 -1.52195982978298 -0.85360497819782
 6  16.38851295719572  0.35756011601160  0.50946545374537
 6  17.79308389778978  0.48849024742474 -0.21736755135514
 6  18.70882125162516  1.24210242724272  0.70733116611661
 6  20.19128779797980  1.28719905340534  0.08404316751675
 6  20.18498985278528  2.33637193439344 -1.02030302300230
 6  21.24224515531553  1.64772770907091  1.18187355075508
 1 -4.00239172367237  3.61110663206321  1.39552413931393
 1 -10.16443683638364  3.93380421542154 -0.17921331283128
 1 -10.08095138453845 -2.61032037283728 -1.00228688088809
 1 -2.51002745964596 -0.97939625352535  2.03863455465547
 1 -2.30388399359936  1.83537712031203  1.49877052745275
 1 -1.81856631413141  0.89053950685069  3.44342805630563
 1 -3.11442650265026  2.38339239673967  3.70109227462746
 1 -3.83183662636264  0.54639932393239  3.50486289908991
 1 -2.33838632353235 -1.61693165356536 -0.26531044024402
 1 -2.10714238673867  0.06720397079708 -0.70026006560656
 1 -0.23101661906191  0.58641325522552  0.95270566966697
 1 -0.19650745274527 -1.30502501770177  1.45892984818482
 1 -5.63800257565757  6.98311695579558  0.64937064626463
 1 -5.40938792819282  5.90122348544854  2.22525882298230
 1 -4.46381033703370  5.60244141054105  1.11043421902190
 1 -9.29669172167217  6.06684283238324 -0.66144637283728
 1 -9.23707492339234  7.67839857875788  0.60183980578058
 1 -7.62824229002900  7.41706810631063  1.58132651815181
 1 -11.90593469856986  3.20856118211821 -2.25829883458346
 1 -13.15656532573257  2.13814770597060 -1.77910910241024
 1 -12.58862059315932  2.95199385408541 -0.54035527952795
 1 -12.67080185858586 -1.61927137223722 -1.04184913981398
 1 -13.40852957185719 -0.33385012181218 -1.63040856835684
 1 -13.01917827042704 -1.84759944614461 -3.66890677517752
 1 -12.43970753495350 -0.28178271587159 -4.09985348104811
 1 -11.26060233953396 -1.60161502860286 -3.26827544754475
 1 -9.27673727672767 -4.95761650455046 -1.57482074617462
 1 -7.89055842064206 -5.73142314651465 -0.74567418041804
 1 -9.49677956285628 -5.21368638993899  0.23348152555256
 1 -3.42593328922892 -3.49926317701770 -0.03715898739874
 1 -1.40866903340334 -4.55843228292829  3.27743065836584
 1 -3.04154376297630 -5.49260087768777  3.57952079097910
 1 -1.72615072657266 -6.16239551275127  2.76002995589559
 1  2.82663196729673 -1.75088692459246 -1.44357832283228
 1  2.49224670227023  0.04135841544154 -2.21283443564356
 1  4.19585049064907 -1.09783199839984  0.32489570557056
 1  4.03868283178318  1.81596030643064 -2.47800617031703
 1  5.48880429212921  2.22597285618562 -1.78925539373937
 1  5.37232454005401  0.97191829932993 -3.04080281128113
 1  6.55122718561856  1.46869086908691  0.19161180398040
 1  6.36483060246025 -0.17253529092909  0.59465918261826
 1  7.41890927562756 -1.17010624582458 -1.29874119771977
 1  7.89682211811181  0.05285849394939 -2.11357428102810
 1  8.85750780238024  0.91616950195020  0.35354298649865
 1  8.63748223692369 -0.64546005220522  0.77653551725172
 1  9.97713526492649  0.05579811751175 -1.85575046454645
 1  9.23554854035403 -2.42371034753475 -1.94769069386939
 1  10.90845340104010 -2.25464224812481 -1.80444468836884
 1  10.09499238523853 -2.56726866886689 -0.31482092179218
 1  11.24966264716472  0.73952618281828  0.31436292379238
 1  11.32852590599060 -0.59139510081008  1.00913153475348
 1  12.90303362226223 -1.58070623182318 -0.86315398299830
 1  12.69518327082708  0.23621431243124 -1.85418878017802
 1  13.89714115081508  0.84421697769777  0.62671001400140
 1  13.81252400550055 -0.83104270897090  1.03127964446445
 1  15.32457574607461  0.40856034103410 -1.29358371637164
 1  15.82057950085009 -2.19808010011001 -0.05234668856886
 1  14.99007205790579 -1.88111048664867 -1.72996041114111
 1  16.63908353775378 -1.65528105300530 -1.49416088558856
 1  16.05425062576257  1.40357819151915  0.72347889218922
 1  16.52590703790379 -0.39912908800880  1.49621238243824
 1  18.29305024372437 -0.51206775417542 -0.33745708610861
 1  17.79891695619562  0.81091841074107 -1.31610518631863
 1  18.44100489308931  2.39364352205220  0.84650265556556
 1  18.64394155445544  0.95112929392939  1.67982798309831
 1  20.35505041774178  0.23687983618362 -0.23756669266927
 1  19.94688879547954  3.31398496039604 -0.40145373877388
 1  21.29483373547355  2.34696134893489 -1.49855121842184
 1  19.26712061646165  2.21968377917792 -1.74851182018202
 1  20.97460343554355  1.22505061416142  2.17702731993199
 1  22.36468817511751  1.49542077177718  0.92673764006401
 1  21.10887061696170  2.79661974527453  1.40939137963796
>>>>>>> 8e03b5b5abfc0030b3aa597dc0de36371bfbd096

