%nproc=4
%Mem=3GB
# td=(NStates=1) iop(3/107=0140000000,3/108=0140000000) CAM-B3LYP/6-31G(d,p) 

TD

0 1
12 -7.10668536023602  0.60887927142714  0.04038040804080
 6 -4.87550636713671 -1.91134836543654  0.41354675707571
 6 -4.73688971957196  2.76360507840784  1.09699980518052
 6 -9.41242800730073  3.15829338233823 -0.34361683698370
 6 -9.53182928092809 -1.67054882058206 -0.92261906680668
 7 -5.14922195339534  0.43045913651365  0.49349717371737
 6 -4.27804005130513 -0.65299644284428  0.52730062476248
 6 -2.93139936053605 -0.44755315331533  1.06907257635764
 6 -3.00496372327233  1.05538424002400  1.52319859915992
 6 -4.35539577427743  1.49199385048505  0.98470286418642
 6 -2.98239442024202  1.22518533783378  3.10020533513351
 6 -1.83657938763876 -0.55295128432843 -0.02839902960296
 6 -0.40267597679768 -0.57452070007001  0.43967735003500
 6  0.56009793299330 -0.87691431333133 -0.67671746184618
 8  0.27314753155316 -1.23943772147215 -1.77286467956796
 8  1.86211480988099 -0.55119505790579 -0.22126751435144
 7 -7.14862250565057  2.67758096799680  0.30789171327133
 6 -5.93617376117612  3.35309907730773  0.72780865696570
 6 -6.37611251965196  4.81526839043904  0.78799705840584
 6 -7.68805359065907  4.84873667886789  0.35249137553755
 6 -8.15911543904391  3.48439537833783  0.08665666426643
 6 -5.57395942984298  5.95977545124512  1.13500365556556
 6 -8.47904791279128  6.07067733733373  0.15637625012501
 6 -8.48014642464246  7.20772992269227  0.85198925822582
 7 -9.13122216331633  0.66461345574557 -0.50707728162816
 6 -9.90259774607461  1.79355267956796 -0.50885369886989
 6 -11.24875882858286  1.52716216071607 -0.99228408810881
 6 -11.28940842804280  0.21302884868487 -1.12049207750775
 6 -9.92300990459046 -0.35845603900390 -0.80226242754275
 6 -12.27763870157016  2.49581482288229 -1.24856430913091
 6 -12.43965775867587 -0.66932305610561 -1.60128945954595
 6 -12.13508541744175 -1.28656884918492 -3.03284393559356
 7 -7.32477543994399 -1.40243507920792 -0.08625130023002
 6 -8.31443576987699 -2.18008655415542 -0.52415399529953
 6 -7.95688772857286 -3.55295584698470 -0.53676397619762
 6 -6.56221401190119 -3.57536051815182 -0.06901898359836
 6 -6.17638136983698 -2.15013296909691  0.10995283068307
 6 -8.90345268476848 -4.78942504090409 -0.79563294639464
 6 -5.38070353325333 -4.40691425482548  0.19095406950695
 8 -5.19940093239324 -5.52295915291529  0.14943089168917
 6 -4.17753225582558 -3.38160560796080  0.44568288988899
 6 -3.69397357415742 -3.69791773447345  1.86599256775678
 8 -3.75559834323432 -2.98262562046205  2.85545890409041
 8 -2.94316966976698 -4.78509712821282  1.81684072157216
 6 -2.13971292829283 -5.16915212111211  3.04300170057006
 6  2.84976129652965 -0.82081036993699 -1.12772628982898
 6  4.21573245844584 -0.61633690159016 -0.51095365816582
 6  5.08773426472647  0.28083461146115 -0.91001387838784
 6  5.05037876347635  1.27598527382738 -2.20137427242724
 6  6.46567284598460  0.30112072807281 -0.29570009440944
 6  7.72125357795780 -0.14011255925593 -0.94984531323132
 6  8.83110082168217 -0.10371218731873 -0.09968607100710
 6  10.10891635223522 -0.62461412461246 -0.88627434743474
 6  10.12045532213221 -2.05228310821082 -1.31526849284929
 6  11.43550821462146 -0.22483737483748 -0.05834379687969
 6  12.82442017751775 -0.32318235173517 -0.70679818491849
 6  14.02293356515652 -0.04210992529253  0.25231164276428
 6  15.34549054005400 -0.12131121472147 -0.48111376387639
 6  15.77080335133513 -1.50813920222022 -0.90935276157616
 6  16.45996298899890  0.48444496179618  0.45876061076108
 6  17.89466705440544  0.60057378697870 -0.15999252625263
 6  18.84098451705171  1.25692377087709  0.74879813651365
 6  20.24941774617462  1.28215764826483  0.27947465346535
 6  20.37319016481648  2.22465977107711 -0.95356005190519
 6  21.23722878987899  1.73143484338434  1.36828076807681
 1 -4.05801616511651  3.57583083448345  1.64858095389539
 1 -10.16337846114611  3.94815709020902 -0.68501302750275
 1 -10.46316074017402 -2.43231876697670 -1.11235905530553
 1 -2.84318160536054 -1.11237143984398  1.90825731643164
 1 -2.24939840614061  1.60657271837184  0.88521217021702
 1 -1.90634372077208  0.80199930633063  3.38577891529153
 1 -3.02434954405440  2.22031125392539  3.64242226442644
 1 -3.73922672317232  0.69932508680868  3.74009569476948
 1 -1.78819393839384 -1.61721239203920 -0.59444745184518
 1 -2.01448781778178  0.22900051985199 -0.82736947154715
 1  0.07373194449445  0.25727531483148  0.95893975697570
 1 -0.36137455775578 -1.44794556115612  1.12315577387739
 1 -5.61912609030903  6.98449596159616  0.84168399969997
 1 -5.86063753505351  6.18810169156916  2.37924993749375
 1 -4.50207505210521  5.75711997999800  0.90875160776078
 1 -9.20348060786078  5.94053743574357 -0.51031238393839
 1 -8.93531259495950  8.17267698869887  0.79507928362836
 1 -7.83606153825383  7.03917075347535  1.63102206250625
 1 -11.90141061406141  3.17046619371937 -2.04171000250025
 1 -13.26060335803580  2.00452919531953 -1.77651337953795
 1 -12.58619965266527  3.11301863596360 -0.56424686418642
 1 -12.37488945384538 -1.42492341514151 -0.80838433933393
 1 -13.35169746884688 -0.04833754425443 -1.42235799019902
 1 -13.07352255145515 -1.81020468256826 -3.39164012211221
 1 -12.27468787448745 -0.51050952225223 -3.81752073047305
 1 -11.25572041144114 -1.84105513271327 -2.99313759195920
 1 -9.28647326592659 -4.64717121792179 -1.68052411541154
 1 -8.25319970517052 -5.63538949224923 -0.66112606770677
 1 -9.71799597859786 -4.63799224762476 -0.11292356105611
 1 -3.43784130263026 -3.52686929252925 -0.28108584668467
 1 -1.37458084568457 -4.45348756215622  3.44040575817582
 1 -2.85027146444644 -5.22676220112011  3.85391642934293
 1 -1.68605912641264 -6.14610539533953  2.78732209330933
 1  2.92929098389839 -1.75437206000600 -1.42920436913691
 1  2.69117555885589 -0.20750266546655 -2.08837989548955
 1  4.40517100380038 -1.00799921372137  0.48280968116812
 1  3.91923723522352  1.33305884858486 -2.48773925962596
 1  5.38122505470547  2.33132355625563 -2.06533397179718
 1  5.54385395389539  0.95656684758476 -3.11181743864386
 1  6.70066825072507  1.32679265986599  0.05292490639064
 1  6.41253912601260 -0.29828716541654  0.79025522102210
 1  7.70925304810481 -1.37286795979598 -1.30042479967997
 1  7.80376293479348  0.54862396539654 -1.95846666956696
 1  8.99983602790279  0.95265476297630  0.18143057115712
 1  8.69333245404541 -0.76170452315232  0.78663478687869
 1  10.22991762356236  0.13154930273027 -1.78878403640364
 1  9.34688429752975 -2.50015829932993 -1.93725210711071
 1  11.06415555615562 -2.48521192049205 -1.90543590169017
 1  10.20497269436944 -2.61963607830783 -0.34875226892689
 1  11.35737737933793  0.67051348474848  0.38494626542654
 1  11.31778937443744 -1.06462776037604  0.77697401750175
 1  12.76355430793079 -1.31913933323332 -1.08909118061806
 1  12.67974380428043  0.43422835883588 -1.49371370507051
 1  13.77883930423042  0.94527989128913  0.55424025272527
 1  14.02548085868587 -0.70908728762876  1.16027840184018
 1  15.28952935433543  0.44173757075708 -1.34500576937694
 1  16.27656145294529 -2.15418475967597 -0.10071820732073
 1  14.89956160056006 -1.95047956795680 -1.29498087158716
 1  16.59103738333834 -1.37707860486049 -1.67729424272427
 1  15.83310658415841  1.57667600130013  0.54662057835784
 1  16.32531660946094 -0.13553983878388  1.36731522622262
 1  18.28386512421242 -0.36049256325633 -0.46309650525053
 1  17.68103541314131  1.25159405350535 -1.05764150775078
 1  18.49928898579858  2.37482875087509  1.11272321912191
 1  18.93807977047705  0.77795263476348  1.81573481898190
 1  20.33316314861486  0.40344134173417 -0.19583369116912
 1  20.22203902240224  3.48315909240924 -0.44192637733773
 1  21.42565636643664  2.22043318541854 -1.14638261946195
 1  19.70714911251125  1.97496778697870 -1.70462884728473
 1  21.19961381488149  1.04018965986599  2.34947861666167
 1  22.22752064486448  1.92151262196220  0.70976763036304
 1  20.90062014051405  2.64845096229623  1.60797793449345

