%nproc=4
%Mem=2GB
# td=(NStates=1) CAM-B3LYP/6-31G(d,p) 

TD

0 1
12 -7.14646521952195  0.63897264536454  0.11331901930193
 6 -4.82506712471247 -1.98950012841284  0.66517305000500
 6 -4.84168409730973  2.91607005430543  1.20892725762576
 6 -9.32316705220522  3.03173866936694 -0.51207406710671
 6 -9.55959627332733 -1.83201871287129 -0.88078450755075
 7 -5.12677610221022  0.46228604670467  0.85329574787479
 6 -4.38107781388139 -0.74348417041704  0.91369939313931
 6 -2.92830183558356 -0.36306573227323  1.30449080328033
 6 -3.06384982338234  1.08977164546455  1.68725945664566
 6 -4.47241423632363  1.50795154395440  1.17357438733873
 6 -2.95463054515452  1.24241652975298  3.20639204810481
 6 -2.02284574557456 -0.49599486088609  0.07610156845685
 6 -0.53115053765377 -0.30718506570657  0.42005613491349
 6  0.52169330653065 -0.74797831073107 -0.61140652115212
 8  0.21087232733273 -1.12095750335034 -1.68024435613561
 8  1.80301211171117 -0.52619001540154 -0.23306009490949
 7 -7.10425087298730  2.69847543734373  0.25423411891189
 6 -6.08475775477548  3.53135411121112  0.80503403700370
 6 -6.38037529062906  4.84831912131213  0.85295598279828
 6 -7.66527923492349  4.90263089458946  0.33365175647565
 6 -8.12007627922792  3.55348454375438  0.02007455375538
 6 -5.48085604230423  5.91349381528153  1.13426818731873
 6 -8.55775357295730  6.11858289198920  0.15742272767277
 6 -8.51403529482948  7.31915803440344  0.70012626242624
 7 -9.05608788138814  0.68891175227523 -0.54740877457746
 6 -9.84783104280428  1.75806575967597 -0.67599392349235
 6 -11.21970106670667  1.46511485058506 -1.10117183668367
 6 -11.16208861276128  0.08491385548555 -1.21930064406441
 6 -9.85081076177618 -0.37461943624362 -0.85991100720072
 6 -12.26438526222622  2.47052762376238 -1.40256703150315
 6 -12.36359090539054 -0.73686109620962 -1.72196300480048
 6 -12.30539802820282 -1.10689310051005 -3.13703882248225
 7 -7.22438190649065 -1.35606522012201 -0.16025070207021
 6 -8.25897613741374 -2.22374754685469 -0.55806076127613
 6 -7.81940808640864 -3.60456872437244 -0.49259653695370
 6 -6.44339822392239 -3.55214955195520 -0.01723345524552
 6 -6.22466506290629 -2.20261854315432  0.14718752295229
 6 -8.60103757115711 -4.95704854725473 -0.82922140054005
 6 -5.29506397669767 -4.31449533303330  0.24202707530753
 8 -5.14056289418942 -5.50268475187519  0.08798582928293
 6 -4.17086066546655 -3.29128491829183  0.58058792409241
 6 -3.54055468636864 -3.66857207850785  1.89238961186119
 8 -3.71457305790579 -3.15944268046805  2.99742242334233
 8 -2.80408160186019 -4.82233695609561  1.78226680758076
 6 -2.35081566946695 -5.38564279337934  2.91422635813581
 6  2.79236174787479 -0.75243303790379 -1.21577277767777
 6  4.17473956295630 -0.68973715001500 -0.62230237923792
 6  5.15212869726973  0.10173643904390 -1.06389616231623
 6  4.98007643064306  0.96465911521152 -2.34557872317232
 6  6.33567790059006  0.31119296949695 -0.30316680188019
 6  7.59357689558956 -0.04140448734873 -1.14641159165917
 6  8.92405427802780 -0.05657078747875 -0.31927374017402
 6  10.23524414891489 -0.52017908960896 -0.94273524402440
 6  10.21576827702770 -1.99221015711571 -1.43168663366337
 6  11.50099297619762 -0.28212199299930 -0.04023315471547
 6  12.78692360006001 -0.52081613271327 -0.67339736263626
 6  13.99790925932593 -0.20613181598160  0.14932199969997
 6  15.41622774767477 -0.15726945604560 -0.49962820262026
 6  15.65845751465146 -1.62631026482648 -0.88985860356036
 6  16.52947705360536  0.34407876787679  0.44323883108311
 6  17.98652324172417  0.39781117951795 -0.21051686628663
 6  18.75899626912691  1.22825104210421  0.84949538253825
 6  20.24775344454445  1.57845817931793  0.32124688788879
 6  20.32833418721872  2.32645094229423 -0.96388738143814
 6  21.09900083088309  2.15085802210221  1.42727809120912
 1 -4.21527301180118  3.60630615201520  1.78262284918492
 1 -9.95773616631663  3.85540637563756 -0.90093548504850
 1 -10.47562085148515 -2.46414575537554 -1.24672132433243
 1 -2.66128258515852 -1.07245555945595  2.08584927612761
 1 -2.19959356455646  1.62527611021102  1.25271592199220
 1 -2.00746520402040  0.99270972387239  3.65669938343834
 1 -3.02319737973797  2.27878193569357  3.59691185658566
 1 -3.58377181988199  0.62902758675868  3.88909132193219
 1 -2.11903438833883 -1.47755771617162 -0.55246915611561
 1 -2.20480215271527  0.27658490889089 -0.78389842944294
 1 -0.14869838723872  0.57959257315732  0.81513191229123
 1 -0.32723052505250 -1.02774728992899  1.27235119031903
 1 -5.76814558995900  6.79851849594959  0.64212992219222
 1 -5.42377936733673  6.24187755085509  2.15926222332233
 1 -4.49412336833683  5.88663983038304  0.68647182278228
 1 -9.22965501800180  5.94226037413741 -0.57283751195119
 1 -9.41004222012201  8.11362210111011  0.56744636643664
 1 -7.87419688548855  7.64275067456746  1.49162754825482
 1 -11.91368547364737  3.00785111111111 -2.24007701240124
 1 -13.08149781898190  2.11798568976898 -1.71833302480248
 1 -12.48097982908291  3.33511216591659 -0.62317356135614
 1 -12.57865264366437 -1.68779822492249 -1.00271522642264
 1 -13.24591331023102 -0.18303504030403 -1.47171269876988
 1 -13.17321367396740 -1.83119780598060 -3.35956584108411
 1 -12.46162972717272 -0.21971650925092 -3.89391288698870
 1 -11.41686796609661 -1.78775364246425 -3.53569218921892
 1 -9.17143674667467 -4.99258000090009 -1.80220348444845
 1 -7.97497686248625 -5.79795980018002 -0.80224983798380
 1 -9.47299718461846 -5.04024904620462 -0.11357317991799
 1 -3.42481317721772 -3.49453270397040 -0.17597286878688
 1 -1.63839200570057 -4.63273971367137  3.52694560986099
 1 -3.22846245484548 -5.73214483208321  3.62624546344634
 1 -1.64529264076408 -6.18498777197720  2.72699665256526
 1  2.30326963106311 -1.60408224412441 -1.69729369436944
 1  2.65735321292129 -0.19760548094809 -2.14198735093509
 1  4.27546845244524 -1.18191040624062  0.23190640664066
 1  3.92309127262726  1.26335504590459 -2.69557792749275
 1  5.54480989268927  1.83367362626263 -2.09838630683068
 1  5.47541484908491  0.56272738023802 -3.13224195519552
 1  6.52791485438544  1.22423642364236  0.02538518131813
 1  6.11778589798980 -0.37032506990699  0.67508722542254
 1  7.44460184488449 -1.08254748994899 -1.29100042364236
 1  7.79858229412941  0.36857006510651 -1.99436235983598
 1  8.85561761336134  0.93438132313231  0.17625525772577
 1  8.65179366806681 -0.62981848804880  0.68707657135714
 1  10.33545109650965  0.24509704740474 -1.72853774327433
 1  9.50489547504750 -2.17899587608761 -2.37572349714971
 1  11.22286484218422 -2.07220400430043 -1.95156940084008
 1  9.89341222722272 -2.46065800780078 -0.56852629232923
 1  11.44365204610461  0.74096632683268  0.07489897739774
 1  11.47664071747175 -0.82488845014501  0.93465408700870
 1  12.85677899679968 -1.54890305150515 -1.14820248784878
 1  12.93200695319532 -0.04839414841484 -1.52192555385539
 1  13.89819125582558  0.89770232623262  0.41878922192219
 1  14.20316306940694 -0.66524612931293  1.14650116661666
 1  15.38076136463646  0.62126161116112 -1.36532089008901
 1  15.63423086598660 -2.21562185428543 -0.05408686258626
 1  14.88152120282028 -2.25259763536354 -1.45781319641964
 1  16.71334096349635 -1.89323484838484 -1.42582405190519
 1  16.23641884258426  1.39151698539854  0.71403794809481
 1  16.32952739993999 -0.41663083818382  1.27750051125112
 1  18.28986992569257 -0.63934048144814 -0.29783312371237
 1  17.77005406990699  0.87838515741574 -1.10038361416142
 1  18.15527632023202  2.17934209190919  1.05610361566157
 1  18.86578373867387  0.49725390639064  1.76219621992199
 1  20.69769468216822  0.57670381858186  0.17070413441344
 1  19.77924203080308  3.31091465336534 -0.75639923332333
 1  21.38534278637864  2.71369802260226 -1.27130849414941
 1  19.67759166356636  1.80413222402240 -1.77458442744274
 1  21.05296127132713  1.85321343044304  2.46037565476548
 1  22.16187789408941  2.00735196489649  1.06270123642364
 1  20.92265199509951  3.12626270957096  1.91448188868887

