%nproc=4
%Mem=2GB
# td=(NStates=1) CAM-B3LYP/6-31G(d,p) 

TD

0 1
12 -7.22452302530253  0.53773252135214  0.19118680608061
 6 -4.86329094709471 -1.94616579497950  0.60021655435544
 6 -4.94155408430843  2.88306675397540  1.29287565246525
 6 -9.40511524702470  3.15785128062806 -0.39181204090409
 6 -9.54616493019302 -1.79097460846085 -0.78571500060006
 7 -5.18150157475748  0.51524134223422  0.76803722202220
 6 -4.33791349744975 -0.70881070307031  0.74467249044905
 6 -2.93294229962996 -0.29211863756376  1.13308366256626
 6 -2.96267970637064  1.11908457675768  1.55171590229023
 6 -4.37483447834783  1.57165791459146  1.13472050195020
 6 -2.78532361446145  1.28769105720572  3.02418382728273
 6 -1.86896035703570 -0.55008026942694  0.05844980328033
 6 -0.47663508610861 -0.36828117531753  0.55269939923992
 6  0.58110924812481 -0.60491400430043 -0.57725310581058
 8  0.33367460756076 -0.91893730133013 -1.73648998069807
 8  1.84150596109611 -0.29693709010901 -0.27761455035504
 7 -7.16717716561656  2.59488507830783  0.45418411391139
 6 -6.10200947994800  3.40684165996600  0.88348188178818
 6 -6.52317957105711  4.83963825322532  0.72667335453545
 6 -7.86663937093709  4.85082571407141  0.37443583488349
 6 -8.21317558915892  3.48024722002200  0.05904845114511
 6 -5.70040799749975  5.99622208810881  1.22137689818982
 6 -8.70507830543054  6.01091212491249  0.23739072447245
 6 -8.62401629292929  7.09908602720272  0.95006125592559
 7 -9.09251152375237  0.60397325842584 -0.53688772247225
 6 -9.81163742344234  1.75690564366437 -0.74483080718072
 6 -11.24618371497150  1.38833717281728 -1.14830655015502
 6 -11.20061246514651 -0.00314495039504 -1.35499421342134
 6 -9.86831251195119 -0.46810878517852 -0.80129514561456
 6 -12.33803262696270  2.30242081308131 -1.36977375217522
 6 -12.31183572987299 -0.83320073017302 -1.88609941844184
 6 -12.17797528592859 -1.04041645284528 -3.43302842144214
 7 -7.17409687798780 -1.44928454205421 -0.12553723072307
 6 -8.19711995179518 -2.30215538763876 -0.52388734393439
 6 -7.86626277187719 -3.68922719021902 -0.47687496479648
 6 -6.48117200130013 -3.56741107810781  0.03862213031303
 6 -6.20723331973197 -2.20023830513051  0.24369717391739
 6 -8.67143461086109 -4.92006484888489 -0.75720419881988
 6 -5.35620009030903 -4.37458134163416  0.31429430203020
 8 -5.17932677057706 -5.60364484788479  0.35615264596460
 6 -4.19775335473547 -3.30116590639064  0.70261012631263
 6 -3.52398302920292 -3.60455567686769  1.99224959785979
 8 -3.83824542514251 -2.99768650485048  3.05412809390939
 8 -2.73223441714171 -4.63814853725373  1.85370395129513
 6 -1.97580816871687 -4.97270149924992  2.96055099059906
 6  2.75056756845685 -0.53345113971397 -1.28415961636164
 6  4.13242533153315 -0.38067624392439 -0.65854600360036
 6  5.22663614801480  0.30779704510451 -1.18921869456946
 6  5.10505892889289  0.96992964226423 -2.52780694599460
 6  6.47910224302430  0.50698254845485 -0.46411289648965
 6  7.58088562646265 -0.15079542644264 -1.17766471697170
 6  9.00412228482848 -0.22941807220722 -0.39373118591859
 6  10.21591221572157 -0.61557862956296 -1.17820879137914
 6  10.21637833803380 -2.10527146324632 -1.57991145614561
 6  11.41669454635464 -0.20850463126313 -0.26344547594760
 6  12.78741364906491 -0.49101315241524 -0.76688671157116
 6  13.94296376477648 -0.08458966176618  0.12191925942594
 6  15.43594971987199 -0.08900262936294 -0.46254449424942
 6  15.69368103700370 -1.51896953075308 -0.99112873057306
 6  16.35702980888089  0.55267962796280  0.40902540974097
 6  17.87113170257026  0.54236563496350 -0.01778759335934
 6  18.82355272477248  1.15088330533053  0.97199763276328
 6  20.30948961816182  1.16075640914091  0.56196095929593
 6  20.36465781958196  1.88098639583958 -0.82511350405041
 6  21.14543547434744  1.81148408470847  1.62247761116112
 1 -4.27263874837484  3.73266878827883  1.87270185708571
 1 -9.93155354805481  3.98334916991699 -0.63627901940194
 1 -10.24265755515552 -2.51027036783678 -1.28541519371937
 1 -2.55235169206921 -0.91874018791879  1.95106579777978
 1 -2.29435304050405  1.86276985958596  1.01595224562456
 1 -1.86465092259226  0.81091154405441  3.45277899139914
 1 -2.90748580858086  2.47499155665567  3.48492065746575
 1 -3.67776121882188  0.49396408040804  3.57335974877488
 1 -2.03243572847285 -1.55150511091109 -0.42358626782678
 1 -2.09408108060806  0.10031728212821 -0.73010304990499
 1 -0.42418593599360  0.67092170607061  0.74939533863386
 1 -0.24906270827083 -0.90461497669767  1.39995395059506
 1 -5.90975975137514  6.94936358045805  0.54306001520152
 1 -5.79522651205120  6.09187255035504  2.35812210931093
 1 -4.68715267126713  5.59267043344334  1.08859203480348
 1 -9.60604265676568  5.96017216531653 -0.39028925712571
 1 -9.46328754465446  7.94766550545055  0.82870249204921
 1 -8.16798626442644  7.22318871837184  1.83295168066807
 1 -11.83453755885589  3.15948627462746 -2.07497050175018
 1 -13.35358502770277  1.87898178937894 -1.79009020052005
 1 -12.39612134323432  3.05847450215022 -0.52448369236924
 1 -12.32306708510851 -1.85265471057106 -1.45225017991799
 1 -13.32202092099210 -0.40469720652065 -1.68859438693869
 1 -13.02074842744274 -1.73360804700470 -3.82703258775878
 1 -11.88297186138614 -0.15294983258326 -4.03005650135013
 1 -11.23023930323032 -1.54129899699970 -3.59358797879788
 1 -8.92037164016402 -4.97916865976598 -1.78129139323932
 1 -8.08798816361636 -5.78078808300830 -0.76491610461046
 1 -9.40476036093609 -5.09562458375838  0.14012218961896
 1 -3.45340603650365 -3.47546079677968 -0.17040231173117
 1 -1.30638880538054 -4.18418485818582  3.41311422672267
 1 -2.63386299489949 -5.41736335393539  3.80354319321932
 1 -1.42073018451845 -5.81877115031503  2.55273922682268
 1  2.73749305340534 -1.60761259715972 -1.60646461146115
 1  2.50985846344634  0.12322660226023 -2.13475662786279
 1  4.21901280688069 -1.05079729492949  0.32287550355035
 1  4.19239820332033  0.66095480588059 -3.11652002170217
 1  5.28406381808181  2.07554781368137 -2.37005347354735
 1  5.80969827742774  0.53840494799480 -3.10372910391039
 1  6.65698776167617  1.65016901690169 -0.27145450265026
 1  6.26232035143514  0.07724968756876  0.48427814451445
 1  7.33837122182218 -1.25367460266027 -1.54696602020202
 1  7.65990842674267  0.36974018211821 -2.18766168976898
 1  9.13895594719472  0.80105799079908  0.30910854305431
 1  8.76817530623062 -1.09485499169917  0.32944080778078
 1  10.55973352475247  0.06795933363336 -1.98049293879388
 1  9.42817780328033 -2.29263724022402 -2.24604052885288
 1  11.17074963066307 -2.50221700560056 -1.97068131203120
 1  9.86949983598360 -2.56960890289029 -0.47794723442344
 1  11.29166684758476  0.78407063726373 -0.04427293979398
 1  11.39733278667867 -0.88635459675968  0.59859048064806
 1  13.05662898179818 -1.50925908710871 -0.98189585718572
 1  12.98399215171517  0.11449214021402 -1.68684204550455
 1  13.84022545924593  0.89655221122112  0.57284462746275
 1  14.01737449054905 -0.83921352605261  0.85586210271027
 1  15.55147843634363  0.59102858785879 -1.31394575257526
 1  15.75213265616562 -2.27289758185819 -0.22483393729373
 1  14.79842289298930 -1.90565294089409 -1.67104451955196
 1  16.74670429982998 -1.71198672357236 -1.54624609410941
 1  15.98915411611161  1.59094692839284  0.80923746804681
 1  16.35569001620162 -0.23246242134213  1.12933569476948
 1  18.16044698339834 -0.50780732813281 -0.27625096549655
 1  18.08011507600760  1.31552887178718 -0.92410598639864
 1  18.27926871947195  2.05281943964396  1.15645365066507
 1  18.56491365166517  0.58757293829383  1.87818781908191
 1  20.61375628832883  0.02290843904390  0.48310537453745
 1  19.86842094869487  2.85334889678968 -0.74282787618762
 1  21.49905415751575  1.91640829362936 -1.09537090039004
 1  20.07287119151916  1.32746455725573 -1.77919488848885
 1  21.02162813801380  1.41745985508551  2.61849146634663
 1  22.22073377967797  1.95443667336734  1.13304827112711
 1  20.87873760366037  2.78948903220322  1.81692213271327

