%nproc=4
%Mem=2GB
# td=(NStates=1) CAM-B3LYP/6-31G(d,p) 

TD

0 1
<<<<<<< HEAD
12 -7.08402897589759  0.61114986308631  0.12925061246125
 6 -4.74792941094109 -1.88763994239424  0.51299783248325
 6 -4.69924985388539  2.84001244854485  1.26231259615962
 6 -9.42141687718772  3.04027952345234 -0.36932979267927
 6 -9.56832714641464 -1.72296780778078 -1.01576800590059
 7 -4.98429185378538  0.55506532463246  0.67711813011301
 6 -4.23004271037104 -0.66163598559856  0.69780780398040
 6 -2.92006101150115 -0.40637006270627  1.21217157135714
 6 -2.89737317571757  1.02784545284528  1.77321805250525
 6 -4.25508250315031  1.54545529432943  1.16769379927993
 6 -2.75063014511451  1.36917920602060  3.23165457435744
 6 -1.84390785178518 -0.66062132353235  0.16996095439544
 6 -0.38116553915392 -0.45161950915091  0.46313044234423
 6  0.55018615581558 -0.74016752965297 -0.62919830033003
 8  0.07690893099310 -1.07571297889789 -1.74488081978198
 8  1.77891970247025 -0.70465786218622 -0.26193298219822
 7 -7.08396884478448  2.59604519431943  0.33453214871487
 6 -6.00369964896490  3.31841281708171  0.83999753335334
 6 -6.35915316841684  4.77351164056406  0.80873156035604
 6 -7.73615632263226  4.81963259475948  0.42825121642164
 6 -8.12959723132313  3.44173336863686  0.14608715501550
 6 -5.50194815151515  5.87133959985999  1.13127788828883
 6 -8.47995579317932  5.97013804750475  0.15814279967997
 6 -8.47431132243224  7.33198931753175  0.66404265406541
 7 -9.11833410601060  0.61130399149915 -0.50688472217222
 6 -9.84305056475647  1.81024097719772 -0.58748507260726
 6 -11.15591468806881  1.50216855595560 -1.07601932143214
 6 -11.20501290519052  0.05478084218422 -1.28762747674767
 6 -9.91328700940094 -0.41255322962296 -0.89887490359036
 6 -12.15926475017502  2.45958652965297 -1.45296207100710
 6 -12.42354690099010 -0.72517992809281 -1.79371017951795
 6 -12.33435092349235 -1.04286669786979 -3.28267338593859
 7 -7.19350881918192 -1.28480809440944 -0.25125980298030
 6 -8.27384762456246 -2.17915308740874 -0.56696165136514
 6 -7.90774692029203 -3.53923219071907 -0.38122539983998
 6 -6.52420630473047 -3.56722105910591 -0.09747147904790
 6 -6.11519411581158 -2.15630391169117  0.11072387658766
 6 -8.73904137153715 -4.71630447284728 -0.83509198759876
 6 -5.37007147744774 -4.35470935443544  0.19817268986899
 8 -5.16440527842784 -5.55397988138814  0.17532456315632
 6 -4.06418999839984 -3.25898168796880  0.57243710901090
 6 -3.58262889378938 -3.71131635293529  1.93941431433143
 8 -3.91787338793879 -3.09479621582158  2.95138781988199
 8 -2.66074726842684 -4.79590431283128  1.82789137003700
 6 -2.27554814271427 -5.23284751385139  3.08394332983298
 6  2.81698421012101 -0.94665245984598 -1.35149635003500
 6  4.12353444244424 -0.65891406770677 -0.64203435243524
 6  5.12136562096210  0.15210147554755 -1.08159793249325
 6  4.86391481448145  1.05560821012101 -2.31870603590359
 6  6.31291562436244  0.38680053025303 -0.28872535773577
 6  7.58737627552755 -0.18768911581158 -1.01314826532653
 6  8.93952582518252 -0.03916904730473 -0.21403321612161
 6  10.13279390389039 -0.55331240294029 -0.89901087158716
 6  10.05240194039404 -1.94380531663166 -1.47567103210321
 6  11.37624050095009 -0.38208198899890  0.07700856945695
 6  12.75616052375237 -0.43743779487949 -0.54985500840084
 6  13.96806627502750 -0.09140034283428  0.27196426392639
 6  15.24543066796680 -0.16731046014601 -0.47495573537354
 6  15.56311798069807 -1.53783141694169 -1.02637225492549
 6  16.37032113801380  0.45195955595560  0.45809031623162
 6  17.79768435783578  0.66651805020502 -0.11661747634763
 6  18.81112148164816  1.37530574757476  0.76066649964997
 6  20.30607927712771  1.39169950345034  0.33685844904490
 6  20.22203355715572  2.19388768596860 -1.00341133383338
 6  21.19211014181418  2.04316725302530  1.31023638703870
 1 -3.97573905840584  3.54111963336334  1.58727331423142
 1 -10.12910330303030  3.76015685068507 -0.59459485098510
 1 -10.37739102850285 -2.67781712251225 -1.12286893909391
 1 -2.86189264616462 -1.01627994189419  2.14613530473047
 1 -1.96986059125913  1.44497808040804  1.26817746814681
 1 -1.60546500400040  1.39175962886289  3.57353106660666
 1 -3.15823088308831  2.35749980748075  3.53028519391939
 1 -3.40912435513551  0.44098878287829  3.62932534533453
 1 -2.13741622652265 -1.66103606400640 -0.17372128132813
 1 -2.37213888638864 -0.10600334993499 -0.61664170377038
 1 -0.37856137353735  0.37181179507951  0.99903030213021
 1 -0.05570337233723 -1.06831134633463  1.34676863206321
 1 -5.73217199259926  6.73960260436044  0.38141385058506
 1 -5.62126911631163  6.26720008310831  2.10263656075608
 1 -4.38888284428443  5.72765393179318  0.96102927852785
 1 -9.39863191569157  5.90128627672767 -0.39870009820982
 1 -9.03979519541954  8.12843358225822  0.29174879667967
 1 -7.58736820262026  7.77056345584558  1.32636102160216
 1 -11.62921702680268  3.03216354235424 -2.33329633433343
 1 -13.11293096229623  2.16395028622862 -2.13844503600360
 1 -12.68066979807981  3.09935859055906 -0.58555979998000
 1 -12.60401517991799 -1.70252969806981 -1.17016197109711
 1 -13.37068578747875 -0.05267200400040 -1.54779030653065
 1 -12.83222957555756 -1.86121080728073 -3.60245012951295
 1 -12.53941750595060 -0.12082662026203 -3.85766926262626
 1 -11.31957823712371 -1.56730159725973 -3.54525314531453
 1 -9.21193079607961 -4.40481122402240 -1.77957122122212
 1 -7.98213757855785 -5.48334833903390 -0.83486309930993
 1 -9.51799168406841 -4.88708372967297 -0.19915173777378
 1 -3.41051174707471 -3.53241649234924 -0.16568183968397
 1 -1.70542870937094 -4.34702114181418  3.71993490879088
 1 -3.14710431903190 -5.62844446204620  3.63776661556156
 1 -1.45944405590559 -5.93678295149515  2.77346129902990
 1  2.63552285638564 -2.00505234113411 -1.62338630363036
 1  2.49858733633363 -0.35756147654766 -2.05796894909491
 1  4.36510741634163 -1.16721893709371  0.11394461046105
 1  3.96595555905591  0.71093980438044 -2.77578594829483
 1  4.80002541424142  2.13574383328333 -2.04047051525153
 1  5.84602190979098  0.87474858235824 -2.80311904290429
 1  6.56432849574957  1.46410041004100  0.02409505230523
 1  6.24164828422842  0.02150411301130  0.70958067476748
 1  7.43804118881888 -1.28656789198920 -1.18919024262426
 1  7.65971840774077  0.24930813891389 -1.98895181878188
 1  9.10729278087809  0.96273415841584  0.44546217841784
 1  8.79590807950795 -0.65781128732873  0.59582744644464
 1  10.49743729512951  0.21707424512451 -1.60904579407941
 1  9.32272725822582 -2.11126910341034 -2.34682060686069
 1  11.01444400010001 -2.17338412231223 -1.86561080498050
 1  9.63898678467847 -2.79067100910091 -0.68119755945595
 1  11.25615329622962  0.69419164936494  0.57837932543254
 1  11.36803985738574 -1.15070103140314  1.00314093569357
 1  12.81121444034403 -1.46440460166017 -1.01764943254325
 1  12.68813256575658  0.17105779677968 -1.55068843014301
 1  13.75416685338534  0.88396095209521  0.78418576157616
 1  13.88373112621262 -0.93890349504950  1.01826834333433
 1  15.17916120462046  0.36782626762676 -1.52726708470847
 1  15.68219566246625 -2.02062235433543 -0.02927438133813
 1  14.57608065876588 -2.04318669426943 -1.41252866796680
 1  16.33006263566357 -1.66365189008901 -1.78296976647665
 1  16.18146334703470  1.59433726742674  0.84039058335834
 1  16.61814626182618 -0.11271044614461  1.36359912111211
 1  18.29942088078808 -0.28453500090009 -0.36492983338334
 1  17.84637170167017  1.18646596549655 -0.98641221702170
 1  18.31623241584158  2.43913807150715  1.02953095839584
 1  18.89038619891989  0.84967914891489  1.77643764406441
 1  20.64165907860786  0.36355250345034 -0.07755069106911
 1  19.85772987958796  3.24926848874887 -1.12403599699970
 1  21.28652290439044  2.43156980978098 -1.49336069936994
 1  19.55229913431343  1.55774758555856 -1.67787475647565
 1  21.46551252645265  1.60307841694169  2.15253487068707
 1  22.14497620392039  2.34329555925593  0.94340930723072
 1  20.91659138903891  3.06785686898690  1.77015745624562
=======
12 -7.14430500350035  0.60581933003300 -0.05143745634563
 6 -4.85730034803480 -1.99485066346635  0.60789732243224
 6 -4.79835976487649  2.83941238853885  1.12781914681468
 6 -9.30805554105410  3.08710420592059 -0.43797665736574
 6 -9.51388170187019 -1.77326283728373 -0.89115554465447
 7 -5.08237166176618  0.37457727582758  0.70352077037704
 6 -4.28453815991599 -0.66720654265427  0.77830585378538
 6 -2.94516352175218 -0.39366879257926  1.23406376057606
 6 -3.09073251165117  1.08182085038504  1.80705143584358
 6 -4.38660565546555  1.54960570937094  1.08799582948295
 6 -3.21396647874787  1.13293558165817  3.32099350825083
 6 -1.92306576757676 -0.49606486788679  0.09399335763576
 6 -0.41556897949795 -0.44242859005901  0.55219934923492
 6  0.48111924912491 -0.66243975687569 -0.59013439393939
 8  0.23049428952895 -1.08459386698670 -1.70509684138414
 8  1.76200801130113 -0.32978037443744 -0.28525531443144
 7 -7.09706015391539  2.59322491229123  0.33097179267927
 6 -6.02878215721572  3.35140611641164  0.74929846344634
 6 -6.46759401250125  4.76800108950895  0.80909159635964
 6 -7.70757346434643  4.84224485598560  0.36023441474147
 6 -8.11873614521452  3.44798399369937  0.08660120642064
 6 -5.54937289398940  5.86788925482548  1.23647840834083
 6 -8.49876767436744  5.97282831653165  0.15097208260826
 6 -8.28623251455146  7.15169128772877  0.84495074487449
 7 -9.11439371197120  0.68327118821882 -0.55275930963096
 6 -9.83638989868987  1.76729668276828 -0.71389771387139
 6 -11.14678377497750  1.44293263236324 -1.15561728122812
 6 -11.15723812771277  0.13426879097910 -1.38303701770177
 6 -9.83785946664666 -0.40342231653165 -0.97092210831083
 6 -12.27309613331333  2.41591216221622 -1.51326810161016
 6 -12.33389793609361 -0.69282669276928 -1.79246005450545
 6 -12.34889237763776 -0.97242965416542 -3.35336045464546
 7 -7.21424089238924 -1.37209682328233 -0.20116479347935
 6 -8.25046528632863 -2.21367653975398 -0.50486544174417
 6 -7.85896204180418 -3.61140940844084 -0.47528480578058
 6 -6.42732661676168 -3.52665700270027 -0.19632136403640
 6 -6.13653625002500 -2.17643592489249  0.01584438863886
 6 -8.64036150355035 -4.79880272267227 -0.68787726612661
 6 -5.34680915121512 -4.38938282178218  0.22660553315332
 8 -5.19191802970297 -5.59212369576958  0.23004003470347
 6 -4.16889046844684 -3.39436522632263  0.59162902820282
 6 -3.57105773667367 -3.75468068936894  1.91085145804580
 8 -3.87202880348035 -3.15846258245825  2.99593227432743
 8 -2.74292548624862 -4.74380910331033  1.87921650255026
 6 -2.15124571247125 -5.17818204730473  3.06456139163916
 6  2.77204971667167 -0.70144793939394 -1.27578877927793
 6  4.05735782478248 -0.45405358165817 -0.55426557555756
 6  5.07571105550555  0.42970923632363 -0.92083185588559
 6  4.99974839783978  1.26493914321432 -2.20182434773477
 6  6.34629896269627  0.43547539773977 -0.14606109130913
 6  7.58900643854385 -0.25037538443844 -0.97014396489649
 6  8.91287315991599 -0.09118424882488 -0.14527634043404
 6  10.10446107060706 -0.68423549524953 -0.79021999249925
 6  10.10465716591659 -2.18656959305931 -1.00722418741874
 6  11.41930480738074 -0.29619340014001 -0.01063019441944
 6  12.77645255295529 -0.43325737683768 -0.78263828672867
 6  14.01342081048105  0.03053185038504  0.05627269476948
 6  15.43736986188619 -0.20247397649765 -0.51804004380438
 6  15.75388705760576 -1.59503713751375 -0.84473409110911
 6  16.45300940684069  0.39707406740674  0.47637214441444
 6  17.78291288068807  0.65557695609561 -0.26315212981298
 6  18.82619298879888  1.17741595859586  0.77314774777478
 6  20.29875854505450  1.39530986448645  0.12784754795480
 6  20.37442879667967  2.24077237443744 -1.17636862956296
 6  21.23035396619662  1.94751768806881  1.22620798419842
 1 -4.02513399789979  3.69014453585359  1.56099068596860
 1 -10.12492288498850  3.90177101210121 -0.50683607510751
 1 -10.49178246764676 -2.45485482628263 -0.93660031223122
 1 -2.64018047494750 -1.26282459635964  1.86587727892789
 1 -2.17267087228723  1.60781436403640  1.25080573097310
 1 -2.22300675817582  0.84649510241024  3.64986870037004
 1 -3.25997105710571  2.01765582308231  3.66119828522852
 1 -3.95634907760776  0.64391907590759  3.86677909070907
 1 -1.83702618751875 -1.43813377377738 -0.40253416261626
 1 -2.06625829832983  0.25343259365937 -0.71649168876888
 1 -0.21000451785178  0.45477009090909  1.18208860796080
 1 -0.15612341434143 -1.27729224442444  1.32382633783378
 1 -5.74622339773977  6.61369001310131  0.45741145034503
 1 -5.98690567996800  6.32873623672367  2.41459775687569
 1 -4.35677963396340  5.58232939933993  1.70992416801680
 1 -9.41473352585258  6.06046219431943 -0.56227645584558
 1 -9.10401161706171  7.88447918681868  0.32007162896290
 1 -7.67514698049805  7.41901830133013  1.64241262676268
 1 -12.17911201630163  3.03843416941694 -2.48566157085709
 1 -13.05951562076208  1.85000889208921 -1.56197738923892
 1 -12.38545027612761  3.14026268096810 -0.64729597359736
 1 -12.44549932833283 -1.68455790089009 -1.25421037593759
 1 -13.29124784368437 -0.15990272707271 -1.46063159065907
 1 -13.23707005960596 -1.61910659685969 -3.66131601610161
 1 -12.36938050225023 -0.06659119671967 -3.89630312601260
 1 -11.38677495679568 -1.40673554065407 -3.72818143814381
 1 -9.32296189918992 -4.64999574247425 -1.60780404450445
 1 -7.93877324212421 -5.78595860006001 -0.68992860586059
 1 -9.41556144104410 -5.10016503780378 -0.02895471807181
 1 -3.36873756965697 -3.37680093079308 -0.27527279877988
 1 -1.51708987548755 -4.33253969366937  3.58172108740874
 1 -3.03649325792579 -5.45244686228623  3.74455729462946
 1 -1.63814192569257 -5.97030630383038  2.71218517141714
 1  2.52908221232123 -1.60032186808681 -1.37541150615062
 1  2.60743822142214 -0.00887660806081 -2.17180033223322
 1  4.03229413501350 -0.88632084728473  0.46747996399640
 1  4.05896485998600  1.36669537993799 -2.66930530023002
 1  5.23886929862986  2.35301556045605 -1.74632110031003
 1  5.69584689228923  0.91426253375338 -3.13994272527253
 1  6.64426648954895  1.46930093009301  0.21740438323832
 1  6.26560067946795 -0.29246728412841  0.83971368806881
 1  7.37601498619862 -1.31776101130113 -1.20699202280228
 1  7.52391482738274  0.29053226132613 -1.76241916551655
 1  9.16281833343334  1.00152803780378  0.09890752295230
 1  8.74734322302230 -0.55548105430543  0.89092695639564
 1  10.27798534993499 -0.09209667196720 -1.84159904940494
 1  9.17102208770877 -2.38016599309931 -1.69884580938094
 1  11.12797535323532 -2.72921970587059 -1.50907515141514
 1  9.88843172917292 -2.75369731173117 -0.02697213691369
 1  11.18431611251125  0.59048127832783  0.56949843734373
 1  11.44234728812881 -1.12023798509851  0.77662828442844
 1  12.88941226012601 -1.58212637383738 -1.23313098069807
 1  12.57869162166216 -0.04144345334534 -1.93370673197320
 1  13.99462089878988  1.09897245324532  0.43833117611761
 1  14.22255500860086 -0.47164676937694  1.02703922042204
 1  15.35465875437544  0.18745823082308 -1.39497385538554
 1  15.82349979287929 -2.43456374847485 -0.03879533343334
 1  15.17170022072207 -2.17476985258526 -1.48728614371437
 1  16.69607923732373 -1.58500402530253 -1.43171464096410
 1  16.04738993969397  1.38058589228923  0.79251579587959
 1  16.43273772097210 -0.22277145224522  1.33313607480748
 1  18.17812875157516 -0.21969851725173 -0.96566990739074
 1  17.47161422592259  1.43359067796780 -1.04889846564656
 1  18.60727151975198  2.26689084678468  1.19230723602360
 1  19.04630179047905  0.33650783178318  1.50538053835384
 1  20.62201711441144  0.39484563276328 -0.09348228422842
 1  20.42406651325132  3.38434199609961 -0.97747134053405
 1  21.56070032213221  2.10531718451845 -1.52431379467947
 1  19.60005390979098  2.02898470927093 -1.95751272027203
 1  20.98054402960296  1.32669077817782  2.08705832303230
 1  22.33072477877788  1.82463369306931  0.86123108940894
 1  20.88003773367337  2.83718380168017  1.46636707720772
>>>>>>> 8e03b5b5abfc0030b3aa597dc0de36371bfbd096

