%nproc=4
%Mem=2GB
# td=(NStates=1) CAM-B3LYP/6-31G(d,p) 

TD

0 1
<<<<<<< HEAD
12 -7.12635320832083  0.59015776387639  0.05135282268227
 6 -4.87950256825683 -2.00418159655966  0.59102563526353
 6 -4.82781271017102  2.82428087538754  1.13179954485449
 6 -9.38762349784978  3.10117561306131 -0.43708656835684
 6 -9.47707802150215 -1.69357486848685 -0.90509693879388
 7 -5.06430985558556  0.44998481658166  0.73872429072907
 6 -4.33716342244224 -0.74720454245425  0.85947397059706
 6 -2.94859386478648 -0.33452287798780  1.26726708090809
 6 -2.97159059745975  1.06862953125313  1.73086381708171
 6 -4.33438043294329  1.58687943674367  1.14008103800380
 6 -3.00001508360836  1.21410369846985  3.31389279817982
 6 -1.90580404140414 -0.59127438883888  0.09605356365637
 6 -0.46325374797480 -0.42965731293129  0.55266939623962
 6  0.45400653785379 -0.62171568446845 -0.55912129262926
 8  0.13563480358036 -1.15011041864186 -1.62463879557956
 8  1.67345915641564 -0.39476687308731 -0.13597038593859
 7 -7.13930437833783  2.57309289908991  0.34250294579458
 6 -6.04437371637164  3.36496747254725  0.70329386298630
 6 -6.35368262136214  4.78691298069807  0.76707739493949
 6 -7.75264797179718  4.88617924942494  0.39694808610861
 6 -8.18243251485149  3.47215641094109  0.00779332563256
 6 -5.51023898059806  5.88701116701670  1.10387514801480
 6 -8.45004280188019  6.08637967166717  0.17334431983198
 6 -8.46095998729873  7.23812993159316  0.85035128492849
 7 -9.02273454605461  0.67136999809981 -0.61758579227923
 6 -9.78725498519852  1.81345129822982 -0.63160948504850
 6 -11.14709380598060  1.45192353145315 -1.16734845434543
 6 -11.14652705660566  0.07866323042304 -1.38162687668767
 6 -9.80558623932393 -0.39656163046305 -1.05900091619162
 6 -12.22283110681068  2.39974054505451 -1.49176595139514
 6 -12.28792333863386 -0.82672008210821 -1.89432024052405
 6 -12.02477996639664 -1.41168357955796 -3.28035315391539
 7 -7.14829429772977 -1.39025863946395 -0.10126480348035
 6 -8.26699693949395 -2.20631580368037 -0.50454540974097
 6 -7.79662580818082 -3.60813908140814 -0.37752502980298
 6 -6.60154403850385 -3.55501983898390  0.05180344844484
 6 -6.10934353075308 -2.24324260556056  0.06314911911191
 6 -8.73544101150115 -4.82304514691469 -0.73920239863986
 6 -5.23709818011801 -4.36540042354235  0.19037190979098
 8 -5.22823166106611 -5.55618010141014  0.24265129582958
 6 -4.16244982438244 -3.36315210501050  0.58648851415142
 6 -3.60096072697270 -3.73240846214622  1.92599297219722
 8 -3.81415301590159 -3.19092582878288  2.96032871397140
 8 -2.80890208390839 -4.84166888928893  1.71010959185919
 6 -2.25653624152415 -5.22833706280628  3.00894583008301
 6  2.82438495019502 -0.68461625622562 -1.15047624802480
 6  4.04425651465146 -0.32046022232223 -0.45031518051805
 6  5.06060954535454  0.46612287768777 -0.87604737743774
 6  4.88233665666567  1.49453210251025 -2.11099526482648
 6  6.38692302510251  0.63641549174917 -0.17413389858986
 6  7.56863440134013  0.01258091119112 -1.03611056155616
 6  8.85930780338034  0.00498536813681 -0.24113592639264
 6  10.11924254875487 -0.48175524722472 -0.93161413191319
 6  10.03069977017702 -1.90103103920392 -1.34900836583658
 6  11.32556543344334 -0.13742752355236 -0.10305943734373
 6  12.75239014671467 -0.49166321742174 -0.78429845274527
 6  13.91625109350935 -0.12591379417942  0.14606167366737
 6  15.40121624652465 -0.25743947304730 -0.49756799659966
 6  15.82789445834583 -1.63160079387939 -0.89219883758376
 6  16.42871697759776  0.44421878187819  0.44176868406841
 6  17.78239282868287  0.59611100950095 -0.15959177377738
 6  18.81213158265827  1.22779099609961  0.74044447744774
 6  20.22206087528753  1.19217955145515  0.16364112731273
 6  20.32748410221022  2.12330062726273 -1.08938993169317
 6  21.34071500230023  1.62463539983998  1.24770013341334
 1 -3.99614109860986  3.54654017541754  1.49761434833483
 1 -10.33031342404241  3.82612344734473 -0.57785317681768
 1 -10.16183947334734 -2.42958229902990 -0.98137478967897
 1 -2.62105856275628 -1.09951826572657  1.84341503270327
 1 -2.03125673087309  1.65951953455345  1.30729137953795
 1 -2.04889934743474  0.50311076397640  3.67475118861886
 1 -2.85952101210121  2.38183224072407  3.56601876727673
 1 -3.97822126482648  0.78966365036504  3.69089150195020
 1 -2.05938842374237 -1.74814477487749 -0.35526943614361
 1 -2.05757743024302  0.04520177057706 -0.72624266386639
 1 -0.29774329172917  0.57953256715672  0.92493289238924
 1 -0.22107990999100 -1.18583309850985  1.39901385658566
 1 -6.04500327572757  6.75721436553655  0.46974268346835
 1 -5.44722171157116  6.03481684478448  2.13829012611261
 1 -4.52764672067207  5.64051521792179  0.75969914551455
 1 -9.25697775027503  6.05471161926193 -0.51861208940894
 1 -9.01125234113411  8.08541928082808  0.43534315611561
 1 -7.95552501830183  7.36531293079308  1.90484887038704
 1 -11.74098820392039  3.26572689868987 -2.22146515121512
 1 -13.07068673787379  1.81768565976598 -1.97722891439144
 1 -12.62079381048105  2.92707136183618 -0.53914515851585
 1 -12.21054583298330 -1.57834727982798 -1.17730268516852
 1 -13.14175289418942 -0.16316305310531 -2.04814034153415
 1 -12.87627397999800 -2.04701938813881 -3.64368425292529
 1 -11.78227179137914 -0.67859239683968 -4.21536503220322
 1 -11.27084336363636 -2.24295916301630 -3.09807842784278
 1 -8.93915351835184 -4.74261500440044 -1.89070233433343
 1 -8.31181054585459 -5.82456246044604 -0.65751536453645
 1 -9.66080596549655 -4.92269729102910 -0.38510033263326
 1 -3.25854655055506 -3.40863411411141 -0.06232150365037
 1 -1.80185835233523 -4.46611305100510  3.33931684698470
 1 -2.98921853045305 -5.58385000260026  3.88384122302230
 1 -1.81479959145915 -5.99330860406041  2.68568252115212
 1  2.69867917201720 -1.78218005390539 -1.37179114411441
 1  2.62512999059906 -0.10691641204120 -2.07894104630463
 1  4.11173207880788 -0.88015023022302  0.39572278827883
 1  3.72946190969097  1.42250096049605 -2.46189455915592
 1  4.99461487318732  2.50185044394439 -1.75901236943694
 1  5.64932223982398  1.18712982048205 -2.85878460946095
 1  6.60903296619662  1.75977997799780 -0.27660501770177
 1  6.32429654905491  0.09953191579158  0.77552726942694
 1  7.19275666036604 -1.07667690289029 -1.25394671827183
 1  7.68813124902490  0.53768697679768 -2.06429935353535
 1  9.15101715331533  1.12850073507351  0.12935056725673
 1  8.89034752345235 -0.57315282148215  0.79270713441344
 1  10.28088563996400  0.06249878757876 -1.86384127362736
 1  9.12161714721472 -2.29987796429643 -1.75071099589959
 1  10.92546510221022 -2.12883966786679 -2.08405264916492
 1  10.12944583058306 -2.68853079507951 -0.40864030373037
 1  11.28112579347935  0.97827005720572  0.03120460796080
 1  11.30453350675068 -0.77540350165016  0.85135575717572
 1  12.67736105500550 -1.59952811401140 -1.02077974557456
 1  12.63633738623862  0.04819551055106 -1.77669103040304
 1  13.87172860956096  0.74762731873187  0.71160850385039
 1  13.78870162326233 -0.81344094879488  0.99406592309231
 1  15.28070135863586  0.29040852585259 -1.47297165516552
 1  15.68120556345635 -2.56555684778478 -0.14221567546755
 1  15.13014606530653 -1.90388276387639 -1.67798521362136
 1  16.92775240464047 -1.62893841874187 -1.31488295779578
 1  15.92633783448345  1.40627846154615  0.78572511681168
 1  16.68265271247125 -0.12713188828883  1.53074583578358
 1  18.31708264696470 -0.46856340374037 -0.34232757315732
 1  17.57149421392139  1.03701102000200 -1.21583515931593
 1  18.62575336793680  2.26884104180418  1.09607761306131
 1  19.15168232853285  0.82435661666167  1.75714571487149
 1  20.33793870657066  0.13522967116712 -0.12555549154915
 1  20.02511661826183  3.04489805170517 -0.93341693509351
 1  21.35810006210621  2.12607926072607 -1.46289765306531
 1  19.96228013241324  1.70095190599060 -1.95624259325933
 1  21.21498747394740  0.82829093819382  2.15438505570557
 1  22.40945265156515  1.42726395609561  0.81188615491549
 1  21.18176790669067  2.79534961826183  1.50564100460046
=======
12 -7.15208578157816  0.60840958905891 -0.00253256585659
 6 -4.89481409940994 -1.93199437783778  0.44776130883088
 6 -4.72559248814882  2.90658910621062  1.19008537343734
 6 -9.26761149664966  3.11086658215822 -0.46651951165116
 6 -9.55209552325233 -1.75327083808381 -0.78664509360936
 7 -5.16344976957696  0.46610642874287  0.73209362766277
 6 -4.31215092119212 -0.71818164016402  0.84309233243324
 6 -2.97482648804880 -0.46976640234023  1.24915526972697
 6 -3.09592303070307  1.03839650795080  1.68601933263326
 6 -4.44688168306831  1.51458220702070  1.22210924082408
 6 -2.95825090719072  1.18314060216022  3.25082649154916
 6 -1.91716517751775 -0.62576783818382  0.12680663896390
 6 -0.50337776037604 -0.46244059125913  0.56220034933493
 6  0.50628176537654 -0.72017553045305 -0.49905528602860
 8  0.32725396549655 -1.08819422702270 -1.64767109880988
 8  1.67280909140914 -0.30749814621462 -0.09939672857286
 7 -7.03025347324732  2.69465505530553  0.24324301980198
 6 -5.94036331533153  3.42068304410441  0.77950148374837
 6 -6.35811306440644  4.83821811121112  0.82926361356136
 6 -7.63922662966297  4.82099273077308  0.37422581388139
 6 -8.07168143974398  3.49393858915892  0.04682722902290
 6 -5.50057801450145  5.92836530243024  1.15660042054205
 6 -8.41643944154415  6.00915194889489  0.10967795319532
 6 -8.39370326162616  7.15541165976598  0.72052830263026
 7 -9.02588486108611  0.77879074017402 -0.57042107580758
 6 -9.76845310501050  1.85593554665467 -0.77148347244724
 6 -11.15780487708771  1.41938027712771 -1.16323804330433
 6 -11.20682308620862  0.05298066216622 -1.23101181518152
 6 -9.83784946564656 -0.39591156545655 -0.81937695379538
 6 -12.30295911961196  2.40285085608561 -1.48044481928193
 6 -12.30737528382838 -0.77140455055506 -1.73158396689669
 6 -12.18938642704270 -1.22615502670267 -3.22620773937394
 7 -7.18171764006401 -1.38329794339434 -0.26390106710671
 6 -8.30325056485649 -2.27862303440344 -0.53525848104810
 6 -7.80497664326433 -3.57732600010001 -0.54939221652165
 6 -6.49391327542754 -3.56536087308731 -0.13246497839784
 6 -6.18720131653165 -2.16835511681168  0.00132293649365
 6 -8.71872934033403 -4.80232307470747 -0.84077255565557
 6 -5.36489095939594 -4.32274615811581  0.12558543114311
 8 -5.25844468236824 -5.59413389678968  0.15546257695770
 6 -4.23253683308331 -3.32211800160016  0.60896076137614
 6 -3.63162379327933 -3.66498171947195  1.95118549144915
 8 -3.87412901350135 -3.22975971217122  3.02764544564456
 8 -2.86098729242924 -4.75818054045405  1.74927350825083
 6 -2.28646923482348 -5.48138236733673  2.94759969546955
 6  2.70394290599060 -0.55834362896290 -1.16467766816682
 6  3.95711780078008 -0.32214039033903 -0.54437458645865
 6  5.17451093549355  0.33566983238324 -0.94375414811481
 6  5.03452187518752  1.19396204550455 -2.29196336163616
 6  6.44371870467047  0.50097194739474 -0.19602608780878
 6  7.72527006490649 -0.10005035193519 -0.86628357885789
 6  9.07107898049805  0.03534840444044 -0.09421123392339
 6  10.32137276177618 -0.52713978567857 -0.78149912041204
 6  10.11425812601260 -2.01309224532453 -1.14788825382538
 6  11.42959583648365 -0.28002178297830  0.08562943154315
 6  12.74879978767877 -0.51758580968097 -0.68365838873887
 6  14.00477994639464 -0.32086328912891  0.28745581308131
 6  15.33657978287829 -0.29543327242724 -0.47839607940794
 6  15.67356902580258 -1.68063569736974 -0.96679629732973
 6  16.40393449934994  0.29117347734773  0.41395590279028
 6  17.84296888628863  0.53311470987099 -0.18757457205721
 6  18.73952432193219  1.40831904890489  0.66786721972197
 6  20.20690936013601  1.46783711721172  0.11072583578358
 6  20.18111946574658  2.16371466866687 -1.24191518421842
 6  21.18064899569957  2.14149708600860  1.18031339473947
 1 -3.99342082658266  3.44470999239924  1.69136372327233
 1 -9.90376076877688  3.93209404440444 -0.57713310481048
 1 -10.45156844624463 -2.33391273207321 -1.01696834903490
 1 -2.73835029192919 -1.07453576747675  2.25224591579158
 1 -2.13880748594860  1.65341892449245  1.20297094749475
 1 -2.07860231773177  0.78320877377738  3.64836855035504
 1 -2.98177323732373  2.21382544004400  3.53526569196920
 1 -3.83888733143314  0.55218990299030  3.71846425922592
 1 -1.98163064796480 -1.50557051745174 -0.19454336353635
 1 -2.04202587508751 -0.02627537713771 -0.73892393199320
 1 -0.33211672907291  0.65931054495450  0.75266566566657
 1 -0.31299910191019 -1.16058057325733  1.46636059125913
 1 -5.63389216461646  6.86232487658766  0.58063377257726
 1 -5.61110810021002  6.12748611171117  2.28261455855586
 1 -4.43329728572857  5.61297246364636  0.91487466306631
 1 -9.32265431793179  5.79421556965697 -0.50514074227423
 1 -8.86905812171217  8.11719245814581  0.62179180098010
 1 -7.61537100290029  6.90769716921692  1.62293067856786
 1 -12.09753385848585  3.25719604560456 -2.24219722442244
 1 -13.37842751195119  1.95986987818782 -1.86660785228523
 1 -12.51605333643364  2.91154980968097 -0.68041928592859
 1 -12.78387316571657 -1.81577102220222 -1.06553150805080
 1 -13.27123584248425 -0.18129486628663 -1.63203873137314
 1 -12.98614496709671 -1.89089377557756 -3.63437332183218
 1 -11.92991655585559 -0.50131466906691 -3.77933142884289
 1 -11.23243952325233 -1.94855972307231 -3.20718933893389
 1 -8.99286888988899 -4.69935067796780 -1.94139740384038
 1 -8.38714807960796 -5.78795880008001 -0.80797041004100
 1 -9.53131301620162 -4.68262328362836 -0.04789661226123
 1 -3.43862455835584 -3.40807405810581 -0.23360863236324
 1 -1.80603877037704 -4.89656609630963  3.57099001430143
 1 -3.15113472207221 -5.90487210481048  3.64749758865887
 1 -1.78033614511451 -6.58195746894689  2.53210716361636
 1  2.49436874097410 -1.63181501740174 -1.42813677867787
 1  2.45108258585859  0.12274655425543 -1.99570272247225
 1  4.13738464406441 -0.78585080028003  0.34359757575758
 1  4.10650961446145  1.09512822322232 -2.81083945364536
 1  5.55878128982898  2.27789804870487 -2.19916638483848
 1  5.54705201280128  0.83073418091809 -2.83766249724972
 1  6.79768183108311  1.37786178617862  0.13945658845885
 1  6.46712083148315 -0.01990002740274  0.73112282898290
 1  7.53123050775077 -1.15477471267127 -0.84611593519352
 1  7.84951738763876  0.19404261236124 -1.84000692429243
 1  9.15508756035604  0.91497938293829  0.22626025822582
 1  8.92340082878288 -0.63917942414241  0.90074793849385
 1  10.49918747014701 -0.06241370367037 -1.79752464196420
 1  9.32644763026303 -2.13427140364036 -1.93172909770977
 1  11.04548710441044 -2.52250903480348 -1.89115335923592
 1  9.78647153315332 -2.74091603360336 -0.27321676137614
 1  11.37361504240424  0.83369559975998  0.61616310381038
 1  11.46350940434044 -0.89181514281428  0.88069869146915
 1  12.55088840774077 -1.50551871307131 -1.12987065466547
 1  12.81712546504650  0.16444713571357 -1.56396975827583
 1  13.85151658835884  0.73675623162316  0.72606994999500
 1  13.95919867296730 -0.96296590129013  1.26402291879188
 1  15.51552484098410  0.29095858085809 -1.32766712471247
 1  15.57854529742974 -2.38760905300530 -0.19513096699670
 1  15.11413446414642 -1.77430980658066 -2.03558097319732
 1  16.78330796019602 -1.85274079897990 -1.24330580008001
 1  15.95690089078908  1.30730856455646  0.48931547584759
 1  16.30979542674267 -0.23771294639464  1.46956971817182
 1  18.22062300100010 -0.54664121152115 -0.23182652305231
 1  17.52854991949195  0.94517183608361 -1.37181075687569
 1  18.34806559915992  2.36501065876588  0.86029403470347
 1  18.66190335063506  0.93210739173917  1.76050605090509
 1  20.45329024172417  0.47564371257126 -0.37810074607461
 1  19.70386449304930  3.14378794069407 -1.07252084548455
 1  21.11711596369637  2.16700335313531 -1.70246160946095
 1  19.59544344874488  1.56811862266227 -2.03056002500250
 1  21.25179115431543  1.61162927202720  2.04577419461946
 1  22.31816352265226  2.18818004770477  0.73111807810781
 1  20.91635136503650  3.16090617391739  1.44921536203620
>>>>>>> 8e03b5b5abfc0030b3aa597dc0de36371bfbd096

