%nproc=4
%Mem=2GB
# td=(NStates=1) CAM-B3LYP/6-31G(d,p) 

TD

0 1
<<<<<<< HEAD
12 -7.11115168816882  0.62113086118612  0.19530721812181
 6 -4.84220883888389 -1.90388156655666  0.60562709540954
 6 -4.76963689258926  2.84002244954495  1.07975434033403
 6 -9.46432116761676  3.10107560306031 -0.28743160286029
 6 -9.50885119881988 -1.78253376437644 -0.86699312841284
 7 -5.09077250185018  0.43191300940094  0.73998441674167
 6 -4.37956766286629 -0.72341216321632  0.83671169436944
 6 -2.97489649504951 -0.39311873757376  1.25256561076108
 6 -3.07045048344834  1.14116678497850  1.70633136383638
 6 -4.40639763466347  1.51689243804380  1.16167319721972
 6 -3.01517659975998  1.28824111221122  3.19017042594259
 6 -1.91038449944994 -0.57176243764376  0.04539849814982
 6 -0.53153057565757 -0.40762510971097  0.47390151945195
 6  0.52036317351735 -0.67796130903090 -0.60873625412541
 8  0.21385262536254 -1.11769717731773 -1.70405673737374
 8  1.73716552705271 -0.43381077747775 -0.27099388828883
 7 -6.97783823172317  2.69526511631163  0.38254695019502
 6 -6.03465274427443  3.34555553135313  0.80425395899590
 6 -6.36982423552355  4.76428071747175  0.78095878307831
 6 -7.66892959996000  4.84942557405741  0.35159355065507
 6 -8.17168143974398  3.53015221052105  0.15247779407941
 6 -5.48242619931993  5.95343780968097  1.04278903940394
 6 -8.40383818141814  6.00093112681268  0.15510249564956
 6 -8.47979187048705  7.25244136273627  0.71722797259726
 7 -9.09548182078208  0.71678453955396 -0.49253328702870
 6 -9.90641690139014  1.76900685378538 -0.63528985308531
 6 -11.18938803540354  1.44160249934994 -1.08883060256026
 6 -11.21038344224422  0.05467083118312 -1.27407612161216
 6 -9.87504318501850 -0.35386736103610 -0.98897391349135
 6 -12.27919674337434  2.46224679567957 -1.44891166596660
 6 -12.32777732403240 -0.86099350945094 -1.86567737623762
 6 -12.18483597199720 -1.05433784498450 -3.36420153875388
 7 -7.19631910021002 -1.41921153475348 -0.20464514151415
 6 -8.17521776157616 -2.21407657975798 -0.58811376657666
 6 -7.79866601220122 -3.68576684418442 -0.48578585588559
 6 -6.46615049914992 -3.53276761376138 -0.06020775267527
 6 -6.23333592999300 -2.19802808410841  0.13596640084008
 6 -8.63294076147615 -4.77949079147915 -0.79817829622962
 6 -5.28207267756776 -4.35835971947195  0.23718659125913
 8 -5.16463530143014 -5.58658314171417  0.26499353005301
 6 -4.10832441184118 -3.34367015681568  0.59636950225023
 6 -3.49560019091909 -3.67196241754175  1.97678805170517
 8 -3.65328692929293 -3.10493722992299  3.05708838993899
 8 -2.61488268196820 -4.68647336973697  1.82048062896290
 6 -2.10240082798280 -5.26229045814581  3.09105404090409
 6  2.69705221692169 -0.68585638023802 -1.20451165156516
 6  4.09962205120512 -0.42234041034103 -0.54181433043304
 6  5.01623510791079  0.45282154755476 -1.14651442414241
 6  4.82837126012601  1.24611726102610 -2.31632579787979
 6  6.42373670647065  0.42803465366537 -0.39889637483748
 6  7.60065760366037 -0.13387373427343 -1.16022297279728
 6  8.92111398399840 -0.20702583298330 -0.30836264906491
 6  10.12014263876388 -0.63090016171617 -1.06658762926293
 6  10.07406410661066 -2.13424436053605 -1.38009147414741
 6  11.41681455835584 -0.36969074987499 -0.12350148154815
 6  12.76048095579558 -0.61456550765077 -0.73962398529853
 6  13.97512698109811 -0.12193339613961  0.16075314281428
 6  15.31286741164116 -0.19075280438044 -0.49635787558756
 6  15.70070173907391 -1.54967260106011 -1.04438405610561
 6  16.41796590249025  0.37418177817782  0.49666417361736
 6  17.82890748014801  0.49593099149915 -0.15878169276928
 6  18.77097746724672  1.19394761176118  0.91084151715172
 6  20.21387005620562  1.42153248674867  0.32728749194919
 6  20.31288264206421  2.30701899909991 -0.89720071277128
 6  21.05216614741474  1.93795673197320  1.48857422082208
 1 -4.09241072557256  3.59228474987499  1.42715730263026
 1 -10.22579297199720  3.89633046804680 -0.43488888038804
 1 -10.11742503190319 -2.68293763456346 -1.33103975617562
 1 -2.82508896579658 -1.20803911781178  2.07469816101610
 1 -2.18275188038804  1.53911749434944  1.25739639003900
 1 -1.98689314681468  1.12901335423542  3.56689040254025
 1 -3.24391945194520  2.28827288478848  3.68668083348335
 1 -3.73769721242124  0.62277696169617  3.62770518331833
 1 -2.15325781068107 -1.60648060846085 -0.28014192339234
 1 -2.19703137563756 -0.02928567816782 -0.64894493409341
 1 -0.46039955735574  0.51352596649665  1.04528492759276
 1 -0.52165996799680 -0.95419993519352  1.48753270847085
 1 -6.04773354875488  6.88782742684268  0.58908461766177
 1 -5.46750373977398  6.02903626672667  2.24444074117412
 1 -4.51998595459546  5.66859802620262  0.56876005160516
 1 -9.10321237373737  5.80340648874887 -0.82227245544554
 1 -9.31412262816282  7.94934567346735  0.51118073987399
 1 -7.74294376017602  7.65629202870287  1.58014640014001
 1 -12.11772587768777  3.14394472047205 -2.21490449514951
 1 -13.19860953015301  1.91592548374838 -1.62671386288629
 1 -12.35433716481648  3.09484813951395 -0.46001724572457
 1 -12.44771955035504 -1.76551599669967 -1.29864481938194
 1 -13.52266098499850 -0.54478121492149 -1.77166269376938
 1 -13.01012736533653 -1.44987967416742 -3.97118700320032
 1 -11.76397996219622 -0.06195073267327 -3.61169466516652
 1 -11.17384366366637 -1.78184305140514 -3.45269388938894
 1 -9.01907151015102 -4.68473921682168 -1.76847011111111
 1 -8.05709507430743 -5.82429243344334 -0.78213782678268
 1 -9.38497838273828 -5.03523854515452 -0.12829465206521
 1 -3.32718341424142 -3.59316256695670 -0.19734500600060
 1 -1.87777594409441 -4.38766520622062  3.62400531583158
 1 -3.00215982458246 -6.17015863346335  3.55510834973497
 1 -1.16467457895790 -5.74324359755976  2.79882383528353
 1  2.67135643974397 -1.74644648054805 -1.56835080008001
 1  2.35714319191919 -0.07475319571957 -2.14654780698070
 1  4.46579748534853 -0.87997021222122  0.36949016501650
 1  3.75619458295830  1.15597430783078 -2.80946931663166
 1  5.07166257795780  2.22661292019202 -2.11010747894789
 1  5.36797410501050  0.78170927842784 -2.92404113511351
 1  6.77864992789279  1.55567956795680 -0.22392975017502
 1  6.42771689108911 -0.09865790319032  0.70158987568757
 1  7.28402578727873 -1.13576281148115 -1.34755607920792
 1  7.77603003890389  0.37297050515052 -1.98470139373937
 1  9.28674072567257  0.85095298029803  0.16559419161916
 1  9.03232172087209 -0.86829233543354  0.55169303300330
 1  10.22046959835984  0.00418295599560 -1.87840272977298
 1  9.09025401090109 -2.51137911441144 -2.07079300410041
 1  10.93618617431743 -2.49421620552055 -2.08268251215122
 1  10.19358224422442 -2.68648059005901 -0.47538697839784
 1  11.40958863976398  0.73569579977998  0.19696118361836
 1  11.31330438383839 -0.93090905220522  0.99139976157616
 1  12.89450276917692 -1.70181834303430 -0.99609727732773
 1  12.93888764126413 -0.23982329132913 -1.78224158545855
 1  13.41339277597760  0.72167472347235  0.66169351235124
 1  13.92407516061606 -0.90585018971897  1.02975949244925
 1  15.26885017351735  0.46474595959596 -1.28060241824182
 1  15.77933537643765 -2.36590688278828 -0.32718417231723
 1  15.13589664036404 -2.26103847944795 -1.91426884198420
 1  16.68509813921392 -1.47805333023302 -1.67864933443344
 1  16.14458965966596  1.34745257895790  0.66348289258926
 1  16.61471591879188 -0.23735291039104  1.18591135233523
 1  18.29523046174618 -0.50573712111211 -0.59570291069107
 1  17.78187525202521  1.25606292519252 -0.94415799159916
 1  18.37763855645565  2.31898605630563  1.25953395869587
 1  18.90263742404241  0.59332351335133  1.91036103640364
 1  20.62778769146915  0.37912406060606  0.08944600860086
 1  19.94101820842084  3.30402396429643 -0.55605919931993
 1  21.33451770387039  2.59856650945094 -1.10522188548855
 1  19.68175207960796  2.18713052385239 -1.86926389538954
 1  21.21207718291829  1.23527163626363  2.38575819301930
 1  22.22605431173117  1.94691592129213  1.17717268356836
 1  20.71081081098110  3.07803788708871  1.73159359985999
=======
12 -7.08236880988099  0.64228297639764 -0.01724403700370
 6 -4.80472509050905 -1.94024520292029  0.46191272397240
 6 -4.85035496439644  2.86793524082408  1.03717008190819
 6 -9.38035277077708  3.09271476697670 -0.55393825352535
 6 -9.49944025772577 -1.75677118811881 -0.97305373447345
 7 -5.02320574517452  0.47265708380838  0.66514693299330
 6 -4.25138484458446 -0.66806662866287  0.81894991819182
 6 -2.88279728512851 -0.30546997269727  1.17307766196620
 6 -3.07236067446745  1.07668033633363  1.70629135983598
 6 -4.33969096399640  1.53931468026803  1.08586561646165
 6 -2.99294437653765  1.01998428652865  3.32993440234023
 6 -1.92637609860986 -0.48758401980198  0.00493445174517
 6 -0.41936935953595 -0.66073042024202  0.48258238753875
 6  0.57882902010201 -0.89388290119012 -0.61270665116512
 8  0.32325356545655 -1.34746015361536 -1.71225755745575
 8  1.86368817931793 -0.51374877127713 -0.17734452335234
 7 -7.06922737063706  2.59903549334933  0.24084277977798
 6 -6.01199047804780  3.38183915971597  0.72574610821082
 6 -6.44035128822882  4.78870315971597  0.87446813401340
 6 -7.73636634363436  4.81890252175218  0.34368275957596
 6 -8.13958823042304  3.52084127942794  0.08498104440444
 6 -5.56814477117712  5.82007447334733  1.50523528402840
 6 -8.57248504610461  6.03472450615062  0.11777876327633
 6 -8.51036492779278  7.18514463306331  0.72509875967597
 7 -9.11004327692769  0.70889375047505 -0.64078811251125
 6 -9.85157141684168  1.78869882298230 -0.69282560666067
 6 -11.23353244984498  1.42816115521552 -1.09167088658866
 6 -11.29791219511951  0.13694905900590 -1.28718743274327
 6 -9.90235591629163 -0.40772274657466 -0.98910392649265
 6 -12.35806463016302  2.44887545854585 -1.34040081488149
 6 -12.40284483078308 -0.83985139523952 -1.63956476497650
 6 -12.23874136253625 -1.11391380258026 -3.26822194079408
 7 -7.12766223452345 -1.41289090269027 -0.20071474847485
 6 -8.26344658445845 -2.26600177227723 -0.66123107830783
 6 -7.82755890149015 -3.62100036753675 -0.57903518081808
 6 -6.47567145124512 -3.52716705370537 -0.08119985188519
 6 -6.17488008440844 -2.15531381268127  0.09211201540154
 6 -8.59519698709871 -4.79768261066107 -0.83956243464346
 6 -5.37056152645265 -4.34757864136414  0.22216508910891
 8 -5.15279411731173 -5.52419690309031  0.20905793649365
 6 -4.14785836523652 -3.19095488528853  0.62248211351135
 6 -3.70676130703070 -3.69827504880488  2.00891126402640
 8 -4.08503010361036 -3.15795253145315  3.14587726882688
 8 -2.81373256695670 -4.71425614801480  1.94298287918792
 6 -2.35621620952095 -5.13913814291429  3.19461439693969
 6  2.85878839053905 -0.74201199579958 -1.20177137753775
 6  4.19450153915392 -0.44686286258626 -0.58433858285829
 6  5.12622610701070  0.45226149154916 -1.01889166186619
 6  5.01803022602260  1.21800444974497 -2.26865103040304
 6  6.43218755155516  0.47311916211621 -0.19115560076008
 6  7.61947948584859 -0.02833318021802 -0.93841079157916
 6  8.84631650425043  0.08653352295230 -0.15314712751275
 6  10.15866649114911 -0.39842691439144 -0.83151412191219
 6  10.06346304650465 -1.83957489358936 -1.34913837883788
 6  11.45554843174317 -0.11876565736574  0.08149901850185
 6  12.82637754545454 -0.43111716281628 -0.69738976187619
 6  13.99571904030403 -0.09447064986499  0.28680574807481
 6  15.29327545244525 -0.15110883998400 -0.49763800360036
 6  15.61275294419442 -1.61753938773877 -0.87351696939694
 6  16.53486759265927  0.38118247824782  0.42535704290429
 6  17.92318690809081  0.34890628902890 -0.22027784238424
 6  18.83297366686669  1.23385160216022  0.75237567056706
 6  20.21767043624362  1.28046838033803  0.12730749394939
 6  20.31600295409541  2.16399469666967 -1.16221721442144
 6  21.29161009180918  1.85920885718572  1.20782614601460
 1 -4.22874435893589  3.72437795919592  1.45910049694969
 1 -10.21608200090009  3.86283711871187 -0.63069846134614
 1 -10.23239652905291 -2.68936827762776 -1.12947960016002
 1 -2.78704516141614 -1.03661197509751  1.92653334453445
 1 -2.25042864806481  1.69811339393939  1.33405405580558
 1 -1.94279873737374  0.91716216911691  3.44559827332733
 1 -3.16519157915792  1.89717377487749  3.82000416581658
 1 -3.70731417411741  0.14188887288729  3.75850826362636
 1 -2.06984946984698 -1.49200916131613 -0.51001491069107
 1 -2.04341601410141  0.04492174257426 -0.83471351095110
 1 -0.02500601800180  0.28555316921692  1.21040143924392
 1 -0.31702950495049 -1.40611512671267  1.21442539773977
 1 -5.65289406480648  6.93302194629463  1.16825253445344
 1 -5.86525351475148  5.93053641674167  2.59336563366337
 1 -4.33236719271927  5.89680084648465  1.29760293589359
 1 -9.24455650815081  6.01675782388239 -0.70249047724772
 1 -9.32858407430743  7.98464920382038  0.64580420222022
 1 -7.70411987778778  7.13815021452145  1.44857324282428
 1 -11.81375548064807  3.29335966196620 -2.12098510321032
 1 -13.29566923612361  2.11027491869187 -1.83145433693369
 1 -12.64622635373537  3.08051670637064 -0.47964920892089
 1 -12.26682146054605 -1.83157260236024 -1.17824277917792
 1 -13.26339505840584 -0.44138087488749 -1.33380890839084
 1 -12.89710606320632 -1.95863054925492 -3.89754963946395
 1 -12.42182574677468 -0.05614015161516 -3.64153764946495
 1 -11.22959923922392 -1.45922078917892 -3.40460908090809
 1 -8.90610021302130 -4.99486022892289 -2.05587885198520
 1 -8.08616798159816 -5.73954395859586 -0.72396200920092
 1 -9.58521840674067 -4.58844386568657 -0.30772259485949
 1 -3.42854355025502 -3.52469572027203 -0.17143241474147
 1 -1.72122028852885 -4.22815925562556  3.72534544984498
 1 -3.17841745034504 -5.74752637023702  3.61644448334834
 1 -1.62656076757676 -5.82648192139214  2.63114706760676
 1  2.73596290039004 -1.72978481438144 -1.65509947494749
 1  2.46059353695370 -0.18061378177818 -2.08410156235624
 1  4.56043694929493 -0.98122033723372  0.41965518151815
 1  4.03994295779578  1.48476718711871 -2.38557692739274
 1  5.27534294599460  2.22467272617262 -2.18665513371337
 1  5.41071837943794  0.95380648814881 -3.30044877587759
 1  6.58658072097210  1.55531953195319  0.04994763756376
 1  6.35818993839384 -0.09220725812581  0.72028174487449
 1  7.34751213591359 -1.01639087428743 -1.20113143674367
 1  7.80251268716872  0.51710491859186 -1.66398932253225
 1  8.72459451105111  1.13999188418842  0.31886951915192
 1  8.72493098179818 -0.53205871207121  0.61543940764076
 1  10.22373992539254  0.16938947664766 -1.72946783628363
 1  9.10339532503250 -2.16108408490849 -1.73456938173817
 1  10.78469102480248 -2.02533931783178 -2.01349559345935
 1  10.23379626562656 -2.39545148714872 -0.45634507420742
 1  11.58830651155115  0.71374360456046  0.42762424992499
 1  11.37699075247525 -0.72313827512751  0.85442606420642
 1  12.94829814871487 -1.42458061926193 -0.98445611321132
 1  12.91437519001900  0.17724841584158 -1.60903426472647
 1  13.86538797549755  0.75956851285129  0.94813215621562
 1  14.20976372947295 -1.02470207490749  1.00873739023902
 1  15.32672596109611  0.34126361136114 -1.45500985898590
 1  15.84400184308431 -2.42287257935793 -0.09581103500350
 1  14.79319236993699 -2.09853222882288 -1.51810922602260
 1  16.50131976137614 -1.73489901480148 -1.53790526002600
 1  16.19056425712571  1.54354218791879  0.76604314861486
 1  16.47103155035503 -0.31518069316932  1.42556531773177
 1  18.32707364606461 -0.62951949934994 -0.33499684008401
 1  17.78807587208721  0.76124344324432 -1.23813738953895
 1  18.57310810341034  2.23466762446245  0.93796180148015
 1  19.01464862516252  0.72552673367337  1.68881888218822
 1  20.57216212891289  0.21675782398240 -0.13237617361736
 1  20.01697580418042  3.20282384428443 -0.84905849924992
 1  21.26126037813782  2.06387304010401 -1.80468183148315
 1  19.59955385978598  1.93635544634463 -1.87762473147315
 1  20.96215219041904  1.23137124622462  2.19463908110811
 1  22.37006871317132  1.70906213591359  0.83440840714071
 1  21.01600133003301  2.87038712201220  1.35327576807681
>>>>>>> 8e03b5b5abfc0030b3aa597dc0de36371bfbd096

