%nproc=4
%Mem=2GB
# td=(NStates=1) CAM-B3LYP/6-31G(d,p) 

TD

0 1
12 -7.12232280528053  0.61848059615962  0.11658934633463
 6 -4.85823044104410 -1.91380255865587  0.64200073277328
 6 -4.80402033093309  2.88883733103310  1.08816518141814
 6 -9.43648838433843  3.03612910841084 -0.53045590529053
 6 -9.45406572027203 -1.84982049304931 -0.86927335643564
 7 -5.15513893849385  0.46275609370937  0.73770418871887
 6 -4.34074378047805 -0.66253607560756  0.86263428662866
 6 -2.95108411381138 -0.26595602130213  1.30295064926493
 6 -3.05768920732073  1.12692536083608  1.65215594629463
 6 -4.44425142004200  1.48161891069107  1.09270630053005
 6 -3.16445152725273  1.39833212131213  3.21264267316732
 6 -1.90743420442044 -0.53974923632363  0.20520447874787
 6 -0.54141156375638 -0.41134548174817  0.56634076337634
 6  0.44466560376038 -0.61578509140914 -0.64529991049105
 8  0.16808804890489 -1.17897330493049 -1.74380071177118
 8  1.73166497699770 -0.38594599099910 -0.33775056395640
 7 -7.10850129802980  2.62912850265027  0.33656235173517
 6 -5.99069834883488  3.35346632243224  0.74299783338334
 6 -6.45710296339634  4.68284257365737  0.81674236143614
 6 -7.79607231423142  4.79184981648165  0.41530992229223
 6 -8.18524279587959  3.47322651795180  0.09492203850385
 6 -5.42441039773977  5.71331379727973  1.20248500900090
 6 -8.50436823442344  6.00956198989899  0.19271625702570
 6 -8.42820671197120  7.17342346094609  0.93594984478448
 7 -9.05134740734073  0.63911677277728 -0.53289732343234
 6 -9.80346660636063  1.79069902300230 -0.69188551265126
 6 -11.00946004260426  1.42660099919992 -1.27399911941194
 6 -11.19548195209521  0.05245060916092 -1.32337105110511
 6 -9.86509218991899 -0.44127610191019 -0.91882689878988
 6 -12.23503232693269  2.39809038003800 -1.43089986478648
 6 -12.37327187348735 -0.77707511761176 -1.75831664016402
 6 -12.12346983538354 -1.07105951715172 -3.27663278187819
 7 -7.17533700200020 -1.44117373097310 -0.09638431543154
 6 -8.24439467926793 -2.26698187028703 -0.53013796899690
 6 -7.72775892149215 -3.67616588408841 -0.52991026832683
 6 -6.42303618771877 -3.57813215021502 -0.07496922882288
 6 -6.11116371277128 -2.20481876317632  0.08169097329733
 6 -8.53789125652565 -4.84255709810981 -0.89329780818082
 6 -5.28495296559656 -4.37051093459346  0.19323219581958
 8 -5.09845868376838 -5.58665314871487  0.29275630633063
 6 -4.14125770517052 -3.23727951775178  0.64657452275228
 6 -3.48395902680268 -3.63236845814581  1.97982835573557
 8 -3.70546214681468 -3.05298203440344  2.99986266736674
 8 -2.62502369606961 -4.64085880828083  1.83653223412341
 6 -2.00115070297030 -5.24053828292829  2.98816375187519
 6  2.71543405510551 -0.60918871347135 -1.30460166056606
 6  4.05936802580258 -0.22505068136814 -0.66821697069707
 6  5.13074655905590  0.44797106250625 -1.05366513921392
 6  5.04910333333333  1.31314396369637 -2.24132829812981
 6  6.35244957775778  0.47675952615262 -0.30310679587959
 6  7.52450998889889 -0.09829017591759 -0.99878682918292
 6  8.87695956855686 -0.07940307070707 -0.13973578637864
 6  10.16814743924392 -0.64601167286729 -0.89570054055406
 6  10.00444714491449 -2.16462739883988 -1.28498196319632
 6  11.34967784468447 -0.45985976677668 -0.07603673507351
 6  12.75321022872287 -0.50244429552955 -0.78498852175218
 6  13.86599606800680 -0.05973717651765  0.10290735823582
 6  15.26771289618962 -0.18888261736174 -0.56213445324532
 6  15.58432010091009 -1.70020765456546 -0.79922954065407
 6  16.36564066996700  0.41800616061606  0.37315182238224
 6  17.81573616301630  0.55542694109411 -0.24729054365437
 6  18.70869123862386  1.20742895989599  0.77196762976298
 6  20.19899856905690  1.26938727222722  0.34218898209821
 6  20.48157951175117  2.15362365956596 -1.05090608330833
 6  21.10641157195720  1.80805374167417  1.49042440584058
 1 -3.88230971547155  3.57383290469047  1.39425401230123
 1 -10.24428482118212  3.83703453845385 -0.85328071957196
 1 -9.96170946034603 -2.71412075287529 -1.18229488168817
 1 -2.52616907380738 -0.88140645454545  2.16183687488749
 1 -2.30576418161816  1.73779736233623  1.26549720012001
 1 -1.96407086458646  1.31331178407841  3.66493020652065
 1 -3.53496855685569  2.39614367186719  3.35262742814281
 1 -3.73406684938494  0.48541322532253  3.60364277707771
 1 -2.13647613251325 -1.64897485788579 -0.19244315351535
 1 -2.07484915741574  0.25633288368837 -0.74690473007301
 1 -0.35638915631563  0.69715432933293  0.78678907800780
 1 -0.45405320732073 -1.10138465366537  1.28882283748375
 1 -5.92267104250425  6.78380702480248  0.84295000420042
 1 -5.39357634703470  5.87766112921292  2.43599989708971
 1 -4.53139709570957  5.57018818521852  0.95729890549055
 1 -9.28876092859286  6.07983413151315 -0.49464969316932
 1 -8.92667388328833  8.01403214211421  0.57648727052705
 1 -7.79993945974598  7.51424782428243  1.82601098659866
 1 -12.02544664976498  3.12212253825383 -2.47011001570157
 1 -13.12187185638564  1.99396328752875 -1.77016820832083
 1 -12.51068279937994  3.24074272897290 -0.69701094509451
 1 -12.33920869926993 -1.76693613871387 -1.17099205410541
 1 -13.48281700060006 -0.19595633243324 -1.48883441094109
 1 -13.26431278387839 -1.63765845204520 -3.46693657815782
 1 -12.06601016521652 -0.14007854545455 -3.81589508520852
 1 -11.28445472477248 -1.63811867896790 -3.56360498049805
 1 -8.69694929792979 -4.86474721762176 -1.98904216831683
 1 -7.87893725852585 -5.88690869506951 -0.59092870587059
 1 -9.36800668556856 -4.87312233353335 -0.30152197479748
 1 -3.36905760166017 -3.32601585228523 -0.07395266676668
 1 -1.13451161766177 -4.59523596329633  3.46800971627163
 1 -2.81185079367937 -5.63207482508251  3.63418625752575
 1 -1.36162427392739 -6.03552282548255  2.68710266316632
 1  2.80661996609661 -1.81985382128213 -1.60197416241624
 1  2.38881635923592 -0.26963268366837 -2.44530768296830
 1  4.22131303690369 -0.89368158335834  0.19142235823582
 1  4.01880084358436  1.62556126652665 -2.55648401810181
 1  5.39646505820582  2.30454071297130 -2.09247571577158
 1  5.61459876747675  0.76011711921192 -3.04642337333733
 1  6.68223028592859  1.48749274927493 -0.05949330653065
 1  6.07718183758376  0.01543350595060  0.73236295299530
 1  7.28731611631163 -1.15433466866687 -1.28296962056206
 1  7.69880231613161  0.69985319341934 -1.89381230483048
 1  8.92842489408941  1.09577746274627  0.07239487168717
 1  8.72236072477248 -0.56447195339534  0.94763262696270
 1  10.24180173157316 -0.14185164746475 -1.82313720322032
 1  9.09966495199520 -2.43076105260526 -1.80051597639764
 1  10.87269982568257 -2.52140892479248 -1.98129237313731
 1  9.98739162516252 -2.77191913391339 -0.40358979867987
 1  11.30758843974397  0.53435566576658  0.39381086858686
 1  11.33716677007701 -1.17210317161716  0.77958858045805
 1  12.86523984288429 -1.35391355255526 -0.99897756535654
 1  12.75594934743474  0.22802349334934 -1.80213357465747
 1  13.44361579827983  1.01933448944894  0.21616895989599
 1  13.88916166926693 -0.73772337703770  0.84502101860186
 1  15.11507479597960  0.39554903990399 -1.49164352235224
 1  15.69630707360736 -2.18920921302130  0.14125267136714
 1  14.83289634033403 -2.10529290489049 -1.33532094719472
 1  16.57070670007001 -1.71975750065006 -1.46839830933093
 1  15.98642384308431  1.36157399109911  0.67548409270927
 1  16.51833628082808 -0.16760593569357  1.19870263146315
 1  17.97095803450345 -0.42137868526853 -0.46834017441744
 1  17.66405346984699  1.00955827472747 -1.30899447524752
 1  18.50896168876888  2.42554671237124  0.83918192349235
 1  18.73143030333033  0.56166034703470  1.64272427272727
 1  20.51688660136014  0.26349249744974  0.18540560456046
 1  20.12220632723272  3.15308887078708 -0.79780337373737
 1  21.62653690579058  2.32005865866587 -1.20835219851985
 1  19.99448335273528  1.70634244504450 -1.86730369936994
 1  21.12326830203020  0.98914702380238  2.17744736193619
 1  22.22740444674467  2.13567479717972  0.97247221352135
 1  20.50583031293129  2.62370245354535  1.80661110161016

