%nproc=4
%Mem=2GB
# td=(NStates=1) CAM-B3LYP/6-31G(d,p) 

TD

0 1
12 -7.12095266826683  0.60752950105011  0.07118480588059
 6 -4.84525914391439 -1.99754093249325  0.47719425212521
 6 -4.81617154605461  2.75342378967897  1.15974233913391
 6 -9.41768650415042  3.15025052055206 -0.48131099079908
 6 -9.54702501620162 -1.65967147814782 -0.90425685478548
 7 -5.10624404900490  0.39975979407941  0.74416483478348
 6 -4.35011471757176 -0.71716153815382  0.79946796999700
 6 -2.91359036443644 -0.39360878657866  1.31026138033803
 6 -3.05270870927093  1.06661933023302  1.75290602130213
 6 -4.38793578847885  1.42148289708971  1.15593262316232
 6 -3.02726780888089  1.30508279637964  3.34161557045705
 6 -1.90892435343534 -0.64058932033203  0.16978093639364
 6 -0.47194461706171 -0.59465381258126  0.67905203450345
 6  0.54596573377338 -0.76346985988599 -0.49833521402140
 8  0.26110735083508 -1.08458386598660 -1.56772310401040
 8  1.77064887538754 -0.36146354275428 -0.06181297019702
 7 -7.10934138203820  2.62350794059406  0.37805650115012
 6 -6.06038531753175  3.34439541534153  0.78485201880188
 6 -6.41581883498350  4.73412770217022  0.75846653385339
 6 -7.69814252125213  4.79849048054805  0.36383477477748
 6 -8.14596886848685  3.46214540984098  0.02256480278028
 6 -5.59196715341534  5.83646611251125  1.12141690219022
 6 -8.50989878747875  6.00299133283328  0.06718370377038
 6 -8.45423931523152  7.18720483908391  0.68792504230423
 7 -9.04260653325333  0.71506436753675 -0.56514054775478
 6 -9.83656991669167  1.84810476357636 -0.68858518261826
 6 -11.22659175577558  1.53784212331233 -1.15603732323232
 6 -11.21506391029103  0.15882124622462 -1.33841255525553
 6 -9.89921560226023 -0.31511348564856 -0.86246126222622
 6 -12.29487831153115  2.43670424142414 -1.44049082388239
 6 -12.36983152945295 -0.64628203830383 -1.80577138563856
 6 -12.26744423282328 -1.13217562876288 -3.32705782438244
 7 -7.20175964426443 -1.34417403100310 -0.26884156115612
 6 -8.29820005980598 -2.18678385048505 -0.58703365856586
 6 -7.95530167576758 -3.57352562006201 -0.38137541484148
 6 -6.61894577867787 -3.54426876387639 -0.06712844474447
 6 -6.20406300270027 -2.12978125942594  0.06287909210921
 6 -8.70434790219022 -4.77766060846085 -0.83661213961396
 6 -5.51936640694069 -4.33681756525653  0.36409928252825
 8 -5.45839467736774 -5.55981046444644  0.40371740244024
 6 -4.30522410181018 -3.35068085788579  0.49333919921992
 6 -3.59758038893889 -3.73224844614461  1.82929330223022
 8 -3.83575517611761 -3.12544928112811  2.85943862496250
 8 -2.74065525922592 -4.75471019341934  1.72526110701070
 6 -2.22963355125513 -5.39104333343334  2.92994793029303
 6  2.79928243994399 -0.73697149174918 -1.04746594699470
 6  4.16552864186419 -0.47626580288029 -0.42330247924792
 6  5.23333681808181  0.20130639603960 -0.87471724442444
 6  5.08218664166417  1.03660630993099 -2.11880604590459
 6  6.53819815261526  0.31037288748875 -0.16420290549055
 6  7.67913545144514 -0.30855120202020 -1.02006895739574
 6  9.00793266586659 -0.16463159355936 -0.26131794459446
 6  10.26483710821082 -0.52499957165717 -1.02791376187619
 6  10.11171787198720 -1.83653458955896 -1.72917638263826
 6  11.45717859475948 -0.34234801560156 -0.15162429382938
 6  12.81505641334133 -0.50036408750875 -0.82262228512851
 6  14.02697216561656 -0.02446364916492  0.05377244474447
 6  15.48139426432643 -0.24241797089709 -0.51458969876988
 6  15.73694536343634 -1.69431706550655 -0.84632425012501
 6  16.44034814071407  0.48717307730773  0.40799530673067
 6  17.88615320472047  0.69128052645265 -0.19179499409941
 6  18.81556192569257  1.44392260926093  0.76351678467847
 6  20.28150681988199  1.51236156965697  0.30805556875688
 6  20.53643499729973  2.15308360556056 -1.04848584128413
 6  21.20973190399040  2.06516945324532  1.41785714911491
 1 -3.90480196469647  3.38611413281328  1.53231781868187
 1 -10.08781917461746  4.13974480948095 -0.67073246474647
 1 -10.47666095549555 -2.28141748254825 -0.90132678487849
 1 -2.76073253015301 -1.24209252315231  2.10266095729573
 1 -2.24837844304431  1.76841042364236  1.39851050145014
 1 -1.99030348784879  1.27765821872187  3.69812352585258
 1 -3.36131119111911  2.43900795829583  3.62120428582858
 1 -3.79258270097010  0.56978166216622  3.75393780658066
 1 -2.10369285418542 -1.62796275667567 -0.35203911311131
 1 -2.22616428892889  0.11662891329133 -0.43377341694169
 1 -0.12662618001800  0.42709732363236  0.94866526562656
 1 -0.42568037003700 -1.29963447864787  1.70169412461246
 1 -5.97422619801980  6.72932157625763  0.94112982218222
 1 -5.51128811821182  5.96651001410141  2.24431072817282
 1 -4.59020297629763  5.61740290669067  0.70549372497250
 1 -9.29341139363936  5.92488863696370 -0.60655088328833
 1 -9.16248746464646  8.10052079097910  0.56578620042004
 1 -7.97424689048905  7.43641004050405  1.66449483498350
 1 -12.23694779987999  2.92959328532853 -2.49601260596060
 1 -13.44547421662166  1.78085197639764 -1.29827101860186
 1 -12.20824255535554  3.40819947464746 -0.62546379037904
 1 -12.37476225462546 -1.62490193529353 -1.23968892379238
 1 -13.30545926482648 -0.20663740054005 -1.58960448794879
 1 -13.12245859845985 -1.80354504070407 -3.58323820832083
 1 -12.14243780798080 -0.33738827642764 -3.95278877457746
 1 -11.35338161746175 -1.72927779487949 -3.64760338033803
 1 -9.11775137813781 -4.71326206910691 -1.83281654575458
 1 -8.03041240604060 -5.59639964416442 -0.74982459545955
 1 -9.60583046794679 -4.92945796709671 -0.12541436403640
 1 -3.58484918081808 -3.57885113581358 -0.28803407490749
 1 -1.65737390389039 -4.47485392509251  3.57577049234924
 1 -3.00523013161316 -5.74137575517552  3.60165300420042
 1 -1.57025513701370 -6.21024029722972  2.89599355225522
 1  2.83347265136514 -1.74366620252025 -1.25774973997400
 1  2.61233871147115 -0.11676739713971 -1.97786093829383
 1  4.23231413701370 -1.11229344454445  0.57708092409241
 1  3.93635259875988  1.03614232463246 -2.58099646934693
 1  5.56986239793979  1.86409666856686 -1.97836430463046
 1  5.46134344194419  0.37006811431143 -3.03002173317332
 1  6.78264032693269  1.37773177317732 -0.02441979917992
 1  6.48346246564657 -0.14144218161816  0.73712342904290
 1  7.45129251395139 -1.17039627482748 -1.43041436503650
 1  7.70699313521352  0.31505471357136 -1.98915183878388
 1  9.04119617121712  0.91462934793479  0.09950758295830
 1  8.97140562926293 -0.76727223342334  0.59041690539054
 1  10.35366291769177  0.22857539523952 -1.89287417691769
 1  9.19539452495249 -1.92841081758176 -2.38973489828983
 1  10.89760231593159 -2.09616640054005 -2.41937618151815
 1  10.14295718171817 -2.84024596659666 -0.92218165786579
 1  11.35282296319632  0.53788601880188  0.01554304180418
 1  11.34185723912391 -0.94744070537054  0.67717833943394
 1  12.95568888778878 -1.60929909110911 -0.93920158775878
 1  12.98596234873487  0.13505419641964 -1.73340670197020
 1  13.87235867256726  0.96593914991499  0.37556489948995
 1  14.10207296039604 -0.71884148884888  0.96541305780578
 1  15.27003029152915  0.26343582858286 -1.68498285628563
 1  16.04277172007201 -2.19305959805981  0.10721926802680
 1  14.91192424312431 -2.22320469606961 -1.34916233133313
 1  16.62731236063606 -1.73837936283628 -1.43412488198820
 1  16.11744694539454  1.49395722942294  0.42755930023002
 1  16.57415186238624  0.10856168106811  1.43107586878688
 1  18.27866880558056 -0.40441698909891 -0.34334767516752
 1  17.74142120662066  1.11690900980098 -1.38966254205421
 1  18.55188598119812  2.40071422912291  1.04690269556956
 1  18.73770093039304  0.74027820882088  1.55021502180218
 1  20.54329924262426  0.49407555575558  0.33055011901190
 1  19.99191329792979  3.26397995989599 -1.03289688308831
 1  21.49674392649265  2.32102875567557 -1.23556491979198
 1  20.05828973337334  1.45388719951995 -1.84573154215422
 1  21.09503547874787  1.54165227432743  2.34954457165717
 1  22.28608031433143  1.88785001470147  1.12520748704871
 1  21.07352708260826  3.29920000330033  1.54262470297030

