%nproc=4
%Mem=2GB
# td=(NStates=1) CAM-B3LYP/6-31G(d,p) 

TD

0 1
<<<<<<< HEAD
12 -7.20381095409541  0.60665941404140  0.06836452385239
 6 -4.90162478047805 -1.92241341974197  0.50685721842184
 6 -4.84226415531553  2.80043849114911  1.16529289418942
 6 -9.37993272877288  3.12944844034403 -0.31756461616162
 6 -9.53751406510651 -1.77366287728773 -1.03664009310931
 7 -5.06227965256526  0.42015183328333  0.75459587788779
 6 -4.35651535763576 -0.72639246124612  0.85646366956696
 6 -2.91601060646065 -0.41233065876588  1.26565691989199
 6 -3.02157559595960  1.12506517481748  1.63449418011801
 6 -4.34150114501450  1.48443919271927  1.10186721662166
 6 -2.83294837693769  1.36518880698070  3.06260766966697
 6 -1.86240970197020 -0.59498475987599  0.03877783608361
 6 -0.45569299189919 -0.41670601780178  0.45778990829083
 6  0.42309344654465 -0.49729324222422 -0.65810119061906
 8  0.18158939903990 -0.69638504610461 -1.80036636833683
 8  1.74550636113611 -0.43738113451345 -0.22843963286329
 7 -7.11070151805181  2.66017160696070  0.34601329682968
 6 -6.02485176417642  3.32764374017402  0.77642117571757
 6 -6.35163241634163  4.84578886828683  0.72696338353835
 6 -7.66156886388639  4.88959959145915  0.33984237553755
 6 -8.13722799439944  3.52341153645365  0.04328687498750
 6 -5.38419637633763  5.85939840574057  1.14545930643064
 6 -8.56559435703570  6.05986702040204  0.34040102550255
 6 -8.50303419471947  7.27116323492349  0.94569081888189
 7 -9.02255452805280  0.58664152525253 -0.50059409310931
 6 -9.79631589128913  1.77091704480448 -0.66816314041404
 6 -11.13420251685169  1.38125646474647 -1.06425814531453
 6 -11.21633403730373  0.07044240834083 -1.36248496249625
 6 -9.95691137183718 -0.44791676597660 -0.86140115621562
 6 -12.25186401010101  2.43151372237224 -1.24875164996500
 6 -12.31778632493249 -0.81958936903690 -1.76451726022602
 6 -12.31792928132813 -0.93676608780878 -3.32757787638764
 7 -7.26802627092709 -1.40041965556556 -0.11388606560656
 6 -8.24177441724172 -2.22347751985198 -0.56821177637764
 6 -7.81365751135113 -3.68776704420442 -0.61578885618562
 6 -6.51133501760176 -3.59185352235224 -0.00880261216122
 6 -6.26573917031703 -2.18222650395040  0.21541434563456
 6 -8.62069953735373 -4.87416025842584 -0.98491697009701
 6 -5.32819729002900 -4.33024690819082  0.26968984158416
 8 -5.15616445434543 -5.55532001540154  0.20995802650265
 6 -4.29169274867487 -3.33721951175117  0.61543140844084
 6 -3.56047667856786 -3.65770099139914  1.99003937683768
 8 -3.81811341194119 -3.07172390859086  3.06482916401640
 8 -2.78438963266327 -4.65462018441844  1.83949253015302
 6 -2.19567015491549 -5.17649187828783  3.11183611911191
 6  2.72645515721572 -0.68025582018202 -1.28227942834283
 6  4.10018210721072 -0.45485366166617 -0.67734788378838
 6  5.13484696909691  0.19147541294129 -1.14875464816482
 6  5.19714813781378  0.94662731203120 -2.47847201250125
 6  6.38315264806481  0.26147799799980 -0.41002748794880
 6  7.68965650355036 -0.24362470937094 -1.07218416891689
 6  8.93919579217922 -0.27251238163816 -0.17253906670667
 6  10.21984260876088 -0.81511858355836 -0.89674064456446
 6  10.16677337753775 -2.25725666176618 -1.29409287428743
 6  11.37513038993899 -0.47425120592059  0.03753462206221
 6  12.78216312401240 -0.58625267636764 -0.63249327222722
 6  13.92070153855386 -0.14832603540354  0.29490655815582
 6  15.25203132803280 -0.17400112921292 -0.31268950875088
 6  15.71421309020902 -1.61383901770177 -0.87571718941894
 6  16.48496260216022  0.39165352535254  0.52076658385839
 6  17.76605119451945  0.64600599899990 -0.12920873547355
 6  18.78515888538854  1.41142935993599  0.74876530953095
 6  20.20806947614761  1.47629796329633  0.17781254445445
 6  20.17792914671467  2.29667796499650 -1.12373336603660
 6  21.17118804960496  2.20888382468247  1.31134649804981
 1 -4.10698218271827  3.62713823522352  1.47578216511651
 1 -10.12336272897290  3.93224405940594 -0.82230762226223
 1 -10.20468375777578 -2.58095743654366 -1.60685733793379
 1 -2.66212266916692 -1.14707302120212  1.96548723992399
 1 -2.32222582778278  1.82098568116812  1.48183883428343
 1 -1.72927738523852  1.02390284318432  3.52986670017002
 1 -2.89931499149915  2.37618167566757  3.52589475487549
 1 -3.39285272797280  0.64313899789979  3.60498291109111
 1 -2.03329581448145 -1.60718067846785 -0.18335224442444
 1 -2.13287495999600  0.05189243964397 -0.79083912351235
 1 -0.27625114251425  0.39175378927893  1.23369376847685
 1 -0.26244404640464 -1.25834034923492  1.12073602880288
 1 -5.64998377377738  6.92101074517452  0.87483319251925
 1 -5.17439442884288  6.27439080218022  2.23538983608361
 1 -4.37668162416242  5.64621578797880  0.68772194779478
 1 -9.57905995849585  5.82129827792779 -0.22167239543954
 1 -9.25006622252225  7.96681742064206  0.84589421122112
 1 -7.54624409020902  7.50175657515752  1.67178556405641
 1 -11.90068417351735  3.19208953495350 -2.03870687538754
 1 -13.19483915311531  1.83708759996000 -1.63144433593359
 1 -12.37476920802080  2.90382903760376 -0.23100434443444
 1 -12.21784656305631 -1.81728117321732 -1.31551650655065
 1 -13.15897461636164 -0.59578631543154 -1.46282180968097
 1 -12.99844619721972 -1.76910159635964 -3.57639752425243
 1 -12.38662222642264  0.00557602000200 -3.83082657835784
 1 -11.42704898419842 -1.34892976007601 -3.62944156415642
 1 -8.87245684868487 -5.01201194409441 -2.13589685378538
 1 -7.95217458225823 -5.58613861806181 -0.53662327532753
 1 -9.54467435233523 -4.89466448774878 -0.29662148474848
 1 -3.30390108600860 -3.55284853555356 -0.05203047454745
 1 -1.71191935843584 -4.49521596129613  3.55815873117312
 1 -3.02361196979698 -5.36022764036404  3.82176501540154
 1 -1.32058016951695 -5.96982625582558  2.85469942284228
 1  2.56008531263126 -1.74559639553955 -1.82848681368137
 1  2.49366684428443 -0.06657237763776 -2.08050120232023
 1  4.12086299189919 -0.74109632483248  0.41271448744874
 1  4.28373733723372  0.85923463386339 -3.03391176087609
 1  5.44302971467147  1.98503876277628 -2.54761122932293
 1  6.13655096269627  0.67106821432143 -2.97785651665167
 1  6.65126718961896  1.34363836383638 -0.31361871907191
 1  6.25506962636264 -0.07911594899490  0.62167188388839
 1  7.49076646134613 -1.33907314251425 -1.55737706130613
 1  8.05760819671967  0.30413362146215 -1.84395731933193
 1  9.24348640024002  0.66868475347535  0.23536116831683
 1  8.92169065776578 -0.69844535073507  0.76424428812881
 1  10.46673422482248 -0.21165862816282 -1.78687357685769
 1  9.17882286778678 -2.57276525302530 -1.89615554035404
 1  11.06405896159616 -2.70935771967197 -1.91021526542654
 1  10.15158804480448 -2.75365730773077 -0.25597503720372
 1  11.25628330923092  0.38600083028303  0.58091957945795
 1  11.37012006540654 -1.28191415271527  1.03046366796680
 1  12.83353667256726 -1.61769993119312 -0.69832750035003
 1  12.84497825032503  0.13577426842684 -1.46717007830783
 1  13.82815425212521  0.94647720372037  0.50510785378538
 1  13.72367512061206 -0.76441604630463  1.24707122362236
 1  15.04002729122912  0.63376286128613 -1.16351070907091
 1  15.79191663456346 -2.20453074517452  0.04356290239024
 1  15.10271332203220 -2.01858423402340 -1.68309572467247
 1  16.75933556295630 -1.49087461236124 -1.39817128662866
 1  16.13016821752175  1.38513634733473  1.01501804610461
 1  16.42298674587459 -0.43483265836584  1.47570033123312
 1  18.15592653135313 -0.29362590999100 -0.63830717111711
 1  17.58938600310031  1.28010532943294 -0.89451302710271
 1  18.49473026562656  2.42976713441344  0.84293229852985
 1  18.69923708400840  1.19006318731873  1.89462946324632
 1  20.64045895859586  0.56164231243124  0.14192125612561
 1  19.84667877447745  3.22669623152315 -1.11113470687069
 1  21.50642489458946  2.38611526432643 -1.33068443174317
 1  19.69203310771077  1.80794260506051 -1.87149411841184
 1  20.93116909210921  1.66121423052305  2.24614423162316
 1  22.30488219451945  1.89435066476648  1.22089705600560
 1  21.03313304320432  3.21909199249925  1.60768120862086
=======
12 -7.06707728072807  0.57945669376938  0.05858354575458
 6 -4.77337195519552 -1.92141331973197  0.43089962266227
 6 -4.79954988388839  2.81704015131513  1.20779714461446
 6 -9.36369110461046  3.05318081358136 -0.29468232793279
 6 -9.53967428112811 -1.75562107310731 -0.69698612771277
 7 -5.05432885748575  0.39669948804881  0.71051146944694
 6 -4.26871657775778 -0.76136595859586  0.72597062026203
 6 -2.79710871627163 -0.39289871557156  1.12956331053105
 6 -2.98862230063006  1.07604027232723  1.62879361006101
 6 -4.36375337023702  1.43017376617662  1.11552858275828
 6 -2.81742682478248  1.25684797289729  3.18147955685569
 6 -1.79212267326733 -0.57419268066807  0.04779873817382
 6 -0.39158658125813 -0.33309765696570  0.55305943524352
 6  0.52822395959596 -0.67728124102410 -0.59806518701870
 8  0.29580082018202 -0.96761216881688 -1.72868920062006
 8  1.74630644114411 -0.44914231063106 -0.11083787268727
 7 -7.05179562746275  2.58881447124712  0.33117181268127
 6 -5.99620889988999  3.31707268306831  0.71230476407641
 6 -6.35696294939494  4.76610089948995  0.70718140534053
 6 -7.74008671567157  4.81243187468747  0.27360575187519
 6 -8.15862013361336  3.51426062136214  0.04987753405341
 6 -5.56645460216022  5.95390785668567  1.08686344684468
 6 -8.45209300690069  6.06421745544554  0.08865585098510
 6 -8.43713760506051  7.16517263586359  0.89508575837584
 7 -9.07467974057406  0.69288214931493 -0.45716975067507
 6 -9.80249650935093  1.80355030813081 -0.64277060116012
 6 -11.09160825742574  1.43485182428243 -1.15441716121612
 6 -11.10543294719472  0.05679104320432 -1.27069578357836
 6 -9.83268894959496 -0.38760073437344 -0.86634165026503
 6 -12.26584540824082  2.33445401640164 -1.41949872467247
 6 -12.24803935023502 -0.84763217331733 -1.77290809930993
 6 -12.02501999039904 -1.22257466866687 -3.19429454805481
 7 -7.23105257355736 -1.38156777037704 -0.05693037003700
 6 -8.23954419421942 -2.29163433553355 -0.33251820702070
 6 -7.85018116371637 -3.63118138563856 -0.37889516681668
 6 -6.47300118421842 -3.51276561356136 -0.12939467136714
 6 -6.15128772517252 -2.21621990329033  0.06066887108711
 6 -8.67786525392539 -4.88714155655566 -0.58575705410541
 6 -5.38023249354935 -4.35441932543254  0.20587345994599
 8 -5.28337717561756 -5.53612809620962  0.05294232493249
 6 -4.08069164856486 -3.32597838763876  0.45875574087409
 6 -3.51590222112211 -3.73418864016402  1.74224459735974
 8 -3.79412101270127 -3.05708244444444  2.83889657075708
 8 -2.66794798849885 -4.70507522992299  1.75755433633363
 6 -2.19947053495350 -5.20852508160816  3.02461739723972
 6  2.76147865956596 -0.49300709530953 -1.23104430483048
 6  4.13206529552955 -0.26343451975198 -0.62168231723172
 6  5.17669115351535  0.60985725112511 -1.05386515921592
 6  5.07850627362736  1.34861751105111 -2.43732789808981
 6  6.44079841264126  0.65259710991099 -0.31965845104510
 6  7.64624216211621 -0.09093944084408 -0.93325027552755
 6  8.83545541814181  0.00474534413441 -0.09151096389639
 6  10.09116974147415 -0.52860993269327 -0.83695466596660
 6  9.92612931313131 -1.99890082618262 -1.26756022102210
 6  11.45926880378038 -0.26902068286829  0.10364123272327
 6  12.64304921262126 -0.62499655075508 -0.56799682258226
 6  13.84960442884288 -0.22713391619162  0.31013808130813
 6  15.28917504240424 -0.28115184428443 -0.42292053185319
 6  15.56464813371337 -1.71354898869887 -0.90737035473547
 6  16.31139524542454  0.24803916391639  0.51757626482648
 6  17.70869545894589  0.41305270367037 -0.14156997159716
 6  18.65023539303930  1.07710592759276  0.71927236023602
 6  20.14465313451345  1.39199953345335  0.21185594879488
 6  20.10861221502150  2.22453075027503 -1.13887488018802
 6  21.00685161596160  1.95188812511251  1.26615197859786
 1 -3.97244872937294  3.59858537993799  1.47365195209521
 1 -10.33997439013901  3.79771060606061 -0.45319071057106
 1 -10.29260254965497 -2.57133647444744 -1.14058071027103
 1 -2.48642509940994 -1.06728504240424  1.92196288748875
 1 -2.31654525972597  1.78604218681868  1.13744439483948
 1 -1.75672012951295  0.82881333423342  3.38308202170217
 1 -3.00952601260126  2.24476853435344  3.57546971237124
 1 -3.26298974167417  0.54100878487849  3.72466487928793
 1 -2.21029351425143 -1.61193115351535 -0.26224013321332
 1 -1.99155082758276  0.08681593199320 -0.66188622822282
 1 -0.42172568996900  0.78086270017002  0.94704510361036
 1 -0.20713851585159 -1.02023653885389  1.36487044224422
 1 -5.95431420682068  6.79569821392139  0.59876558575858
 1 -5.59144613401340  6.13895725882588  2.32901919901990
 1 -4.44396835283528  5.71817298369837  0.98593176877688
 1 -9.24986703920392  5.75641178927893 -0.64786501470147
 1 -9.08754997089709  8.04318505740574  0.78339796159616
 1 -7.84085355115512  7.29154555405541  1.81097948344834
 1 -12.12009611471147  3.08588891489149 -2.29212221692169
 1 -13.22219188838884  1.84243813501350 -1.62191338283828
 1 -12.45702743384338  3.03503215791579 -0.63782502650265
 1 -12.17358213661366 -1.65969541464146 -1.18927388228823
 1 -13.05701442034203 -0.15672240904090 -1.67043257075708
 1 -12.85826217881788 -1.83755844204420 -3.68705859035904
 1 -12.09703326752675 -0.13072761036104 -3.72954645034504
 1 -10.95543182248225 -1.47588245534554 -3.34169278927893
 1 -9.33407301030103 -5.21944268716872 -1.40102336643664
 1 -8.02720208500850 -5.54387439163916 -0.16300591359136
 1 -9.37890777567757 -4.87164218551855  0.28607678507851
 1 -3.29483017891789 -3.44525777647765 -0.34026929842984
 1 -1.61564973147315 -4.44599103880388  3.47306022132213
 1 -3.08230783938394 -5.39114073167317  3.55220805970597
 1 -1.66674478597860 -6.08101737493749  2.76415036793679
 1  2.86279558365837 -1.52698453435344 -1.60440440544054
 1  2.42891036863686  0.28451273087309 -2.11250440264026
 1  4.26205711131113 -0.85743795899590  0.16830004600460
 1  4.05299426292629  1.35246395679568 -2.77189555925593
 1  5.55153056475648  2.21791205010501 -2.63549001720172
 1  5.42573988158816  0.71093220072007 -3.20668939993999
 1  6.55458752165217  1.77031103110311 -0.20531788898890
 1  6.22481660106011  0.25751771437144  0.70177989468947
 1  7.32769015371537 -1.35386462166217 -0.94501582518252
 1  7.68398083398340  0.21242445054506 -2.01935485908591
 1  9.01038308990899  1.02894077907791  0.23126075827583
 1  8.57353584228423 -0.78793429962996  0.74691255495550
 1  10.26167371877188  0.08406094379438 -1.75310019951995
 1  8.93334832033203 -2.10832880938094 -1.82876880168017
 1  10.57795035073507 -2.08953573747375 -2.16781102500250
 1  10.14095698169817 -2.67413935593559 -0.45812525222522
 1  11.35592327322732  0.85867809800980  0.29238072557256
 1  11.02095514891489 -0.68732469376938  1.02962358395840
 1  12.58144146304631 -1.73856201740174 -0.97105477307731
 1  12.63198695119512  0.07353804480448 -1.46647000830083
 1  13.74633607030703  0.88084064006401  0.58794613761376
 1  13.79799255235524 -0.87304690939094  1.21063758025803
 1  15.17384067256726  0.56069555455546 -1.23014737273727
 1  15.54343178607861 -2.30994128622862  0.09994854095410
 1  14.69633268396840 -2.28859123472347 -1.45604301940194
 1  16.52705233463346 -1.97341286618662 -1.42717418691869
 1  16.02968816951695  1.14560239393939  1.01996854115412
 1  16.36024047124712 -0.30391956705671  1.43349611081108
 1  18.04872581128113 -0.48869541694169 -0.44830817121712
 1  17.47148421292129  0.92991030993099 -1.17153072887289
 1  18.28827962056206  2.01499565726573  1.20178818411841
 1  18.76042320262026  0.37595177617762  1.57686768706871
 1  20.67717262996300  0.49739588778878 -0.32831576757676
 1  19.86808091469147  3.24632819471947 -0.83204679807981
 1  21.22258651075107  2.49696634943494 -1.42968433173317
 1  19.42313621802180  1.83571538233823 -1.86641361036104
 1  20.62927890309031  1.44034214331433  2.04909452665266
 1  22.14341604790479  1.94978620832083  1.02555752205220
 1  20.88110784068407  3.03803388668867  1.23569400990099
>>>>>>> 8e03b5b5abfc0030b3aa597dc0de36371bfbd096

