%nproc=4
%Mem=2GB
# td=(NStates=1) CAM-B3LYP/6-31G(d,p) 

TD

0 1
12 -7.15835640864086  0.56046479457946  0.06309399679968
 6 -4.93807842584258 -1.88860003840384  0.51742827552755
 6 -4.82009193809381  2.91428987628763  1.03909027392739
 6 -9.39457419291929  3.07345284078408 -0.35254811451145
 6 -9.54752506620662 -1.68149366036604 -0.90530695979598
 7 -5.10033345794580  0.50771058915892  0.73799421772177
 6 -4.36382608870887 -0.67254707670767  0.77731575477548
 6 -2.91510051545154 -0.35074450015002  1.26655700990099
 6 -3.00386382478248  1.16241891019102  1.65146587728773
 6 -4.31564855975598  1.53979472827283  1.01935896579658
 6 -3.07311239333933  1.36198848694869  3.11250265916592
 6 -1.84589805080508 -0.44786004740474  0.05048900720072
 6 -0.47042446504650 -0.29087343454345  0.53649777907791
 6  0.48598973617362 -0.65302881578158 -0.62886826732673
 8  0.11327256735674 -0.81213662126213 -1.72185851755176
 8  1.73536534703470 -0.44311170757076 -0.22682947184718
 7 -7.06782723062306  2.68904449424942  0.26413510901090
 6 -5.98463774277428  3.38221919771977  0.67585111871187
 6 -6.38052530563056  4.71914620402040  0.63303399059906
 6 -7.67213992099210  4.84481511301130  0.32936132743274
 6 -8.05299957155716  3.58578777407741  0.00184273057306
 6 -5.50118807550755  5.80259272517252  1.06349110961096
 6 -8.58924672227223  5.95227626132613  0.18793577897790
 6 -8.60461435273527  7.12986910551055  0.88105435523552
 7 -9.13918619121912  0.66352921402140 -0.45678971267127
 6 -9.80796705640564  1.79088904200420 -0.65816214031403
 6 -11.27130622722272  1.39626796589659 -0.99092081158116
 6 -11.24312671657166  0.02901826592659 -1.12667138113811
 6 -9.95175085578558 -0.48469044334433 -0.84908992509251
 6 -12.34929375307531  2.39239981098110 -1.21486826162616
 6 -12.43396794309431 -0.82806021612161 -1.54566537503750
 6 -12.40568805720572 -1.14863727492749 -3.01105622422242
 7 -7.30652012031203 -1.37157677127713 -0.10460513751375
 6 -8.33787402720272 -2.21964713681368 -0.47522247744774
 6 -7.88847499309931 -3.61208947644764 -0.55002227952795
 6 -6.51737562166217 -3.61526586358636 -0.06984871677168
 6 -6.23184578097810 -2.18469675097510  0.09354215841584
 6 -8.60704817221722 -4.89090193259326 -0.80921940034003
 6 -5.42209667996800 -4.41700558405841  0.15585845844584
 8 -5.23917275517552 -5.59736421982198  0.21053808450845
 6 -4.23671725112511 -3.34920070987099  0.57635750105011
 6 -3.67924855575558 -3.68055327662766  1.95238561146115
 8 -4.04630623122312 -3.10948768496850  2.98985166626663
 8 -2.91858305200520 -4.73588831123112  1.77889647054705
 6 -2.20407099499950 -5.21505573467347  2.96381131663166
 6  2.78681119281928 -0.75829362396240 -1.31829302970297
 6  4.11101319031903 -0.50370854715472 -0.67904805380538
 6  5.13476696109611  0.23180944634463 -1.16150592329233
 6  5.03689211221122  1.07387003630363 -2.45426959225923
 6  6.54762909570957  0.42199404960496 -0.35971245644564
 6  7.69084662256226 -0.07541788868887 -1.15683263376338
 6  9.04519639223922 -0.10631576197620 -0.26471828462846
 6  10.30323094759476 -0.59149622132213 -0.99788075857586
 6  10.36728342854285 -2.03952488858886 -1.36438990399040
 6  11.49767264416442 -0.33651743254325 -0.06080521192119
 6  12.90637554525452 -0.67836188728873 -0.67557758065807
 6  14.08475794419442 -0.29781098389839  0.08114518201820
 6  15.52044816971697 -0.26796052515252 -0.50284852465247
 6  15.93230489938994 -1.58765639943994 -0.96768638633863
 6  16.54193829972997  0.36382074207421  0.41988649584958
 6  17.90488507790779  0.64607600600060 -0.07756357095710
 6  18.87834820432043  1.28596681368137  1.00876130913091
 6  20.34704337353735  1.42880321382138  0.45087985118512
 6  20.34632598639864  2.17847614481448 -0.87968896159616
 6  21.12494342514251  2.08166110241024  1.48709407280728
 1 -4.03607509200920  3.58446396779678  1.25285987288729
 1 -10.21985237793779  3.73833466846685 -0.49452484398440
 1 -10.27797108650865 -2.40778011881188 -1.40417706990699
 1 -2.73966042294229 -0.96103441734173  2.30689138033803
 1 -2.09191279647965  1.77646122872287  1.09183983438344
 1 -2.03429788728873  1.05985643854385  3.47617133063306
 1 -3.14559961996200  2.33250730823082  3.33449561496150
 1 -3.75286872957296  0.70752543654365  3.52746515931593
 1 -1.85127761266127 -1.39803976437644 -0.40458436763676
 1 -2.18815048754875  0.29666691709171 -0.78642868246825
 1 -0.25431894929493  0.60850546444644  0.89129952905291
 1 -0.18660646264626 -0.86161067626763  1.49567352255226
 1 -5.74829360476048  6.94893353745374  0.63484919411941
 1 -5.62133912331233  6.17929129222922  2.17497379447945
 1 -4.33851780778078  5.68726989338934  1.03668684428443
 1 -9.22071412391239  5.85240138823882 -0.63677390559056
 1 -9.21864308020802  7.78814955385539  0.44498412021202
 1 -7.89842930873087  7.28508490799080  1.73592197769777
 1 -11.86042014711471  3.44364469046905 -1.87484048874887
 1 -13.14144381358136  1.83181707290729 -1.73453464496450
 1 -12.58783051415142  2.76498515321532  0.05679443544354
 1 -12.41508628702870 -1.69854930003000 -0.89588454335433
 1 -13.28897761666166 -0.32188892569257 -1.43579910741074
 1 -13.41077743034304 -1.64194888108811 -3.26121600610061
 1 -12.35415898009801 -0.13715825342534 -3.59718321402140
 1 -11.46817309660966 -1.56670153725372 -3.47860648064806
 1 -9.05034463746375 -4.77147789068907 -1.87446071017102
 1 -7.65722508730873 -5.70514051825183 -0.93829344234423
 1 -9.56296618151815 -5.17891291259126 -0.22062388498850
 1 -3.46983767966797 -3.38852210291029 -0.10657592909291
 1 -1.56728489498950 -4.54970140984098  3.45559847514751
 1 -3.04490409900990 -5.55448706630663  3.73426626552655
 1 -1.61241935343534 -6.05200447364737  2.61815576847685
 1  2.66425572967297 -1.82407424332433 -1.43526749174917
 1  2.47323480108011 -0.09783550395040 -2.19588274047405
 1  4.23906481208121 -0.97562977817782  0.38395161116112
 1  4.01608057155716  1.22350106050605 -2.83155152485249
 1  5.55864127582758  2.06021628052805 -2.24204067226723
 1  5.54125143274327  0.61375248274827 -3.27890662166217
 1  6.39025108800880  1.45131913191319 -0.04830218741874
 1  6.48065218461846 -0.14299233663366  0.61394111081108
 1  7.49492687738774 -1.05139437463746 -1.57842916651665
 1  7.97472990889089  0.65646885498550 -1.96716964056406
 1  9.14064611621162  0.98422630763076  0.18016564876488
 1  8.97925641434144 -0.72328783498350  0.62479034273427
 1  10.48598615001500  0.18048058575858 -1.94395928542854
 1  9.26067105260526 -2.28980695719572 -1.65531145594559
 1  11.08813136883688 -2.14339112301230 -2.05291953585359
 1  10.47415030103010 -2.65253719571957 -0.50599003870387
 1  11.57929561046105  0.64631686188619  0.17515900340034
 1  11.57077013041304 -0.81428739003900  0.89583020462046
 1  13.32559587848785 -1.70023818501850 -0.64646231383138
 1  12.93371712421242 -0.27934724372437 -1.77127048834883
 1  14.06616805350535  0.80249280528053  0.36950429342934
 1  14.10449320242024 -0.99846945164516  1.09775629212921
 1  15.30388367686769  0.49879936493649 -1.29214357235724
 1  15.70435787868787 -2.27098739083908 -0.11504295819582
 1  15.37137018771877 -1.87892026762676 -1.95688310341034
 1  16.99472910231023 -1.79542506740674 -1.30129159865987
 1  15.97487268796880  1.31191902560256  0.88862540684068
 1  16.53516796399640 -0.23268244334433  1.27305006620662
 1  18.38721966066607 -0.19122566996700 -0.56946028642864
 1  17.80486755125513  1.50272759165917 -0.88194176997700
 1  18.57657845044504  2.30424458215822  1.11918992429243
 1  18.77179433973397  0.71878605960596  1.82478247854785
 1  20.69556446914692  0.34626077427743  0.29212627662766
 1  19.82360646724672  3.19769333123312 -0.86067966136614
 1  21.24164841694169  2.38738539133913 -0.97984934823482
 1  19.80047395179518  1.51351316211621 -1.59831680068007
 1  21.10675665086509  1.70276838593859  2.53842345954595
 1  22.20555226152615  2.02525375507551  1.10872583888389
 1  20.58414814471447  3.03880396369637  1.63444388488849

