%nproc=4
%Mem=3GB
# td=(NStates=1) iop(3/107=0140000000,3/108=0140000000) CAM-B3LYP/6-31G(d,p) 

TD

0 1
12 -7.10975566726673  0.62523090659066 -0.00134376437644
 6 -4.82159097559756 -1.96161339193919  0.53184858725873
 6 -4.80725675627563  2.93312203010301  1.14597470267027
 6 -9.32309907440744  3.08674622762276 -0.40138261356136
 6 -9.54567066506651 -1.70665243094309 -0.72736954185419
 7 -5.10659769096910  0.44241033163316  0.64110193419342
 6 -4.25374762206221 -0.75872701590159  0.81392928762876
 6 -2.87236345694569 -0.46395479347935  1.16401207030703
 6 -3.06313954085409  1.00767946954695  1.77509378867887
 6 -4.39599983468347  1.48348299939994  1.13208760266027
 6 -3.09525570637064  1.18429124842484  3.32696801140114
 6 -1.90439616931693 -0.55372136133613  0.01794560486049
 6 -0.42369807900790 -0.51016426442644  0.52354573687369
 6  0.57754967816782 -0.79645626752675 -0.48972876297630
 8  0.21030124692469 -1.17879165686569 -1.58676606970697
 8  1.85168376677668 -0.38710864926493 -0.21731711931193
 7 -7.08534617801780  2.59444265416542  0.41967289138914
 6 -5.97933807760776  3.33393716111611  0.81515739183918
 6 -6.36357126552655  4.84384124772477  0.84840309900990
 6 -7.65376016131613  4.86958876407641  0.37260338673867
 6 -8.00780030753075  3.48080501930193  0.09130712931293
 6 -5.39809184308431  5.89278875257526  1.16819697489749
 6 -8.43361336933693  6.01278154775478  0.09720033253325
 6 -8.39128753875388  7.17709685938594  0.70820487978798
 7 -9.04204324542454  0.73978097249725 -0.59450602450245
 6 -9.83408089438944  1.86424974927493 -0.66619943344334
 6 -11.21204515721572  1.49625907040704 -1.17750260996100
 6 -11.26001548874888  0.15053259905991 -1.27506753505351
 6 -9.89659726332633 -0.38909910331033 -0.86725892719272
 6 -12.23263420112011  2.61354659605961 -1.52071152385239
 6 -12.36498029092909 -0.60414653845385 -1.76549588018802
 6 -12.18997090599060 -1.23494368666867 -3.11290194139414
 7 -7.22301526392639 -1.37537237293729 -0.24052672777278
 6 -8.26521084738474 -2.18300684618462 -0.54255583548355
 6 -7.88099013881388 -3.52549310071007 -0.51203150295029
 6 -6.56247403790379 -3.56200918301830 -0.15364744644464
 6 -6.21385511721172 -2.20816877267727  0.10724255965597
 6 -8.79027136663666 -4.67159325772577 -0.78823220632063
 6 -5.39310477337734 -4.32560612401240  0.19595456955696
 8 -5.19311030333033 -5.54318117511751  0.11599754835484
 6 -4.15413991659166 -3.38592604000400  0.49279760136014
 6 -3.63417759455946 -3.80933887658766  1.87306327482748
 8 -3.81112389578958 -3.09385674357436  2.93415677387739
 8 -2.83118847164716 -4.82507112561256  1.75084412191219
 6 -2.34046300330033 -5.31667687358736  2.98924632503250
 6  2.79822614301430 -0.69867815671567 -1.30207372457246
 6  4.16738762396240 -0.55133040094009 -0.64527709050905
 6  5.16425191649165  0.27316384438444 -0.94798767576758
 6  5.05686941254125  1.24719239453945 -2.07515165016502
 6  6.49388566726673  0.33343395939594 -0.09074959935994
 6  7.66783823642364 -0.26002455045505 -0.83032336103610
 6  8.91052876447645 -0.16234805090509 -0.04487058945895
 6  10.14310977157716 -0.66591825502550 -0.81444716471647
 6  10.14196747334733 -2.17016489638964 -1.22777974397440
 6  11.45097976177618 -0.34691958305831 -0.01932989548955
 6  12.78824656015602 -0.46217625112511 -0.72742024712471
 6  13.91120239203920 -0.14068978327833  0.17202361396140
 6  15.28887487848785 -0.07540662426243 -0.46338199069907
 6  15.62282855385539 -1.48179656795680 -1.03008483478348
 6  16.37975496819682  0.46414293159316  0.39160389508951
 6  17.78035562326233  0.58472220182018 -0.20981750875088
 6  18.76305672427242  1.23473155165517  0.73217647434743
 6  20.17836064046405  1.39100853335334  0.20307701370137
 6  20.21255410121012  2.25477278237824 -1.11227592349235
 6  21.18717378437844  2.01126282618262  1.23110705070507
 1 -4.03423378687869  3.49951320272027  1.45457155295530
 1 -9.97384950825083  3.86717899239924 -0.38772329852985
 1 -10.22898732283228 -2.54844037913791 -1.02325014441444
 1 -2.69651693889389 -1.13346354905491  2.06016250695069
 1 -2.23037650395039  1.47558962006201  1.41717536653665
 1 -2.18410149654966  0.95202430883088  3.78215855325533
 1 -3.60191730083008  2.26296551935193  3.58739676187619
 1 -3.82622542304230  0.45139029332933  3.70349203440344
 1 -2.04799991899190 -1.47898856965697 -0.57897590469047
 1 -2.06033240224022  0.19931755155516 -0.83959069366937
 1 -0.19858528722872  0.51609119641964  0.74415827882788
 1 -0.22103052335234 -1.29226999359936  1.24462792109211
 1 -5.63155733343334  6.85219273127313  0.43754358565857
 1 -5.65432690399040  6.35722860426043  2.20486249874988
 1 -4.31164600920092  5.60014428242824  1.06324705730573
 1 -9.14270453025302  5.81912529452945 -0.78250960366037
 1 -9.00310937463746  8.00838055905590  0.32293206890689
 1 -7.52826075817582  7.42601943834384  1.41127008730873
 1 -11.67876834983498  3.35752489958996 -2.06179201070107
 1 -13.06097339503950  2.36891563396340 -2.06902263046305
 1 -12.47449848254825  3.25692302640264 -0.65720616011601
 1 -12.54311627652765 -1.33151407420742 -0.89366286718672
 1 -13.35824812391239 -0.02755546604660 -1.74671042544254
 1 -12.94398959815982 -1.90145380748075 -3.48329928802880
 1 -12.20891129682968 -0.37906637793779 -3.77312629102910
 1 -11.21077591699170 -1.60851187838784 -3.45955423362336
 1 -9.18911352995299 -4.58948544934493 -1.80100616361636
 1 -8.21853623882388 -5.60270622392239 -0.79442939803980
 1 -9.91324550355036 -4.76421486988699 -0.15118738743874
 1 -3.41939945844584 -3.54336094169417 -0.25733347144714
 1 -1.60862425002500 -4.83461567496750  3.43556527412741
 1 -3.15186162346235 -5.72814233913391  3.64006504420442
 1 -1.74517503800380 -6.23414419921992  2.50224358545855
 1  2.61223927872787 -1.78499512231223 -1.66554800350035
 1  2.45187162846285 -0.07024894009401 -2.21864292179218
 1  4.44867535423542 -1.20570898469847  0.23779517971797
 1  3.90547585908591  1.52263780648065 -2.30623110881088
 1  5.45375230743074  2.20026044994499 -1.89621706010601
 1  5.47245681418142  0.89250044094409 -3.08621487838784
 1  6.61702988688869  1.31342132273227  0.14525413931393
 1  6.34588246034603 -0.12286962366237  0.82008820432043
 1  7.39533165596560 -1.17377805080508 -1.06406116331633
 1  7.88525108360836  0.45039414241424 -1.70956177907791
 1  9.19416546084608  1.03391288878888  0.29516194429443
 1  9.03004612541254 -0.74366271897190  1.05099122252225
 1  10.08519315111511 -0.04728858105811 -1.67864302230223
 1  9.26580618971897 -2.47907619111911 -1.80732911481148
 1  10.98930807140714 -2.75009840914091 -1.73178853695370
 1  9.83753595069507 -2.79338345304531 -0.42906029972997
 1  11.44489613121312  0.74322075547555  0.44220199099910
 1  11.41396899239924 -0.80635193279328  0.89697601770177
 1  12.86259421192119 -1.52282970227023 -1.19729200070007
 1  12.62094792469247  0.09062399839984 -1.67560189388939
 1  13.79936135643564  0.78272363566357  0.55946077477748
 1  13.94397270787079 -0.87757413631363  1.12981535553555
 1  15.00330073147315  0.60975437243724 -1.42789405820582
 1  15.79514331113111 -2.30701004220422 -0.31451958745875
 1  14.92825446984698 -2.13844836483648 -1.64964633813381
 1  16.66574485408541 -1.39176007300730 -1.68156466976698
 1  16.10277355085508  1.50568890259026  0.74350026632663
 1  16.39905398319832 -0.07162344714471  1.59127762246225
 1  18.15851258895890 -0.34294080808081 -0.55214541014101
 1  17.80346765636564  1.38432732683268 -0.99747549114911
 1  18.35565462236223  2.30685195319532  1.13906585338534
 1  18.93270923342334  0.71056589608961  1.71807505300530
 1  20.54091392369237  0.54481547914791 -0.17747185498550
 1  20.18381520002000  3.50040081658166 -1.00822300700070
 1  21.06971077187719  1.96663780588059 -1.67226520772077
 1  19.49361775937594  2.17670796099610 -1.84677306170617
 1  21.21763561706171  1.42841848274828  2.11868553735373
 1  22.28979687248725  2.02040251095110  0.77333398699870
 1  21.05822590109011  2.99712582978298  1.51164830153015

