%nproc=4
%Mem=2GB
# td=(NStates=1) CAM-B3LYP/6-31G(d,p) 

TD

0 1
12 -7.14005457845785  0.62249099719972  0.13450113751375
 6 -4.81912653065307 -1.92270344874487  0.53229976267627
 6 -4.78967889678968  2.82031047834783  1.08818518341834
 6 -9.42399713521352  3.08708420392039 -0.41167402710271
 6 -9.54882519621962 -1.76367187818782 -0.87843427252725
 7 -5.01034445904591  0.42354217231723  0.62223264156416
 6 -4.24729443554355 -0.71249107110711  0.77232525572557
 6 -2.88888789418942 -0.40220964666467  1.23141349554956
 6 -3.00409384778478  1.13987665596560  1.61365209590959
 6 -4.34389138403840  1.52751350015002  1.03233026292629
 6 -2.95783086518652  1.29777206530653  3.15782719161916
 6 -1.88180164116412 -0.76349161056106  0.09265322362236
 6 -0.39956737933793 -0.64922927012701  0.51547567686769
 6  0.55222635983598 -0.64929844274427 -0.63464884538454
 8  0.18770001010101 -1.10872628022802 -1.71160749244924
 8  1.78688049854986 -0.45847324372437 -0.22214900380038
 7 -7.09256970487049  2.64833042284228  0.29085778127813
 6 -6.00253953295330  3.33205418121812  0.68266179977998
 6 -6.28389564266427  4.83800809020902  0.71750243744374
 6 -7.61435414241424  4.86930756225623  0.35413380468047
 6 -8.07849212081208  3.53452264756476 -0.06726418011801
 6 -5.42416037273727  5.80638310421042  1.18284304480448
 6 -8.53808160576058  5.96713774747475  0.22424941034103
 6 -8.37163105440544  7.17115323392339  0.80672692249225
 7 -9.17579985258526  0.69999286038604 -0.53254728842884
 6 -9.87665392509251  1.81759171227123 -0.64108043214321
 6 -11.17484658125812  1.46627496659666 -1.07774949444945
 6 -11.24371677557756  0.15845120922092 -1.26145485948595
 6 -9.94822050275027 -0.36617859215922 -0.86137115321532
 6 -12.26234505820582  2.43366393739374 -1.28137491229123
 6 -12.25660020632063 -0.90547795789579 -1.73444425292529
 6 -12.16028351675168 -1.21465387658766 -3.25030014861486
 7 -7.30744021232123 -1.43519313291329 -0.04335901290129
 6 -8.32048228802880 -2.19548472057206 -0.51147610281028
 6 -7.88648479407941 -3.66181444894489 -0.48012528982898
 6 -6.45291917601760 -3.53066740374037 -0.10365209710971
 6 -6.21073366976698 -2.19748803010301  0.15908871307131
 6 -8.71030849824982 -4.81160400280028 -0.77299577797780
 6 -5.26142061236124 -4.36611049454945  0.11477435003500
 8 -5.18633747164716 -5.57463194659466  0.15994302500250
 6 -4.16034961436144 -3.33114890469047  0.50104997029703
 6 -3.56872750365036 -3.66837205850585  1.89462983588359
 8 -3.85223682428243 -3.15516225242524  2.99688236933693
 8 -2.51541273497350 -4.62820754315432  1.77947652855286
 6 -1.97632822072207 -5.13066729582958  2.99762469796980
 6  2.81441395309531 -0.58611640624062 -1.29925112551255
 6  4.10187227622762 -0.36287446374637 -0.62156230523052
 6  5.13781726612661  0.36491275667567 -0.92988276097610
 6  5.03283170617062  1.26053870317032 -2.09717388268827
 6  6.34660899369937  0.46692854305431 -0.19854633983398
 6  7.50442798069807 -0.10328067496750 -0.92750970147015
 6  8.83530540314031 -0.11034616501650 -0.13293510631063
 6  10.06302692719272 -0.47704477617762 -0.94034500500050
 6  10.05864256445645 -1.94354529062906 -1.35177864286429
 6  11.32135501240124 -0.22057583838384 -0.07534666606661
 6  12.72743765146515 -0.35139919101910 -0.70401042394239
 6  13.93905337373737  0.01087988518852  0.24901196869687
 6  15.26629275417542 -0.22026575567557 -0.45498373817382
 6  15.57461913081308 -1.74390202400240 -0.72345196289629
 6  16.33117722362236  0.44048840884088  0.41788629582958
 6  17.69329391879188  0.54769616801680 -0.22138795339534
 6  18.75013538303831  1.25571378837884  0.70634106710671
 6  20.16453512271227  1.18644897839784  0.24676944014401
 6  20.38747010081008  2.08910720792079 -1.06023701640164
 6  21.12946387718772  1.78318125442544  1.32220758415842
 1 -3.90338182268227  3.44112963436344  1.36030061696170
 1 -10.09623001570157  3.83238407340734 -0.66603199469947
 1 -10.29023231263126 -2.50331967276728 -1.01282793499350
 1 -2.75014147104710 -0.93613192709271  2.18372906410641
 1 -2.19205281048105  1.83019660226023  1.06088673907391
 1 -2.01460591809181  0.84886533943394  3.55460917441744
 1 -3.03134819481948  2.29919397689769  3.52477464286429
 1 -3.69989343204320  0.57289197319732  3.47807021982198
 1 -2.08348083298330 -1.71074103450345 -0.28460236943694
 1 -1.96095776827683 -0.00011276087609 -0.72111215081508
 1 -0.33974749214922  0.40400501440144  1.11516191529153
 1 -0.12659046104610 -1.43908842404240  1.24698865406541
 1 -5.71677045244524  6.78934757885789  0.61919762896290
 1 -5.44168115751575  5.93336669976998  2.24906120322032
 1 -4.39567352335234  5.59152031843184  0.73929710531053
 1 -9.36865891839184  5.95812196029603 -0.38996922512251
 1 -9.23285450135013  8.01265200410041  0.56884650645064
 1 -7.55882534833483  7.44907130663066  1.47826621212121
 1 -12.11446555165517  3.11034136013601 -2.25248825352535
 1 -13.12304197339734  1.90175406660666 -1.57451864336434
 1 -12.57442917401740  3.06162481718172 -0.45487673167317
 1 -12.34360913931393 -1.99204864996500 -1.20890584548455
 1 -13.34378309720972 -0.44152088888889 -1.73468899639964
 1 -12.94330068266827 -1.86069075527553 -3.50933081758176
 1 -12.31123468766877 -0.10736527412741 -3.77006050175018
 1 -11.33874015331533 -1.71818668576858 -3.62428104810481
 1 -9.20934053705371 -4.76028677157716 -1.86165943004300
 1 -8.16507587238724 -5.67899790399040 -0.68057767076708
 1 -9.37635752065207 -4.97828284958496  0.07333551095109
 1 -3.26160685658566 -3.54915816651665 -0.05719099059906
 1 -1.51176934343434 -4.41613805350535  3.44173708900890
 1 -2.82856246484649 -5.44019563716372  3.54931777067707
 1 -1.37004511601160 -6.07982725592559  2.74376832973297
 1  2.69554885898590 -1.56766860276028 -1.75275924092409
 1  2.62397987558756  0.18572285188519 -1.89744289648965
 1  4.25661656725673 -1.07643985918592  0.25267848384838
 1  3.97069603310331  1.71292000240024 -2.48289665936594
 1  5.69345475717572  2.03563382228223 -1.87061352955295
 1  5.43676098369837  0.78768987648765 -3.06398512951295
 1  6.61124318721872  1.40588458845885 -0.08481583878388
 1  6.13608772817282 -0.05372340974097  0.71748146484649
 1  7.30445783048305 -1.16593582878288 -1.52470379397940
 1  7.74208664456446  0.61257446554656 -1.73181610521052
 1  9.06289834143414  0.87617550255025  0.20743837603760
 1  8.66622511121112 -0.74849035523552  0.69425728942894
 1  10.11483903530353  0.14894743244324 -1.66757164666467
 1  9.09846483198320 -2.27264524102410 -1.79293521832183
 1  10.99804235993599 -2.39545632953295 -1.89140338423842
 1  9.89153203920392 -2.61264320632063 -0.33525296499650
 1  11.21813949484948  0.69191142134213  0.54893638113811
 1  11.42642569596960 -0.91467742904290  0.75121574317432
 1  12.62053537243724 -1.32457061826183 -1.09021668926893
 1  12.74681843434343  0.42944363536354 -1.61278463976398
 1  14.15125656235624  1.19624218021802  0.45144248724873
 1  13.84959771287129 -0.51558116281628  1.07885440194019
 1  15.14614790329033  0.31881136613661 -1.36713107110711
 1  15.66267371027103 -2.24479477157716  0.22639118521852
 1  14.82545559625963 -1.93784616021602 -1.18744615971597
 1  16.64578420782078 -1.88461398629863 -1.18679014851485
 1  16.02727792849285  1.47040487418742  0.67767431173117
 1  16.28922336953695 -0.15200437553755  1.38070083128313
 1  18.29502044074408 -0.30779732713271 -0.51513485388539
 1  17.29951701620162  1.09304662356236 -1.12468604440444
 1  18.65788658125813  2.44439859755976  0.90760876617662
 1  18.66170333063306  0.99106328732873  1.71289128942894
 1  20.42974788748875  0.13337948614862 -0.01037397339734
 1  20.10381448804880  3.26418998089809 -0.99033262666267
 1  21.39756400850085  2.04574122692269 -1.35595695899590
 1  19.87482138653866  1.71733354415442 -1.87780474947495
 1  21.25312128732873  1.05440354945495  2.14697431463146
 1  22.14246595289529  1.95822705240524  0.88996396269627
 1  20.88993872377238  2.97559764306431  1.64281472197220

