%nproc=4
%Mem=3GB
# td=(NStates=1) iop(3/107=0140000000,3/108=0140000000) CAM-B3LYP/6-31G(d,p) 

TD

0 1
12 -7.03767845954595  0.66533491699170  0.03511988198820
 6 -4.87511632813281 -1.97902513311331  0.50126552895290
 6 -4.76341237183718  2.78909762766277  1.19935004020402
 6 -9.30507727222722  3.09905745874587 -0.42599507480748
 6 -9.48447454545455 -1.69509127482748 -0.95998280318032
 7 -5.16186321752175  0.48337442804280  0.75274309830983
 6 -4.39268151545155 -0.71881302450245  0.76505440014001
 6 -3.05580180078008 -0.44867326532653  1.26995266436644
 6 -3.06362958985899  1.11161986358636  1.75804208350835
 6 -4.44517475217522  1.53628827992799  1.18570296419642
 6 -2.89386556735674  1.19950276957696  3.34948026262626
 6 -2.00133586328633 -0.61533752295230  0.18521233153315
 6 -0.45248095729573 -0.54130737873787  0.62339572187219
 6  0.53458538173817 -0.69711633353335 -0.55647543764376
 8  0.15816603340334 -1.08504228192819 -1.67462485558556
 8  1.77452605100510 -0.43567350575058 -0.11605699329933
 7 -6.96355399879988  2.53736694659466  0.34559548364837
 6 -5.98663880768077  3.39580334773477  0.83051892799280
 6 -6.38022293069307  4.79022588618862  0.89508776747675
 6 -7.68262304760476  4.84800660586059  0.43477960436044
 6 -8.02316184368437  3.46174311311131  0.05699369796980
 6 -5.46014804870487  5.86112558625863  1.24838499369937
 6 -8.53305331333133  5.95662593219322  0.09765037753775
 6 -8.27165557555756  7.16157530723072  0.60453451275128
 7 -9.02392143324332  0.72173916831683 -0.57968454235424
 6 -9.86988447474747  1.83800712501250 -0.77411022452245
 6 -11.18993294599460  1.50812025652565 -1.26513137283728
 6 -11.09675916311631  0.11234878067807 -1.41107113541354
 6 -9.83022062566257 -0.33830402380238 -0.94725692699270
 6 -12.28832977067707  2.49799504090409 -1.46396584928493
 6 -12.35205899879988 -0.66340246404640 -1.77706703730373
 6 -12.35395730463046 -1.06346653895390 -3.23231388258826
 7 -7.22718568096810 -1.41737657335734 -0.08751142624262
 6 -8.28456278257826 -2.17518606410641 -0.47481906180618
 6 -7.91094313411341 -3.63992454385439 -0.49708000780078
 6 -6.54049183968397 -3.53222620472047 -0.20503258495850
 6 -6.18461219291929 -2.17361531733173  0.03647548294829
 6 -8.70643298279828 -4.85947204560456 -0.81597498059806
 6 -5.32996845974597 -4.37202076547655  0.26262123622362
 8 -5.22422341464146 -5.53784064106411  0.19321527012701
 6 -4.16582108470847 -3.30066751415142  0.59953827542754
 6 -3.54467864466447 -3.70063800650065  1.89071504000400
 8 -3.66133891729173 -3.24519187708771  3.02532589078908
 8 -2.71357671047105 -4.65908452695269  1.63070210771077
 6 -2.15571452845285 -5.18767397329733  2.86042344274427
 6  2.83995031543154 -0.61508979787979 -1.12687620482048
 6  4.14870575577558 -0.38940420832083 -0.36609917271727
 6  5.05352084338434  0.34490101810181 -0.86255913291329
 6  4.91161488708871  1.14897257255726 -2.17842197719772
 6  6.45940221892189  0.44277489348935 -0.19402992739274
 6  7.58700015261526 -0.18007655565557 -0.93841417011701
 6  8.92047975957596 -0.07616943304330 -0.16586268866887
 6  10.14119958055806 -0.54314597779778 -1.00705642564256
 6  9.98892216881688 -2.05236311621162 -1.41143810981098
 6  11.39698436223622 -0.38562345344534 -0.15650361286129
 6  12.77243497899790 -0.48436847034703 -0.74255176027603
 6  13.89272054385438 -0.13196891119112  0.14470088168817
 6  15.34473046404641 -0.33292237583758 -0.47726337883788
 6  15.71590786178618 -1.71721010931093 -0.76642846914691
 6  16.39786677937794  0.41047756505651  0.52819755445545
 6  17.79741732943294  0.49344307390739 -0.15736226322632
 6  18.78983940254025  1.27960603910391  0.69696295299530
 6  20.24383718811881  1.44441387388739  0.12875958195820
 6  20.15703854965497  2.35189249434944 -1.04135883178318
 6  21.18627369436944  1.91257295719572  1.18476241624162
 1 -3.99390975447545  3.54361761316132  1.85831192699270
 1 -10.19326144944494  3.73654592909291 -0.45852037823782
 1 -10.29001342544254 -2.37136267136714 -1.33444126352635
 1 -3.05066235343534 -1.20072027472747  2.21583807450745
 1 -2.12643610991099  1.82077413851385  1.32464611361136
 1 -2.09688277467747  0.51551065746575  3.58860919831983
 1 -2.98286539563956  2.26965618841884  3.83161118331833
 1 -3.78762156265627  0.74871002530253  3.69964164936494
 1 -2.17437255625563 -1.56627729852985 -0.41529953705371
 1 -1.87503387238724  0.10568818861886 -0.56953368796880
 1 -0.33534896359636  0.46481606890689  1.01709557255726
 1 -0.07350577087709 -1.38003877047705  1.29414287258726
 1 -5.66862103980398  6.64973248524853  0.54429426072607
 1 -5.52844431573157  6.29199208060806  2.31271328382838
 1 -4.37412225682568  5.48967323532353  0.99061979457946
 1 -9.29702996279628  5.62001538353835 -0.58254960766077
 1 -8.96304536823682  8.04543426442644  0.36336611231123
 1 -7.44767269936994  7.66304314071407  1.32889184948495
 1 -11.68874934793479  3.36106525362536 -2.01853768526853
 1 -13.05496279397940  1.99897864026403 -2.25541126932693
 1 -12.58380941364137  2.83914124822482 -0.63885432493249
 1 -12.37777974287429 -1.43385430823082 -1.10588408930893
 1 -13.20050234933493  0.07513480298030 -1.26384213861386
 1 -13.35962116131613 -1.69055271737174 -3.61509246734674
 1 -12.26035644134413 -0.16303477477748 -3.71978095649565
 1 -11.53031787118712 -1.88732976017602 -3.23826210441044
 1 -9.08084270287029 -4.59390589138914 -1.70493655665567
 1 -8.31946633183318 -5.83921987528753 -0.84247420252025
 1 -9.44528870787079 -4.95406385478548 -0.02427469616962
 1 -3.32939045754575 -3.27502410801080 -0.11664940304030
 1 -1.31943533113311 -4.57621983538354  3.26491820942094
 1 -2.81301773907391 -5.45271479637964  3.54422546024602
 1 -1.59811033153315 -6.06785757055706  2.56486984808481
 1  2.58456651145115 -1.65909253205321 -1.55003645234523
 1  2.67278371967197  0.03977206200620 -1.87922898039804
 1  4.00814130083008 -0.87663607740774  0.87224862506251
 1  3.87634294579458  1.39095463816382 -2.53804429012901
 1  5.26344327652765  2.15170559445945 -1.89047648604860
 1  5.64460402890289  0.70139133003300 -2.96068232513251
 1  6.72809099299930  1.57509749034903  0.07394700860086
 1  6.31938981108111 -0.05950328702870  0.85446164166417
 1  7.17527965076508 -1.17778845184518 -1.12154691189119
 1  7.69955251375138  0.28173727672767 -1.85102592549255
 1  8.98849489378938  0.91209070657066  0.20487291539154
 1  8.82693581438144 -0.76483483618362  0.52298842224223
 1  10.16400103190319  0.00355650345035 -1.98241339933993
 1  9.04255386448645 -2.12174045754576 -1.94770315221522
 1  10.74225336593659 -2.48221162046205 -2.02887824592459
 1  10.13273547064706 -2.63806792149215 -0.33595098879888
 1  11.27755939753975  0.67436386978698  0.23687145794580
 1  11.33579117461746 -0.96263756135614  0.66959327942794
 1  13.04671262376238 -1.61194861416142 -1.05190746224622
 1  12.79793562346235  0.19108404440444 -1.50977531123112
 1  13.49554097439744  0.84844020732073  0.47906273497350
 1  13.92240055065507 -0.82248862776278  0.95749812381238
 1  15.37103750515052  0.32690608760876 -1.35664693349335
 1  15.41984578137814 -2.47502684388439 -0.01576971247125
 1  15.13158480288029 -2.04101862186219 -1.57214858835884
 1  16.80407868746875 -1.82655355235524 -1.22753926722672
 1  16.03770704420442  1.51267960166017  0.78869478577858
 1  16.47650172797280 -0.21532781758176  1.43019151385138
 1  18.16651338903890 -0.56643315731573 -0.53477367296730
 1  17.80193750335033  0.98214710881088 -1.07749349294930
 1  18.33535259215921  2.23678494649465  0.81742368916892
 1  18.87984394689469  0.84342918241824  1.73976722222222
 1  20.60015984828483  0.28576957455746 -0.20066417421742
 1  19.74314113261326  3.33548432493249 -0.67743992869287
 1  21.12343614441444  2.46085722782278 -1.50314829602960
 1  19.56981537913791  1.99254954515452 -1.96584496889689
 1  21.13504735823582  1.36417205810581  1.98872254105411
 1  22.20768866166616  1.86235670637064  0.80187684128413
 1  20.76427650615062  3.00605672287229  1.59376651335134

