%nproc=4
%Mem=3GB
# td=(NStates=1) iop(3/107=0140000000,3/108=0140000000) CAM-B3LYP/6-31G(d,p) 

TD

0 1
12 -7.14544923662366  0.60150853435344  0.09686605660566
 6 -4.76596541304130 -1.98892612321232  0.37227262966297
 6 -4.75628165876588  2.74208292619262  1.20926103130313
 6 -9.38230499499950  3.07383493649365 -0.36175865116512
 6 -9.57305340334034 -1.75352711841184 -0.82891969686969
 7 -5.11050808200820  0.47317340794079  0.76831465546555
 6 -4.28309055635564 -0.76352749594960  0.81304919961996
 6 -2.95532175277528 -0.51738013601360  1.22824849394939
 6 -3.03774700160016  0.90315901750175  1.76035231453145
 6 -4.30411064576458  1.45435008610861  1.14933932783278
 6 -3.06579276007601  1.01322414171417  3.26960227482748
 6 -2.01245697539754 -0.65950193939394  0.07185099539954
 6 -0.51319702890289 -0.50784403240324  0.56466984928493
 6  0.57837976117612 -0.64939156105611 -0.61261105120512
 8  0.23092330913091 -1.02924670237024 -1.70986837993799
 8  1.72470106850685 -0.23094303270327 -0.20141552915292
 7 -7.02611025442544  2.64568777867787  0.21938286238624
 6 -5.93751389518952  3.37385115251525  0.73720959705971
 6 -6.25715062346235  4.73784064766477  0.71097935663566
 6 -7.64131891719172  4.80762256745675  0.29088521492149
 6 -8.00592011951195  3.46144308310831  0.05480347894789
 6 -5.44813684758476  5.87195666936694  1.15442559775978
 6 -8.41872188018802  5.96322659225923  0.08890950345034
 6 -8.35525393539354  7.17177632733273  0.84337839713971
 7 -9.09638867996800  0.66499349374938 -0.47030360426043
 6 -9.85724321062106  1.81954527882788 -0.64453726722672
 6 -11.13955790849085  1.55599504400440 -1.18969382908291
 6 -11.19559904710471  0.19255680148015 -1.37428745704570
 6 -9.91751935553555 -0.38473866726673 -0.97655985728573
 6 -12.18432937063706  2.57345258665867 -1.43505295799580
 6 -12.40355414831483 -0.59037516131613 -1.85346467706771
 6 -12.12958486738674 -1.04615480778078 -3.36641729292929
 7 -7.20549351175117 -1.38694353005301 -0.09706238133813
 6 -8.33942826912691 -2.28092663816382 -0.43220480038004
 6 -7.87473951375137 -3.59825037643764 -0.49081938173817
 6 -6.49006679717972 -3.62045502760276 -0.10865294699470
 6 -6.15149888158816 -2.21988994479448  0.13062489788979
 6 -8.69625196469647 -4.82235833423342 -0.50087347044704
 6 -5.35107056995700 -4.35620918431843  0.09296427052705
 8 -5.08329932223222 -5.61893875087509  0.18125407400740
 6 -4.20443494609461 -3.28806625402540  0.60538886048605
 6 -3.59686386318632 -3.66008395109511  1.90874684318432
 8 -3.85196798019802 -3.19172653055306  3.01106446464646
 8 -2.74347970077008 -4.73292191069107  1.75993503100310
 6 -2.27624658165817 -5.33784899079908  2.94851225162516
 6  2.71128744914491 -0.43029131803180 -1.29196271347135
 6  4.04273515871587 -0.30168543644364 -0.66961952475248
 6  5.12171766306631  0.48892542054205 -0.91638451545155
 6  4.97054077967797  1.33450112541254 -2.16817095209521
 6  6.38292457115712  0.53140375637564 -0.20428095249525
 6  7.54305575817582 -0.09575812381238 -0.97822815151515
 6  8.88586629822982 -0.01603341944194 -0.15806190859086
 6  10.11055651625163 -0.57814947814781 -0.88705442544254
 6  9.98745202180218 -2.11458933883388 -1.18341530753075
 6  11.35578024182418 -0.35462035313531 -0.10735869836984
 6  12.75659339483948 -0.37675770927093 -0.75312281738174
 6  13.93724499629963 -0.16523223752375  0.14498090969097
 6  15.41018700970097 -0.12680176377638 -0.48362401490149
 6  15.53219949094910 -1.60845923422342 -0.88733055935594
 6  16.41237823052305  0.50957747504750  0.38188292299230
 6  17.89445703340334  0.47315104470447 -0.16503303030303
 6  18.90477089568957  1.13271134963496  0.82472572927293
 6  20.23595640004000  1.28213764626463  0.22236894289429
 6  20.25461830763076  1.98950625572557 -1.11986668256826
 6  21.24367943494349  1.97386908680868  1.29823376337634
 1 -4.02427279077908  3.46112936433643  1.86141223702370
 1 -10.29071119441944  3.79865213971397 -0.35802032823282
 1 -10.15712013611361 -2.61861739683968 -1.17606542594259
 1 -2.55832311951195 -1.36964716741674  1.91132762346235
 1 -2.23336680298030  1.41789385048505  1.29785343434343
 1 -2.15730881728173  0.73366247264727  3.71312164956496
 1 -3.24910201930193  2.15039426222622  3.57648567076708
 1 -3.98371117161716  0.49768492279228  3.61225291049105
 1 -2.06319143814381 -1.77482815361536 -0.43192119921992
 1 -2.05671204020402  0.02166978677868 -0.60376711131113
 1 -0.25447087578758  0.35955554285429  0.90481434443444
 1 -0.15019343964396 -1.36229699629963  1.19361281958196
 1 -5.33377755545555  6.76489400140014  0.31179101040104
 1 -5.59369084038404  6.24867774917492  2.08727073957396
 1 -4.18733357795780  5.68981324932493  0.89479021162116
 1 -9.13295355515551  5.78805218721872 -0.71926327902790
 1 -9.09634869856986  7.95714543554355  0.50966074177418
 1 -7.55102303440344  7.17911474787479  1.49129809010901
 1 -12.09245971897190  3.30062921002100 -2.21831766326633
 1 -13.23632092979298  1.93427216961696 -1.50216594479448
 1 -12.27258829152915  3.18909624372437 -0.41972241174117
 1 -12.63306527142714 -1.40754167696770 -1.13973747464746
 1 -13.26779907900790  0.17279456895690 -1.91449720412041
 1 -13.01009620882088 -1.53485714781478 -3.81348230633063
 1 -11.59444985068507 -0.07815628692869 -3.98874785318532
 1 -11.21819665906591 -1.85015604280428 -3.28468674687469
 1 -9.16837145574557 -5.48195469626963 -1.59900596359636
 1 -8.21788617381738 -5.69191514481448 -0.34025398049805
 1 -9.66137031603160 -4.76699514791479  0.16414414571457
 1 -3.36534405290529 -3.71586819241924 -0.15536327442744
 1 -1.72628601620162 -4.60248246164617  3.41087280488049
 1 -3.15916235353535 -5.40699022392239  3.79535057275728
 1 -1.64689521002100 -6.21226201100110  2.58333169426943
 1  2.53047110191019 -1.43336995979598 -1.67908935763576
 1  2.37136357765777  0.23211129592959 -2.11237229472947
 1  4.26180666736674 -0.62483089688969  0.44997639783978
 1  3.90436574807481  1.50637618031803 -2.55118560426043
 1  5.60471740394039  2.32918334223422 -2.06006344474447
 1  5.37551712021202  0.87468865976598 -2.96529278617862
 1  6.63087127102710  1.53968394899490  0.18772838673867
 1  6.19165703780378  0.01809447274727  0.70778697419742
 1  7.22102422522252 -1.14613528652865 -1.11237599479948
 1  7.55573813231323  0.32512161516152 -1.92622344524452
 1  8.97625366966697  0.89709920742074  0.18990141824182
 1  8.84023714451445 -0.59533788648865  0.95534165756576
 1  10.10976560836084 -0.00445429762976 -1.94175933393339
 1  9.36613622272227 -2.28475675917592 -2.01931031293129
 1  11.04609374997500 -2.60122352165216 -1.35276063416342
 1  9.67081927902790 -2.50599471417142 -0.32510990469047
 1  11.18808044964496  0.67592402580258  0.53673144394439
 1  11.53076067156716 -1.02073337093709  0.70621694179418
 1  12.87069502200220 -1.53573099239924 -1.24900717221722
 1  12.67912374227423  0.24045898189819 -1.63090742444244
 1  13.67813923422342  0.79043440674067  0.80298512721272
 1  14.11684999559956 -0.91764814371437  0.98155052905291
 1  15.28527892929293  0.57806120312031 -1.45647691649165
 1  15.77803159995999 -2.26566590779078  0.04068593309331
 1  14.77868951335133 -2.05953047304730 -1.44845621912191
 1  16.53117139673967 -1.70722161916192 -1.51456797009701
 1  16.18744201770177  1.51214954865487  0.79353526982698
 1  16.39319339713972 -0.16609289408941  1.26930542524252
 1  18.16060279797980 -0.64185069906991 -0.30476067166717
 1  17.74309161876188  0.99216811091109 -1.24802054565457
 1  18.66784584148415  2.36657792579258  1.07238918571857
 1  18.80034599709971  0.60728556805681  1.73154640014001
 1  20.50152998529853  0.24843584118412 -0.06671077887789
 1  20.01261808030803  3.16405718221822 -1.03820600530053
 1  21.38757255805580  2.02259340144014 -1.52970095129513
 1  19.45396379397940  1.82851314151415 -1.85581396579658
 1  21.54187804130413  1.17671331223122  2.22854652345235
 1  22.34458235103510  2.17245771647165  0.84268092169217
 1  20.92743282178218  2.94410052725272  1.55274241094109

