%nproc=4
%Mem=2GB
# td=(NStates=1) CAM-B3LYP/6-31G(d,p) 

TD

0 1
12 -7.19531010401040  0.57577632573257  0.12222991039104
 6 -4.83545816381638 -1.92375355375538  0.44466099879988
 6 -4.71357128602860  2.86362480978098  1.08671503640364
 6 -9.38064279977998  3.06348184368437 -0.41046390609061
 6 -9.61595190889089 -1.80005551655165 -0.73365979507951
 7 -5.06886031063106  0.50504032213221  0.62491290959096
 6 -4.29091879797980 -0.65749557155716  0.75857388058806
 6 -2.82667167256726 -0.30877030273027  1.15850620482048
 6 -2.94796823522352  1.15597826612661  1.60066079677968
 6 -4.30965796069607  1.54682543134313  1.01329835973597
 6 -2.81688677077708  1.31630391849185  3.17327873677368
 6 -1.87829129012901 -0.42610787218722 -0.09561560326033
 6 -0.38757618021802 -0.38891323852385  0.49568369766977
 6  0.57473861106111 -0.74890840374037 -0.60363574407441
 8  0.29039027912791 -1.17602300990099 -1.67460379207921
 8  1.88717052755276 -0.48075547194719 -0.22341913081308
 7 -7.04120456835684  2.63824941474147  0.22701139663966
 6 -5.98877815681568  3.38330930673067  0.74560809440944
 6 -6.42764001710171  4.68935322472247  0.77476816401640
 6 -7.71072377937794  4.78224885638564  0.40824921622162
 6 -8.15913018461846  3.42232142744274  0.04671721802180
 6 -5.59764772147215  5.92349481538154  1.09110387088709
 6 -8.53017081468147  5.94967600130013  0.06533351875188
 6 -8.50816470777078  7.10257637623762  0.74063031283128
 7 -9.12608488108811  0.58577143824382 -0.48158219191919
 6 -9.88342460216021  1.80249020212021 -0.63060938503850
 6 -11.25081417801780  1.42343068216822 -1.14404612411241
 6 -11.31053345724572  0.07677304140414 -1.16108482248225
 6 -10.00523620432043 -0.44610658495850 -0.80486550265026
 6 -12.36517534123412  2.42054262526253 -1.31873864866487
 6 -12.44317886418642 -0.78901631173117 -1.57201801030103
 6 -12.39980746914691 -0.82125453665367 -3.19745486408641
 7 -7.20955042334233 -1.42275188878888 -0.19564424142414
 6 -8.30254049384938 -2.28990416251625 -0.41966692189219
 6 -7.87344348994900 -3.64855312281228 -0.38644592189219
 6 -6.58050193429343 -3.55691002800280  0.05906417451745
 6 -6.20139273567357 -2.19874815611561  0.14402720692069
 6 -8.67214468186819 -4.75134797719772 -0.69334781318132
 6 -5.37919238953895 -4.37817170067007  0.21505437803780
 8 -5.07529636753675 -5.54833931733173  0.19252628332833
 6 -4.23591717111711 -3.37299308910891  0.50982084738474
 6 -3.58294892579258 -3.77095231653165  1.84668504140414
 8 -3.69904150475048 -3.24143087928793  3.00750343144314
 8 -2.71964315801580 -4.69889461186119  1.71109969086909
 6 -2.33668425632563 -5.40327455655566  2.90747568306831
 6  2.84183669536954 -0.74537233183318 -1.26815801620162
 6  4.21298338733873 -0.43800197649765 -0.58692884188419
 6  5.15815930033003  0.48030429582958 -1.04111388408841
 6  5.10161858485849  1.23115576487649 -2.43103726902690
 6  6.44406873967397  0.57080893109311 -0.23389987518752
 6  7.61066860476048  0.02776242934293 -1.05054200470047
 6  8.90317218981898 -0.05213034343434 -0.13204501730173
 6  10.16603722822282 -0.57368444014401 -0.99022999349935
 6  10.08651535173517 -2.10484142024202 -1.17678114311431
 6  11.33846672357236 -0.32514629542954 -0.00020915231523
 6  12.72316722442244 -0.42493654475448 -0.74383440634063
 6  13.96648611701170 -0.13950515331533  0.10035710321032
 6  15.37335346024602 -0.25551928102810 -0.56363460326033
 6  15.67744941384138 -1.74029166296630 -0.80570018771877
 6  16.40822492839284  0.40078443844384  0.48263277047705
 6  17.78716330573057  0.60396179457946 -0.13443925852585
 6  18.76327669716972  1.32493071007101  0.77929836283628
 6  20.19704837403740  1.35853618711871  0.33651841504150
 6  20.45586694049405  2.25091338853885 -0.90441143384338
 6  21.14130506130613  1.83898683498350  1.36453181658166
 1 -4.07427891239124  3.65528104950495  1.39954454135413
 1 -10.05151554425442  3.72723355835583 -0.50528592009201
 1 -10.54597788718872 -2.37320666146615 -0.98943559575958
 1 -2.65384184108411 -0.94221253515352  1.94771546274627
 1 -2.06280988618862  1.78810239283928  1.38483913431343
 1 -1.58359281678168  1.26835728862886  3.39820353385339
 1 -3.01650671067107  2.32683674117412  3.55581774717472
 1 -3.33734717741774  0.51262594659466  3.68368078087809
 1 -2.10064254915492 -1.38491845224522 -0.52599650885089
 1 -2.11001267376738  0.40755800620062 -0.90837087668767
 1 -0.01411492889289  0.61480609450945  1.01006140524052
 1 -0.44007180918092 -1.20013452865287  1.21546550175017
 1 -5.78490726612661  6.82127077117712  0.54795050425043
 1 -5.78390537993799  6.23426678977898  2.18616491359136
 1 -4.53394735073507  5.69309047544755  0.84370754635464
 1 -9.00079213171317  5.85528167626763 -0.89588981718172
 1 -8.79099031493149  8.14891563046305  0.26620624242424
 1 -7.89226869266927  7.06255265476548  1.75975436093609
 1 -12.15529963506351  3.11692201820182 -2.04539754445445
 1 -13.26348601780178  1.93531742294229 -1.66127731923192
 1 -12.64778650975098  3.11984063876388 -0.50188143214321
 1 -12.35899067746775 -1.68585803090309 -1.10339529442944
 1 -13.46953567246725 -0.30075681248125 -1.35682120962096
 1 -13.20938729132913 -1.48674336053605 -3.66937682218222
 1 -12.61729529372937  0.20689615201520 -3.50926442214221
 1 -11.47328360766077 -1.27788265536554 -3.42544116411641
 1 -9.10272987598760 -4.72517326022602 -1.80606387048705
 1 -8.27556692149215 -5.74101410561056 -0.93275288828883
 1 -9.35233511841184 -4.73101812311231  0.17272544994499
 1 -3.26505720162016 -3.46029928062806 -0.08042331383138
 1 -1.54841300780078 -4.70055649534954  3.30875379067907
 1 -3.20769037763776 -5.35612723032303  3.68166100500050
 1 -1.95318342984298 -6.34793406660666  2.51042499539954
 1  2.63762306640664 -1.83464530043004 -1.49737370237024
 1  2.80370784838484 -0.07357307770777 -2.14843799599960
 1  4.27776868246825 -0.89466168136814  0.36720993699370
 1  4.07991695519552  1.33906261666167 -2.62009037873787
 1  5.45631104280428  2.20496075497550 -2.20659712791279
 1  5.87315462306231  0.70927203470347 -2.97156588758876
 1  6.87745980888089  1.81987598759876 -0.06670402760276
 1  6.42729684908491  0.18075003760376  0.74943466016602
 1  7.52608999369937 -0.92272150735073 -1.63478480208021
 1  7.83757619351935  0.69266247434744 -1.77302022562256
 1  9.14539659125913  0.98290617561756  0.26420405260526
 1  8.72351083978398 -0.86271177737774  0.55723358705871
 1  10.40248780018002 -0.03595105740574 -1.84961985148515
 1  9.24393937943794 -2.44804278077808 -1.64713063786379
 1  10.93709626532653 -2.20824760866087 -1.93626787068707
 1  10.16300918691869 -2.92961490349035 -0.44596403610361
 1  11.38228590949095  0.77991022122212  0.49390087758776
 1  11.28283133653365 -1.00382634393439  0.94895551715172
 1  12.81552487138714 -1.50983914511451 -1.19957762536254
 1  12.71233498599860  0.08839953095310 -1.57106046734673
 1  13.74458589528953  0.84770732673267  0.47013435643564
 1  13.83691644474447 -0.89800940564056  0.98498501500150
 1  15.40084337283728  0.15731521652165 -1.53604796279628
 1  15.99140658355835 -2.14168446054605  0.27150569666967
 1  14.86836988768877 -2.22119449504950 -1.31456887198720
 1  16.50037966736674 -1.73922944784478 -1.61640310981098
 1  16.03844904560456  1.31331916561656  0.61400794509451
 1  16.11637608480848 -0.09772894799480  1.26711947314731
 1  18.16690762946295 -0.50223677107711 -0.30761410181018
 1  17.86143320782078  1.23374069296930 -1.03786736253625
 1  18.45480627322732  2.16940109780978  1.12099010431043
 1  18.86086324662466  0.65686986798680  1.66851685198520
 1  20.43371828452845  0.19958610681068  0.41886895089509
 1  20.11546565316532  3.26260982288229 -0.79100269366937
 1  21.61464571667167  2.46103275607561 -1.04852621592159
 1  19.83810771517152  1.71479329012901 -1.80725769476948
 1  21.13557953315332  1.11686979607961  2.38371798899890
 1  22.08870057635763  2.13867509720972  0.88851381768177
 1  20.81797152705271  2.63982406570657  1.89792023252325

