%nproc=4
%Mem=2GB
# td=(NStates=1) CAM-B3LYP/6-31G(d,p) 

TD

0 1
12 -7.09079965296530  0.65545429352935  0.21706939433943
 6 -4.89109372737274 -1.96276745514551  0.55472200490049
 6 -4.68045797469747  2.79539798709871  0.93619998489849
 6 -9.31615635113511  3.11622711821182 -0.39319217891789
 6 -9.45828614231423 -1.72779829082908 -0.96158258735874
 7 -5.16158958355836  0.38045786388639  0.79290970927093
 6 -4.40769047514751 -0.74333415541554  0.88400642384238
 6 -2.90013901930193 -0.49817924362436  1.38923927812781
 6 -2.93514695309531  0.97369003730373  1.75616634733473
 6 -4.35592258715872  1.49783053185319  1.16426345624562
 6 -2.99097417951795  1.30078236633663  3.24919632853285
 6 -1.92438589958996 -0.71938720012001  0.15213917221722
 6 -0.41012843544354 -0.64171851905191  0.69871400070007
 6  0.52929406660666 -0.81926543944394 -0.49662504300430
 8  0.20646188628863 -1.20986639423942 -1.58260459215922
 8  1.72644445494549 -0.51771916831683 -0.06984377327733
 7 -6.98013846174617  2.54563015281528  0.29649834533453
 6 -5.89233851285129  3.44754573037304  0.60851438503850
 6 -6.31415866896690  4.80060434983498  0.60207089428943
 6 -7.68653136013601  4.83143377487749  0.31603999529953
 6 -8.06860113171317  3.48249744504450  0.08883142944294
 6 -5.31076903360336  5.84653711961196  1.13794855535554
 6 -8.51018881648165  6.03379441314131  0.03852083748375
 6 -8.29997388868887  7.15243136173617  0.62360861066107
 7 -9.11111338393839  0.64905776687669 -0.56073010671067
 6 -9.77945420512051  1.84652460556056 -0.63006933103310
 6 -11.16513561016102  1.46745508460846 -1.05321704120412
 6 -11.22122452635264  0.11675703980398 -1.22937165116512
 6 -9.93685936663666 -0.34742671697170 -0.90068508460846
 6 -12.31219004270427  2.45266583758376 -1.45542231703170
 6 -12.38724327062706 -0.60544795489549 -1.69404021252125
 6 -12.26323381178118 -1.14561697289729 -3.14901001960196
 7 -7.26268573687369 -1.46010562416242  0.02062738573857
 6 -8.30844108390839 -2.21699687178718 -0.55571052625263
 6 -7.84703084868487 -3.59737800530053 -0.66141341864186
 6 -6.55637952205220 -3.50397473447345 -0.17858959085909
 6 -6.25436803320332 -2.21467974927493  0.20146295049505
 6 -8.73529099649965 -4.69818266066607 -1.03920239863986
 6 -5.26959142944294 -4.35134901840184  0.08904177677768
 8 -5.17529636753675 -5.62639712311231 -0.04896786608661
 6 -4.19721330073007 -3.37252304210421  0.53445331063106
 6 -3.68956958785879 -3.70783600490049  1.92825319821982
 8 -4.01448304890489 -3.28444518071807  2.97377005810581
 8 -2.80385157885789 -4.72989771217122  1.83513209410941
 6 -2.34389497739774 -5.25375960506051  3.19314424992499
 6  2.67393990569057 -0.66354414901490 -1.14303550395039
 6  4.14655674467447 -0.46584476077608 -0.57414756375638
 6  5.12601608600860  0.29119538493849 -1.02650242294229
 6  4.98730715371537  1.33729637893789 -2.15679984528453
 6  6.50056438923892  0.40749259945995 -0.24752123732373
 6  7.64234177207721  0.00615026812681 -1.01541849234923
 6  8.86515838843884 -0.04073920432043 -0.20007181998200
 6  10.19021964646465 -0.50227729942994 -0.93916488698870
 6  10.17188388858886 -1.94967590369037 -1.24938840384038
 6  11.46638951585158 -0.15843962476248 -0.05999513091309
 6  12.77569247694769 -0.31096514761476 -0.75784580748075
 6  13.99106857525753  0.07826662386239  0.14263133063306
 6  15.38610473537354 -0.15851958105811 -0.49094733453345
 6  15.72783445234523 -1.64836247004700 -0.89127874557456
 6  16.41001510741074  0.49046340634063  0.34930943814381
 6  17.84668925832583  0.55310670907091 -0.25790160476048
 6  18.67896826632663  1.33668188518852  0.68879931293129
 6  20.10868953815381  1.32949328282828  0.28654341754175
 6  20.41979333313331  2.05919421662166 -1.01186217891789
 6  21.15903683448345  1.88876181248125  1.27491285468547
 1 -3.99231071557156  3.64092961436144  1.44731931883188
 1 -10.10626101880188  3.80049088408841 -0.52132752425243
 1 -10.42307559695970 -2.39112845364536 -1.24165081728173
 1 -2.64459091599160 -1.20031834573457  2.25707639883988
 1 -2.22186579177918  1.63255683828383  1.07309796019602
 1 -2.01403586108611  0.95200565346535  3.68215192869287
 1 -3.13943900390039  2.26697075457546  3.17284945034503
 1 -3.84648809150915  0.76202088608861  3.70620303310331
 1 -1.95739822472247 -1.61912187258726 -0.26176008520852
 1 -2.10174184668467  0.03324057445745 -0.67022706230623
 1 -0.34918843624362  0.35253986788679  1.08157855695570
 1 -0.30169797179718 -1.46227074227423  1.44177813301330
 1 -5.49461823722372  6.80666931103110  0.71381709090909
 1 -5.43460044944494  5.80024338743874  2.35684198129813
 1 -4.24702865886589  5.60606177257726  0.86876005160516
 1 -9.34624667716772  5.91969811791179 -0.69270949914992
 1 -9.00719193509351  7.99210994989499  0.17169679147915
 1 -7.58255772157216  7.49830623012301  1.38696708220822
 1 -12.17885199029903  2.91232155815582 -2.52463546824683
 1 -13.13461313051305  1.81214510571057 -1.71303249474947
 1 -12.67192892399240  3.27371602630263 -0.73702494649465
 1 -12.56130090849085 -1.49738918401840 -0.92976793169317
 1 -13.08789750865087 -0.01614835163516 -1.55157068456846
 1 -13.17479383198320 -1.64265895209521 -3.46817670217022
 1 -12.35171873607361 -0.03000753835384 -3.74682817851785
 1 -11.44636091539154 -1.87174204130413 -3.40711933193319
 1 -9.42773237623762 -4.60876161906191 -2.00429369346935
 1 -8.18873823862386 -5.71795179937994 -1.16420603360336
 1 -9.43892377727773 -5.00485550685069 -0.13321514411441
 1 -3.33713440934093 -3.31625487618762 -0.09553482498250
 1 -1.73530169666967 -4.36671311101110  3.63495641094109
 1 -3.18408801740174 -5.44035565316532  3.89417225612561
 1 -1.95611372287229 -6.13639291249125  2.87658161106111
 1  2.56879618371837 -1.53225506140614 -1.68525249024902
 1  2.08252573017302  0.14726900650065 -1.79943309550955
 1  4.31397230283028 -0.91402361756176  0.43625684168417
 1  3.99372833633363  1.17976668706871 -2.49421779147915
 1  5.01866727842784  2.38226848574857 -1.47394386258626
 1  5.90092740034003  1.25105621312131 -3.06962569356936
 1  6.53772583548355  1.55547954795480 -0.03125048224822
 1  6.44419853925393 -0.18337637503750  0.83553327002700
 1  7.50225761046105 -1.01632086728673 -1.38627995159516
 1  7.78160059595960  0.53757696579658 -1.98152107570757
 1  8.93777582918292  1.02123000800080  0.16090372257226
 1  8.59816830553055 -0.52260776697670  0.68680654435444
 1  10.32090964236424 -0.15005246754675 -1.81084597409741
 1  9.36131111661166 -2.23319129562956 -1.90124604940494
 1  10.96650920662066 -2.14362114601460 -1.91235547944794
 1  10.16161904790479 -2.53918586058606 -0.15235467516752
 1  11.38294597549755  1.05004723492349  0.28030951845185
 1  11.41246429982998 -0.67728368966897  0.89888050965097
 1  12.85939925882588 -1.36659482068207 -1.22234990259026
 1  12.78794254675467  0.23653434443444 -1.58833219451945
 1  13.76975841254125  0.97423997999800  0.25854319731973
 1  14.10916366946695 -0.44699430413041  1.06436295279528
 1  15.49634292279228  0.35575506050605 -1.45608996699670
 1  15.66096353925393 -2.32274256635664  0.01018956505651
 1  14.98839188988899 -1.88987136273627 -1.66060347544754
 1  16.80770039943994 -1.71298682358236 -1.27066853635364
 1  15.97328252895290  1.52110994469447  0.51946849114911
 1  16.67539198639864 -0.11821099619962  1.30164292549255
 1  18.20573151185119 -0.33235978337834 -0.57868120852085
 1  17.60486755125513  1.02154947384738 -1.32268584438444
 1  18.42758355095510  2.44514867256726  0.65760376567657
 1  18.78694585488549  0.95726990799080  1.75541554185419
 1  20.73082799549955  0.34471061926193  0.06823388738874
 1  20.17359146574657  3.18435199709971 -1.02480607400740
 1  21.53924817691769  2.09073572637264 -1.28292965626563
 1  19.80421432583259  1.62289410021002 -1.88353532253225
 1  21.25287126232623  1.16543465256526  2.15774539173917
 1  22.02914462076208  1.63431466116612  0.96856182248225
 1  20.86208593849385  2.98131821512151  1.63914435493549

