%nproc=4
%Mem=2GB
# td=(NStates=1) CAM-B3LYP/6-31G(d,p) 

TD

0 1
12 -7.12456302930293  0.60357910601060  0.19379706710671
 6 -4.76554117211721 -1.98684986338634  0.54873140584058
 6 -4.87852778167817  2.91380982828283  1.23048941384138
 6 -9.42612734823482  3.04633012851285 -0.51502436213621
 6 -9.52365267896790 -1.80079559055906 -0.95094152325233
 7 -5.10403382798280  0.44124394249425  0.77505792409241
 6 -4.33529323542354 -0.69919974197420  0.80279830303030
 6 -2.94014301970197 -0.35014444014401  1.33871422562256
 6 -3.11685512391239  1.10166283458346  1.78819955065507
 6 -4.47814480938094  1.52423317211721  1.23238026792679
 6 -3.06229131123112  1.24847713581358  3.32456386528653
 6 -1.87578103910391 -0.58713397479748  0.09156311461146
 6 -0.45745316791679 -0.33010735793579  0.67412154145415
 6  0.43696483368337 -0.56092960586059 -0.49120450095010
 8  0.24935617571757 -0.87372277987799 -1.66795312701270
 8  1.73140495099510 -0.28146554295430 -0.12425921482148
 7 -7.14027447534754  2.66269185898590  0.29988868436844
 6 -6.19271855085509  3.37152812861286  0.83737727132713
 6 -6.49420667376738  4.75464975437544  0.83879456665667
 6 -7.79739244624462  4.85782641414141  0.37516590789079
 6 -8.19207347894790  3.48053724902490 -0.00587804150415
 6 -5.57823578027803  5.97635010091009  1.28504326482648
 6 -8.54424222182218  6.02435346904690 -0.03093610821082
 6 -8.64626851815182  7.11736785538554  0.81223747354735
 7 -8.97487976057606  0.67213007410741 -0.67302133583358
 6 -9.83391965166517  1.72758271137114 -0.79611593569357
 6 -11.12523161976198  1.42566090519052 -1.22778449794979
 6 -11.16209861376138  0.09630499459946 -1.33799251325133
 6 -9.82487816851685 -0.40749272357236 -0.99653466956696
 6 -12.31125994969497  2.46603717471747 -1.45725250005001
 6 -12.20431497779778 -0.72721013111311 -1.86154696319632
 6 -12.31917940634063 -1.08869128032803 -3.34688980758076
 7 -7.20228969726973 -1.47300691429143  0.01081640464046
 6 -8.21777201700170 -2.23285845794579 -0.53798875407541
 6 -7.77896404200420 -3.57842611011101 -0.43696097339734
 6 -6.46725060916092 -3.58306264326433  0.00344861296130
 6 -6.08704130053005 -2.22117039833983  0.23944674887489
 6 -8.55331279867987 -4.73921676407641 -0.97752623102310
 6 -5.26988145844584 -4.29931381488149  0.34029690229023
 8 -4.99123796169617 -5.53753823722372  0.08640567126713
 6 -4.12891647104710 -3.28572436223622  0.61513137843784
 6 -3.41009164006401 -3.68973419471947  1.93712408530853
 8 -3.80431203180318 -3.24677141334133  3.03638631973197
 8 -2.59872106580658 -4.65531025342534  1.76249483038304
 6 -2.00707129502950 -5.21317554665467  2.91679661516152
 6  2.60667317901790 -0.44730252485249 -1.16902810321032
 6  4.06934902390239 -0.26791496779678 -0.57433758275828
 6  5.08636212061206  0.38337460286029 -1.08517829052905
 6  5.10350877387739  1.11693434273427 -2.42290645594559
 6  6.42306663946395  0.46889874007401 -0.29490597579758
 6  7.61094863276328 -0.25750609750975 -1.07552450295029
 6  8.91318319091909 -0.21791692209221 -0.24217603040304
 6  10.15908653315332 -0.63141021272127 -0.93853482398240
 6  10.11539824002400 -2.13562449854985 -1.34838830383038
 6  11.38494137103710 -0.53379716051605 -0.03020215161516
 6  12.75963087078708 -0.54403845494549 -0.70607062996300
 6  13.91899136753675 -0.31580278307831  0.26257332483248
 6  15.32444856975698 -0.24350807990799 -0.49174741454145
 6  15.78263993289329 -1.65029266306631 -0.77702732043204
 6  16.27521162706271  0.43200756075608  0.39461396859686
 6  17.69476406580658  0.53904530293029 -0.17171298589859
 6  18.82357272677268  1.26468468546855  0.74433486648665
 6  20.32455112431243  1.35271560506051  0.20063482668267
 6  20.34151550535054  2.07805610281028 -1.12566355905591
 6  21.06293722452245  2.04659759605961  1.20329569296930
 1 -4.17315880038004  3.75787130853085  1.67878246514651
 1 -10.27786817951795  3.68880971597160 -0.69718511001100
 1 -10.25689897929793 -2.58790813161316 -1.17938459065907
 1 -2.62484894179418 -0.99697801170117  2.09508019921992
 1 -2.43221682688269  1.97448103070307  1.23570422082208
 1 -2.10944540204020  0.98141859475948  3.94171788528853
 1 -2.93448850885089  2.26474053155316  3.73655582098210
 1 -3.96999044174417  0.79092377637764  3.66834924772477
 1 -1.82790527542754 -1.60278023842384  0.01667775857586
 1 -2.38427009950995 -0.06731948154815 -0.74081412101210
 1 -0.11708522592259  0.80523513741374  1.05736613571357
 1 -0.28274607660766 -1.06691120632063  1.36533048824882
 1 -5.98437721312131  6.85507415151515  0.74007971717172
 1 -5.80792778217822  6.16759012211221  2.29907620472047
 1 -4.41472542854285  5.70244141054105  1.30899407500750
 1 -9.00523257575758  5.94700084818482 -0.99544977317732
 1 -9.17543875977598  7.96739747864787  0.48596821862186
 1 -8.20491995779578  6.80274667416742  1.93456184168417
 1 -12.29553365846585  3.13385371137114 -2.37900090479048
 1 -13.14908457765777  1.60104399559956 -1.54900609210921
 1 -12.44914664576458  3.09249790449045 -0.59305054905491
 1 -12.46404118251825 -1.79272871797180 -1.39646460136014
 1 -13.03472219111911 -0.13176991379138 -1.55551107860786
 1 -12.98866521912191 -1.72120680688069 -3.60557044154415
 1 -12.33675723992399 -0.15500003760376 -4.15832932863286
 1 -11.28151443074307 -1.58594346144614 -3.42589120912091
 1 -8.67269687268727 -5.02158290119012 -2.05571883598360
 1 -7.98859822462246 -5.61976198039804 -0.42612222522252
 1 -9.52930281518152 -4.80827584888489 -0.22760458305831
 1 -3.40206090199020 -3.51245449614962 -0.23967923942394
 1 -1.26529469596960 -4.64885132483248  3.35896881218122
 1 -2.74775438403840 -5.53314493209321  3.53555639453945
 1 -1.48808692019202 -6.14526379957996  2.54792874577458
 1  2.31480078417842 -1.42962479837984 -1.46118008300830
 1  2.50172765036504  0.18870314991499 -1.95959911211121
 1  3.98937984358436 -0.61427364256426  0.45674889088909
 1  4.04281324482448  1.28029674007401 -2.89834820452045
 1  5.47964337603760  2.18718897779778 -2.39012548074807
 1  5.58174548214821  0.49803091059106 -3.39530826182618
 1  6.36844890779078  1.58044204420442 -0.05952330953095
 1  6.16134025342534 -0.14945298269827  0.60669038573857
 1  7.32521990669067 -1.28463769896990 -1.42221354495450
 1  8.07851028692869  0.21950515861586 -2.11245416901690
 1  9.13747579917992  0.65267315231523  0.16940457265727
 1  9.06658514721472 -0.94165967216722  0.64386224992499
 1  10.42954050545054  0.01834437213721 -1.82912780228023
 1  9.45019000450045 -2.30276825332533 -2.19198512331233
 1  11.06922947864786 -2.43525030893089 -1.71659590349035
 1  9.67761064706471 -2.94660660266027 -0.61571101080108
 1  11.39640732163216  0.35144737493749  0.28090957845785
 1  11.49095214861486 -1.18184414571457  0.71332195379538
 1  12.85757907680768 -1.56252441364136 -1.28483615121512
 1  12.93437719021902  0.29326001700170 -1.46116947824782
 1  13.64098553525353  0.57714027002700  0.79236657965797
 1  14.03960671377138 -1.15135474017402  1.14520103660366
 1  15.07383067156716  0.15819530453045 -1.31607596559656
 1  16.18631607450745 -2.21465175727573  0.33032157825783
 1  14.93940699139914 -2.30677305290529 -1.27368478357836
 1  16.67014664406441 -1.68564408930893 -1.47798926842684
 1  15.83296849754975  1.38502633633363  0.78376492079208
 1  16.52814726192619 -0.32299147424742  1.36006876807681
 1  18.10139107780778 -0.47129367676768 -0.33596693709371
 1  17.59485655015502  1.15113243214322 -1.16344992079208
 1  18.34805559815982  2.18715287298730  1.02171017631763
 1  18.96292345264527  0.64740892189219  1.67018701900190
 1  20.44725963866387  0.29061520972097  0.23257032103210
 1  19.77602170877088  3.15169873177318 -1.12338593199320
 1  21.46199045114512  2.25360201300130 -1.32186354965497
 1  19.97684158855886  1.49768157895789 -1.97583455245525
 1  21.00255623082308  1.54024213331333  2.15999561676168
 1  22.16948865516552  2.19378060776078  0.93624859115912
 1  20.75859558945895  3.05994607790779  1.43081352185219

