%nproc=4
%Mem=2GB
# td=(NStates=1) CAM-B3LYP/6-31G(d,p) 

TD

0 1
12 -7.04804537753775  0.62927167526753  0.06954464186419
 6 -4.84704932293229 -1.97956913531353  0.50471700440044
 6 -4.83885381428143  2.84829327662766  1.16684304920492
 6 -9.31789652515251  3.15777127262726 -0.44228708840884
 6 -9.55184549824983 -1.74630014101410 -0.78301473057306
 7 -5.05404882948295  0.47256707480748  0.81270168846885
 6 -4.29797950405041 -0.74904472647265  0.82833085628563
 6 -2.93513251865186 -0.38723814951495  1.31474182838284
 6 -3.01888532693269  1.07726039433943  1.71539226992699
 6 -4.42438943384338  1.45122587138714  1.09110614051405
 6 -2.99298438053805  1.24513680178018  3.12190359925993
 6 -1.87573103410341 -0.63935919731973  0.18160211851185
 6 -0.43006042864286 -0.43254760196020  0.57475160446045
 6  0.57890902810281 -0.72443595649565 -0.56550193069307
 8  0.22088332843284 -1.14484989258926 -1.62627895959596
 8  1.79684149464946 -0.45795319171917 -0.10460724962496
 7 -7.00018046594660  2.60483607340734  0.35444413991399
 6 -6.06166544554455  3.35278625442544  0.83175670927093
 6 -6.32825007810781  4.77078136753675  0.77654834203420
 6 -7.64716742374237  4.88050868236824  0.38169656095610
 6 -8.08223249484949  3.47659685498550 -0.02614006770677
 6 -5.32112006870687  5.80516298219822  1.13534829532953
 6 -8.47909570717072  6.01387242094209  0.05494247964796
 6 -8.42653654495450  7.25914203280328  0.73876012581258
 7 -9.02631490409041  0.64846770787079 -0.56585061876188
 6 -9.83761002070207  1.78980893399340 -0.71137746184618
 6 -11.13708280488049  1.51420976007601 -1.15215693519352
 6 -11.21608401230123  0.10212557665767 -1.32655136913691
 6 -9.89529521022102 -0.42772474677468 -0.94860987708771
 6 -12.29925874957496  2.48156872787279 -1.44222099689969
 6 -12.41358590489049 -0.69817722782278 -1.77442825132513
 6 -12.25067255565557 -1.05030744194419 -3.30397551615162
 7 -7.23448291659166 -1.34964457805781 -0.03672834983498
 6 -8.27002724252425 -2.25353052515252 -0.42690764596460
 6 -7.81642778837884 -3.61575984348435 -0.46200347764776
 6 -6.56005989008901 -3.57078141514151 -0.17200893279328
 6 -6.21571416781678 -2.20564884618462  0.12126493069307
 6 -8.62767023442344 -4.91634447684768 -0.75208368676868
 6 -5.41306577687769 -4.36714059755976  0.16971984458446
 8 -5.27117595549555 -5.52732721612161  0.11792882358236
 6 -4.20277385678568 -3.32541833163316  0.49519938523852
 6 -3.49124975587559 -3.67109233053305  1.80011038393839
 8 -3.77890949154916 -3.08483521972197  2.92005468656866
 8 -2.76096729042904 -4.62995771817182  1.71816039693969
 6 -2.19174976287629 -5.15339956905691  2.98854378987899
 6  2.76414892659266 -0.74907270187019 -1.12188338873887
 6  4.13580566956696 -0.49769794609461 -0.48030817981798
 6  5.14187767216722  0.31265753115312 -0.92283205590559
 6  4.98021644464446  1.19872252155216 -2.08138230353035
 6  6.40593492629263  0.40648249844984 -0.22576906210621
 6  7.55063260116012 -0.32199254615462 -0.88877582808281
 6  8.96118799139914 -0.09783491389139 -0.18998081088109
 6  10.14228485298530 -0.55275234693469 -0.92544351485149
 6  10.09232593279328 -2.00139107520752 -1.32399586458646
 6  11.46380925782578 -0.34240802160216  0.02311317991799
 6  12.81014592229223 -0.50820487158716 -0.81242126502650
 6  13.92999246764676 -0.26724792759276  0.13850091759176
 6  15.33902002690269 -0.25105883498350 -0.54670291009101
 6  15.69994166306631 -1.73747138093809 -0.97004662236224
 6  16.46356046194619  0.28839319931993  0.29304381158116
 6  17.83022761216122  0.56707810621062 -0.31880769536954
 6  18.74766513601360  1.34416263326333  0.81875230823082
 6  20.16130479967997  1.54702503600360  0.23251801500150
 6  20.15787714151415  2.33324162136214 -1.03509450215022
 6  20.99331026182618  2.19235217151715  1.36516187958796
 1 -4.09975145964596  3.39593511491149  1.70874546144614
 1 -10.20255064776478  3.93011384638464 -0.55455084658466
 1 -10.27353064246425 -2.52505184598460 -0.82955960816082
 1 -2.72515897279728 -1.23749206310631  2.11899259045905
 1 -2.05843944914491  1.73605718831883  1.25023567396740
 1 -2.01743620112011  0.82960341324132  3.56231994549455
 1 -3.03607866786679  2.28794285178518  3.41443360876088
 1 -3.63151659435944  0.55498018201820  3.69056146894689
 1 -1.96599908480848 -1.67385734613461 -0.31953586278628
 1 -2.37451912441244 -0.05855860546055 -0.62037207680768
 1 -0.06678019541954  0.42603721762176  1.30451085018502
 1 -0.39668747074707 -1.34635915111511  1.30948490369037
 1 -5.64659343474347  6.77057570167017  0.80717642684268
 1 -5.32262925232523  5.84917828092809  2.29541583868387
 1 -4.21398535453545  5.65245641204120  0.62058523412341
 1 -9.20618267076708  5.98260440854085 -0.65047527572757
 1 -9.05532674857486  8.11928266716672  0.56752637443744
 1 -7.71685115091509  7.07834423392339  1.71979036453645
 1 -12.19665377047705  3.22357268326833 -2.30574357905791
 1 -13.24945461466146  1.96956084728473 -1.60116130763076
 1 -12.41555328642864  3.37645630033003 -0.69493073707371
 1 -12.43511829022902 -1.73182262736274 -1.38377333223322
 1 -13.33058177707771 -0.07947468426843 -1.63465899339934
 1 -13.01497785038504 -1.75785047124712 -3.54584446894689
 1 -12.18290185438544 -0.14937947554755 -4.14133762946295
 1 -11.32802908220822 -1.71077594469447 -3.59325794579458
 1 -9.21657126012601 -4.92527327022702 -1.58127139123912
 1 -7.90409977477748 -5.74037404160416 -0.80136974997500
 1 -9.37146703160316 -5.08108312961296  0.01856003340334
 1 -3.47707840374037 -3.25722897359736 -0.38440371187119
 1 -1.36349451595160 -4.33237967766777  3.28052096739674
 1 -3.23735334393439 -5.17899951755176  3.74888772767277
 1 -1.73565167666767 -5.98340761396140  2.55030898379838
 1  2.65250455455546 -1.62362419831983 -1.55003896889689
 1  2.59120659825983 -0.03541926232623 -1.99936308850885
 1  4.40369127472747 -1.25433764896490  0.27763097909791
 1  4.03376233973397  0.93824253465347 -2.48054642434243
 1  5.43141855355536  2.12102236113611 -1.83749021722172
 1  5.48079538713871  0.86336744424442 -3.02624135513551
 1  6.53406546944695  1.44446844684468 -0.06446380358036
 1  6.22531665106511  0.05317728032803  0.86290600730073
 1  7.25537292199220 -1.33696293149315 -0.90560188378838
 1  7.82405484138414  0.15956916501650 -1.92926585018502
 1  9.09186123772377  0.98329621462146  0.04548218041804
 1  8.92981146984699 -0.68723422962296  0.74349221292129
 1  10.25077262866287 -0.02315977827783 -2.01977686718672
 1  9.09234421992199 -2.16263423992399 -1.90106603140314
 1  10.88423097879788 -2.36084286818682 -2.14633887778778
 1  10.12455534153415 -2.66047798979898 -0.43323276297630
 1  11.39817749864986  0.69376160636064  0.38285977347735
 1  11.40225327872787 -0.97565352665267  1.02543316491649
 1  12.82740605950595 -1.49306746794679 -1.24542220982098
 1  12.92862661516152  0.09143983498350 -1.74931829312931
 1  13.71939337603760  0.75946850285028  0.58441578457846
 1  13.77334008710871 -0.99409901460146  0.89658617511751
 1  15.37348063656366  0.27253673867387 -1.49600395839584
 1  15.95771321422142 -2.25636592869287  0.06631517761776
 1  14.66731978267827 -2.13055543114311 -1.53029044414441
 1  16.58173780318032 -1.75664118901890 -1.83579504900490
 1  16.17629282998300  1.32977081078108  0.48522506680668
 1  16.35287973517352 -0.37649682478248  1.19982274347435
 1  18.48492943164316 -0.41396794419442 -0.45802914331433
 1  17.72808987348735  1.18699601850185 -1.26943051885188
 1  18.30770156275628  2.42105626332633  1.08701670697070
 1  18.76598375867587  0.73464764576458  1.87356735703570
 1  20.33765867856786  0.44857100530053 -0.01229416541654
 1  19.81186529312931  3.33988755065507 -0.70124371777178
 1  21.17818207030703  2.29930658345835 -1.40907227052705
 1  19.39911381578158  2.11684349514952 -1.81753872287229
 1  20.80099607480748  1.76777488658866  2.32406202340234
 1  22.15069677597760  2.30501173087309  1.43455842214221
 1  20.59739946984699  3.09735981928193  1.62553299379938

