%nproc=4
%Mem=2GB
# td=(NStates=1) CAM-B3LYP/6-31G(d,p) 

TD

0 1
<<<<<<< HEAD
12 -7.14873544654465  0.61493024112411  0.11213890129013
 6 -4.85435005300530 -1.96392757115712  0.55474200690069
 6 -4.79128905780578  2.86908535583558  1.18689505440544
 6 -9.41923665916592  3.09916541204120 -0.42990585028503
 6 -9.56117643134314 -1.78204371537154 -0.83069949904991
 7 -5.04846827142714  0.43194301240124  0.69566998529853
 6 -4.33776348244824 -0.71680150215021  0.90158818201820
 6 -2.91494049944995 -0.41949137483748  1.23860421462146
 6 -2.99049248764877  1.06751942024202  1.65794652535254
 6 -4.31422841774177  1.52086283508351  1.11436846674667
 6 -2.74015909800980  1.31582387048705  3.13598500740074
 6 -1.92154561556156 -0.77219248064806  0.09523348164816
 6 -0.45097251985199 -0.54911925912591  0.46378050735074
 6  0.59094023122312 -0.81079459235924 -0.64938031853185
 8  0.29813105320532 -1.23381878947895 -1.71925825752575
 8  1.91136294679468 -0.63455085148515 -0.19095588448845
 7 -7.07205765366537  2.61970756055606  0.40245894139414
 6 -6.04110338933893  3.34419539533953  0.77448098169817
 6 -6.41653890699070  4.74084837423742  0.78328901610161
 6 -7.73113582058206  4.82455308680868  0.38679707100710
 6 -8.15982025362536  3.47609680498050  0.08601114741474
 6 -5.50522847954795  5.89989245514551  1.24750951145115
 6 -8.62444024162416  6.03650468416842  0.19400638603860
 6 -8.53662755405541  7.23363948254825  0.78542479227923
 7 -9.11302357495750  0.74611747284728 -0.60018405210521
 6 -9.93399965966597  1.83548350145015 -0.74818114221422
 6 -11.13801289788979  1.51459979907991 -1.22787450695069
 6 -11.19861226512651  0.10272563666367 -1.34752346634663
 6 -9.97548322902290 -0.42511448574857 -0.86446146224622
 6 -12.36989581328133  2.41844241524152 -1.39881665646565
 6 -12.42956750305031 -0.71035844594459 -1.80151095959596
 6 -12.11850933933393 -1.20883329452945 -3.27691280988099
 7 -7.24672414071407 -1.42416202980298 -0.03633831083108
 6 -8.34511475127513 -2.25644081618162 -0.43336829202920
 6 -7.85260140574057 -3.69134740224022 -0.45372264956496
 6 -6.51743562766277 -3.56809114611461 -0.05480721262126
 6 -6.22545514191419 -2.16996527782778  0.11229403360336
 6 -8.63023049044904 -4.73770661306131 -0.90821930033003
 6 -5.38467293759376 -4.32079596309631  0.21386425902590
 8 -5.21570040794079 -5.54196868026803  0.09880691139114
 6 -4.17309088848885 -3.25099088888889  0.62271213651365
 6 -3.57847847874787 -3.59191441274127  1.92817319021902
 8 -3.95646724732473 -3.08524526072607  2.96733941504150
 8 -2.68126932063206 -4.62891761416142  1.77558613951395
 6 -2.26291687958796 -5.09120334943494  3.10296523202320
 6  2.85924843654365 -0.68178597319732 -1.22450365076508
 6  4.13457554655466 -0.52866104240424 -0.54864501350135
 6  5.11869535393539  0.31934820022002 -0.97476724942494
 6  5.16113453645364  1.18962161146115 -2.26727089238924
 6  6.47262159495950  0.41605345554555 -0.21288777397740
 6  7.62940047794779 -0.20396074297430 -1.03508045854585
 6  8.89572144474447 -0.12139727012701 -0.13454526732673
 6  10.16211683618362 -0.37346441814181 -0.85677664816482
 6  10.13234993519352 -1.85338627472747 -1.36121958695870
 6  11.42088496539654 -0.26013979477948 -0.05529466086609
 6  12.81087599529953 -0.44172822392239 -0.69575959885989
 6  13.90244971337134 -0.10961216401640  0.24192125962596
 6  15.30031615651565 -0.15268899799980 -0.46741498129813
 6  15.60633230213021 -1.59719735353535 -0.85602522022202
 6  16.40681478737874  0.47347170717072  0.32391689888989
 6  17.76917150655066  0.54887628602860 -0.21579739433943
 6  18.84358472797280  1.31286950395039  0.71323175617562
 6  20.29493816301630  1.27485781928193  0.20522528572857
 6  20.42326368016802  2.11044934213421 -1.02207320002000
 6  21.22178310911091  1.87087002330233  1.32286765016502
 1 -4.11798328282828  3.53939946134613  1.47176176307631
 1 -10.10520091279128  3.98832966796680 -0.55034042554255
 1 -10.39049233863386 -2.63416275707571 -1.27090374257426
 1 -2.54373082998300 -0.77894620852085  2.24862555375538
 1 -2.21431503670367  1.48979256185619  0.99327997839784
 1 -1.82313677117712  1.06364681758176  3.56819053255325
 1 -3.11225628562856  2.25990004750475  3.15459762516252
 1 -3.59108255095510  0.73920860486049  3.64392680548055
 1 -2.18177066196620 -1.66962692309231 -0.44671858105811
 1 -2.21032270477048 -0.11423417301730 -0.79339937953795
 1 -0.12758627602760  0.54634924882488  0.66412681178118
 1 -0.19159696169617 -1.20992550775078  1.30949490469047
 1 -5.65312408780878  6.89662830693069  0.51579728892889
 1 -5.81314830423042  6.21802516561656  2.26085238233823
 1 -4.37413136913691  5.65675684208421  1.38464163976398
 1 -9.45267732023202  5.83681983008301 -0.52006223442344
 1 -9.23230444634463  8.12923366226623  0.81233085488549
 1 -7.96037550335033  7.53958035753575  1.71023940944094
 1 -12.18712281738174  3.01040136613661 -2.10983398809881
 1 -13.37148681788179  1.86952084328433 -1.57514870637064
 1 -12.52009374047405  3.10217887258726 -0.50894213821382
 1 -12.52056683508351 -1.52395184028403 -1.14793974887489
 1 -13.35200391929193 -0.15808254505451 -1.62984851235124
 1 -12.96356270887089 -2.09664435063506 -3.58997888238824
 1 -12.07994155835584 -0.36898143574357 -4.01390488618862
 1 -11.23845012431243 -1.76988185528553 -3.49036765676568
 1 -9.10258986198620 -4.54096483938394 -2.04622788688869
 1 -7.97747711251125 -5.66550655485549 -0.97887750075007
 1 -9.68360824572457 -4.76361138243824 -0.29719154175418
 1 -3.32216291219122 -3.39641289198920 -0.19597486898690
 1 -1.42142030853085 -4.33926036573657  3.26726964226423
 1 -2.99036864546455 -5.22999461706171  3.64430726962696
 1 -1.88723683518352 -6.10192946614661  2.92771672457246
 1  2.74492379647965 -1.57573940984098 -1.87454141914191
 1  2.74175165276528 -0.05616133653365 -1.90710386258626
 1  3.94997590319032 -1.09167138233823  0.38143135913591
 1  4.26262522602260  1.25508421882188 -2.92197056675668
 1  5.47976338803880  2.22513277217722 -1.87570403860386
 1  5.81812912051205  0.70699180668067 -3.01015974697470
 1  6.62799486238624  1.52023602360236  0.16756939973997
 1  6.48277239663966 -0.19631766916692  0.63657337403740
 1  7.28740612531253 -1.21484071927193 -1.23835515911591
 1  7.90551298719872  0.41994520262026 -2.08965188878888
 1  8.90975302690269  0.86534441944194  0.19960759295930
 1  8.66397488618862 -0.75028053425343  0.82472033573357
 1  10.18822637403740  0.32227476517652 -1.74296918641864
 1  9.40024501000100 -2.02519049554955 -2.21877780258026
 1  11.20832338803880 -1.84994177807781 -1.67571181508151
 1  10.09831271727173 -2.50597253925393 -0.58061750145014
 1  11.37361504240424  0.80778300850085  0.58717020452045
 1  11.12400545394540 -0.87991395269527  0.96342696429643
 1  12.79407272617262 -1.58669683088309 -0.96163383098310
 1  12.87773152565256  0.20437112811281 -1.56491985328533
 1  13.98365980268027  1.08262081808181  0.55936327932793
 1  13.96355910901090 -0.83948355305531  1.03535005150515
 1  15.20405369386939  0.52877236223622 -1.49283364136414
 1  15.66199364226423 -2.26606689878988 -0.04271572547255
 1  14.72575562626263 -2.11046342194219 -1.49645706080608
 1  16.45180480988099 -1.51767729262926 -1.55245671517152
 1  15.81285648634863  1.40106794049405  0.69847639193919
 1  16.40061450865086  0.01485231013101  1.25466822802280
 1  17.99566050475048 -0.52808935633563 -0.46771011141114
 1  17.90106717121713  1.17736505540554 -1.19321289708971
 1  18.39427021962196  2.37017117481748  1.18789679497950
 1  19.02637979827983  0.73374755575557  1.56284628492849
 1  20.77195210791079  0.15439158735874  0.00820788478848
 1  19.99510361696169  3.06631019291929 -0.53219681308131
 1  21.35618987108711  2.38501515431543 -1.56761812511251
 1  19.63687759215922  2.02890470127013 -1.95842281128113
 1  21.24979095429543  1.16483459255926  2.16067568476848
 1  22.23666537283728  1.89436066576658  0.90406537283728
 1  20.87327705760576  2.80362044534454  1.78788922942294
=======
12 -7.04642521552155  0.63335208330833 -0.00185249784979
 6 -4.92887750575057 -1.91391256965697  0.61638817151715
 6 -4.83816374527453  2.77606605390539  1.18948531343134
 6 -9.39972470797080  3.11177667316732 -0.47235009470947
 6 -9.48065837953795 -1.73091860286029 -1.00180660976098
 7 -5.02652607720772  0.49520933903390  0.72483290159016
 6 -4.33875358145815 -0.66227604960496  0.85975399859986
 6 -2.89702870827083 -0.38596802250225  1.29561991619162
 6 -3.04446788518852  1.14932760106011  1.77100783148315
 6 -4.38065506040604  1.51147189598960  1.26861389128913
 6 -3.06089117121712  1.18416070417042  3.25675708460846
 6 -1.97561102210221 -0.56846210761076  0.13986794509451
 6 -0.51141856445645 -0.46450079727973  0.54339846914691
 6  0.45494663186319 -0.67701121402140 -0.68062344284428
 8  0.17646888698870 -1.02541794939494 -1.77261359305931
 8  1.64465627612761 -0.47071446784678 -0.21789857875788
 7 -7.19978042594259  2.71465705550555  0.40735943144314
 6 -5.99277855685569  3.37681865766577  0.80033356695670
 6 -6.39321657475748  4.74680897029703  0.89909059625963
 6 -7.73360606760676  4.76319695119512  0.40741913321332
 6 -8.15241951355136  3.48728792409241  0.05473802010201
 6 -5.49693765046505  6.00621308720872  1.25117987848785
 6 -8.56050384798480  6.01010204390439  0.22969995539554
 6 -8.59357324862486  7.18182430103010  0.90847709750975
 7 -9.09725199779978  0.64653751485149 -0.69830386408641
 6 -9.89503576327633  1.77276722982298 -0.72389871397140
 6 -11.24931402800280  1.41753009210921 -1.21151287078708
 6 -11.29800220412041  0.07907327142714 -1.37077579157916
 6 -9.96370205090509 -0.43092506680668 -0.99180419651965
 6 -12.35525434913491  2.42238280928093 -1.47933470827083
 6 -12.34604915121512 -0.74572198229823 -1.91857266576658
 6 -12.13802129052905 -1.10812322352235 -3.34631975057506
 7 -7.24827429572957 -1.32704231783178 -0.18331300830083
 6 -8.28791903170317 -2.21877704980498 -0.61038599379938
 6 -7.82077822342234 -3.65045331283128 -0.43591086838684
 6 -6.53264714881488 -3.53892822982298 -0.13079481138114
 6 -6.19921251765177 -2.12489077037704  0.07700050425043
 6 -8.67321478887889 -4.80343318571857 -0.86658513691369
 6 -5.37531200150015 -4.37062094559456  0.36315918851885
 8 -5.24509334723472 -5.58347283068307  0.52478950965096
 6 -4.18622220162016 -3.33018880868087  0.68192805810581
 6 -3.56351698259826 -3.72770799209921  2.01312168506851
 8 -3.69027062766277 -3.13104984118412  3.10450313141314
 8 -2.74748594229423 -4.80813553595360  1.78488706960696
 6 -2.15053564146415 -5.20361459055906  2.97634256975698
 6  2.71929444114411 -0.66802459705971 -1.16482768316832
 6  4.03199528852885 -0.55061323762376 -0.62076222522252
 6  5.04622810721072  0.17256352175218 -1.05434520722072
 6  5.13973239623962  1.00234288358836 -2.26920108540854
 6  6.40225455825583  0.27894974517452 -0.29549603480348
 6  7.72089962786279 -0.26028637553755 -1.03141009150915
 6  8.90644251685169 -0.01550668106811 -0.22403421622162
 6  10.29173979847985 -0.56570364206421 -0.93419438993899
 6  10.17403410361036 -1.89414035013501 -1.29002246724672
 6  11.45393827072707 -0.26165994679468 -0.00236936833683
 6  12.83207811551155 -0.54331838293829 -0.72327235013501
 6  14.01026049444944  0.12709150635063  0.05839290679068
 6  15.42648877377738  0.03160943184318 -0.59603784358436
 6  15.75072674157416 -1.51893952775278 -0.85043466116612
 6  16.52282638853885  0.53299765976598  0.39468397559756
 6  17.83162775217522  0.74780617901790 -0.26102191679168
 6  18.82410277977798  1.17266548354835  0.75606603960396
 6  20.30846951615161  1.28134846834683  0.27563232643264
 6  20.50776213001300  1.89068736593659 -1.05017601030103
 6  21.25726665746575  1.82248518481848  1.40228559195920
 1 -4.05376686118612  3.19808532993299  1.61239582648265
 1 -9.92289268196820  3.92443327832783 -0.57241263276328
 1 -10.33964725412541 -2.35052439323932 -1.39872652485249
 1 -2.62221867876788 -0.95039335323532  2.10584127532753
 1 -2.37166077127713  1.72168575117512  1.32822347274727
 1 -2.02636709420942  0.72535298819882  3.57462117561756
 1 -3.13129818981898  2.27279133663366  3.47755992139214
 1 -3.72505594829483  0.49996468046805  3.40806321912191
 1 -1.99645213011301 -1.46949691009101 -0.37562147134713
 1 -2.14905657815782 -0.06525927552755 -0.86306634623462
 1 -0.35281879927993  0.54100871477148  0.98030842994299
 1 -0.44885268726873 -1.06401091629163  1.38402235743574
 1 -5.80250902630263  6.79801844594459  0.67854356355636
 1 -5.51715870527053  6.29738310141014  2.55881217831783
 1 -4.61637559355936  5.75850701710171  0.72187536313631
 1 -9.28048010051005  5.96269241734173 -0.50600082828283
 1 -9.22821403730373  7.84940567946795  0.71717133893389
 1 -7.82140160596060  7.41186758625863  1.75458384388439
 1 -11.79119322442244  2.96557688368837 -2.35147815251525
 1 -13.22858252745274  1.81070496169617 -1.64462565406541
 1 -12.59098082918292  3.13433208790879 -0.65505674967497
 1 -12.58296307470747 -1.76529597469747 -1.43517847274727
 1 -13.39772849174917 -0.15201193799380 -1.96818234573457
 1 -12.81616796939694 -1.86844153035304 -3.81244112861286
 1 -12.30667423162316 -0.15985052265227 -4.26596009170917
 1 -11.15049132843284 -1.45109997709771 -3.50847946794679
 1 -8.64252385538554 -4.64708545144514 -1.92237550165016
 1 -8.28786815161516 -5.76104610881088 -0.32502211521152
 1 -9.86695658055806 -4.68980400170017 -0.54332615521552
 1 -3.44907560346035 -3.63749700040004 -0.09558482998300
 1 -1.43255142164216 -4.58126456615662  3.59811272657266
 1 -2.82235184378438 -5.57395901350135  3.71607444634463
 1 -1.39999811131113 -5.90072934613461  2.85300925382538
 1  2.61766107020702 -1.61621345724572 -1.70984494949495
 1  2.50461793939394 -0.01597731813181 -2.05190834303430
 1  4.13613451905190 -0.99182139733973  0.34765798179818
 1  4.07908687218722  1.50169888028803 -2.59560793049305
 1  5.73164857655766  1.98553881278128 -2.13237970617062
 1  5.56700400800080  0.48908001550155 -3.18926765776578
 1  6.40620268316832  1.43155715571557 -0.13486084328433
 1  6.38818293769377 -0.18147618501850  0.78170788748875
 1  7.54041142584258 -1.28991822702270 -1.35596692029203
 1  7.84686712261226  0.32631583968397 -1.99149207280728
 1  9.04261631323132  1.05981386638664  0.02702033423342
 1  8.62900138883889 -0.55639114531453  0.70615847954795
 1  10.28519607100710  0.00634317201720 -1.90401529102910
 1  9.28277326282628 -1.77550552705271 -2.08501442624262
 1  10.85241779747975 -2.03104988888889 -1.91616586048605
 1  10.11324421042104 -2.72075401740174 -0.34522396209621
 1  11.50317799869987  0.75354758495850  0.26425791329133
 1  11.28261131453145 -0.92012797409741  0.95594621622162
 1  13.11368468736874 -1.66976513771377 -0.65848351595159
 1  12.66670042254225  0.04632532353235 -1.59330269156916
 1  13.90168160486049  1.24982753875388  0.62733007600760
 1  13.93186593969397 -0.52334193889389  0.99115563206321
 1  15.32850613911391  0.45696518151815 -1.64022838083808
 1  15.60739818271827 -2.40708100020002  0.11382992909291
 1  15.13769682038204 -1.83415579117912 -1.58555597069707
 1  16.73914354375438 -1.59933545844584 -1.40015148464846
 1  15.93579878057806  1.58863669736974  0.53050959525953
 1  16.36945139233923 -0.09656883198320  1.29207196839684
 1  17.88885982468247 -0.21899844724472 -0.67774111451145
 1  17.63399046354636  1.57597491639164 -1.12082565836584
 1  18.52612340494050  2.02306646434643  1.23914191949195
 1  18.78682584288429  0.58298247924792  1.55725572587259
 1  20.67192210491049  0.16252240044004  0.01849891389139
 1  20.15584969156916  2.97796135803580 -1.05506910031003
 1  21.49607385948595  2.06291294409441 -1.54684604790479
 1  20.02705661006101  1.45517732853285 -1.92419938893889
 1  21.25539151435143  1.08338644774477  2.34494411161116
 1  22.16559826612661  1.98840006970697  1.02107707400740
 1  20.91634136403641  2.92103218651865  1.91738217871787
>>>>>>> 8e03b5b5abfc0030b3aa597dc0de36371bfbd096

