%nproc=4
%Mem=2GB
# td=(NStates=1) CAM-B3LYP/6-31G(d,p) 

TD

0 1
12 -7.17312788578858  0.55022377047705  0.08853654105411
 6 -4.80072469046905 -1.94787596599660  0.39726625932593
 6 -4.68924885378538  2.80280872817282  1.12565893079308
 6 -9.34517925342534  3.10741623712371 -0.29980283998400
 6 -9.55756607030703 -1.72657816881688 -0.89170559965997
 7 -5.02247567216722  0.37991780988099  0.66634705300530
 6 -4.29285899199920 -0.73955377737774  0.74236225942594
 6 -2.91343034843484 -0.47067649334934  1.12456281048105
 6 -2.89531296969697  1.00404307260726  1.60118084878488
 6 -4.31801879677968  1.45400614941494  1.02015904580458
 6 -2.79753483558356  1.25431771987199  3.05160656955696
 6 -1.87521098209821 -0.63481874327433  0.00472443074307
 6 -0.41286870947095 -0.59879422662266  0.49347347664766
 6  0.51420255745575 -0.74165767866787 -0.58346372687269
 8  0.14523576367637 -1.04777018461846 -1.66040237193719
 8  1.75298710921092 -0.43363075947595 -0.24051083998400
 7 -7.00421086898690  2.57710330013001  0.28872756825683
 6 -5.98388766776678  3.40571154695470  0.66638017161716
 6 -6.31131838493849  4.81339562896290  0.69681036823682
 6 -7.64069677667767  4.78259889138914  0.34679307060706
 6 -8.10091436303630  3.42851204650465  0.12636518281828
 6 -5.30620857755776  5.88410087598760  0.95926068656866
 6 -8.49204700230023  5.91922295599560  0.25112209760976
 6 -8.49780367166717  7.12418853745375  0.85576182598260
 7 -9.11712398499850  0.72907576867687 -0.45844987868787
 6 -9.81229748944894  1.88530848394839 -0.55827215131513
 6 -11.15730482708271  1.48268660776078 -1.03258497799780
 6 -11.18014041794179  0.12807817191719 -1.19876859085909
 6 -9.86273195389539 -0.31534350865087 -0.81792680878088
 6 -12.31784060776078  2.44711528252825 -1.31341811661166
 6 -12.37887243354336 -0.68490590069007 -1.70566137463746
 6 -12.32192968136814 -0.99041145234523 -3.13875899449945
 7 -7.28374784308431 -1.38075768936894 -0.14071874887489
 6 -8.30204044384439 -2.16919209130913 -0.41428638383838
 6 -7.90709685528553 -3.58651691919192 -0.39018629592959
 6 -6.55390927502750 -3.57492182918292 -0.02950468236824
 6 -6.22622521892189 -2.23148142944294  0.11429423362336
 6 -8.75405287268727 -4.80698354075408 -0.58097657605761
 6 -5.35144961526153 -4.38378226172617  0.21069394199420
 8 -5.12125096299630 -5.64852933633363  0.10674770547055
 6 -4.17139071847185 -3.27272306210621  0.60665053035304
 6 -3.54921555245525 -3.68851407270727  1.88172854575458
 8 -3.72649425002500 -3.11862859905991  2.97542022312231
 8 -2.72417361106111 -4.73885860826083  1.69064764566457
 6 -2.26094668256826 -5.27223145224522  2.98903383888389
 6  2.80755326702670 -0.73640143474347 -1.29704090449045
 6  4.04768685768577 -0.33642181848185 -0.61764191319132
 6  5.05888937333733  0.44083034843484 -1.06601637433743
 6  5.04938336133613  1.17605025432543 -2.49446361166117
 6  6.31154548734873  0.52772462266227 -0.30379686488649
 6  7.59160669856986 -0.15197554445445 -1.05166211671167
 6  8.86126799939994 -0.07919304970497 -0.30129194199420
 6  10.20973159765976 -0.49400647234723 -1.01446241674167
 6  10.10240694089409 -1.92090302640264 -1.51585505050505
 6  11.40088296519652 -0.23016679747975 -0.07676680808081
 6  12.70967587528753 -0.47649170027003 -0.77691771467147
 6  13.80330979937994 -0.04057526032603  0.16928399589959
 6  15.32886901180118 -0.30107383648365 -0.33580181998200
 6  15.66722839173917 -1.75098273207321 -0.55635525322532
 6  16.45580968686869  0.36639099909991  0.54818932613261
 6  17.79947453685368  0.52732413081308 -0.03492930753075
 6  18.75617598709871  1.40729894689469  0.87996842984298
 6  20.13833250245024  1.44647498099810  0.41425618881888
 6  20.38709006280628  2.05081337853785 -1.05698669136914
 6  21.05322625342534  2.05903884018402  1.34048941234123
 1 -3.89991147564756  3.20898642004200  1.66811139803980
 1 -10.13423381608161  3.80401123612361 -0.27049244074407
 1 -10.19624291369137 -2.39915925672567 -1.07883453565357
 1 -2.70134659155916 -1.15525383928393  1.90331102230223
 1 -2.02603620882088  1.51720530313031  1.01149179957996
 1 -1.89186364386439  0.71728218111811  3.40703441694169
 1 -2.56369142914291  2.36425048254825  3.39559172457246
 1 -3.67141058375838  0.92369705370537  3.66563897669767
 1 -1.90485297019702 -1.56830679107911 -0.54700861006101
 1 -2.03996566906691 -0.06148889848985 -0.76098613821382
 1 -0.24224774217422  0.28338295219522  1.08696909600960
 1 -0.53216101810181 -1.49347386258626  1.28562251745175
 1 -5.57720649604961  6.75380402450245  0.34913062226223
 1 -5.29593658305830  6.12680604370437  2.02220851795179
 1 -4.43872782878288  5.74737590399040  0.59708288388839
 1 -9.23069512201220  5.63122927102710 -0.34873510171017
 1 -9.14897611351135  7.92687342624262  0.76016563836384
 1 -7.88742820862086  7.43030943044305  1.61228961446145
 1 -12.18897300240024  3.09533985998600 -2.21316432113211
 1 -13.21565123432343  1.97377126832683 -1.56471766326633
 1 -12.61289302040204  2.89287794249425 -0.44295553955396
 1 -12.51178595699570 -1.51432087718772 -1.15146010091009
 1 -13.16655537443744 -0.11192792959296 -1.80573610111011
 1 -13.30059641224122 -1.63325801200120 -3.38349823432343
 1 -12.32734629882988 -0.07752228982898 -3.74197769346935
 1 -11.36843312261226 -1.37728259535954 -3.36945556555656
 1 -8.85465506850685 -4.82292303520352 -1.73790705480548
 1 -8.17737710251025 -5.61870187438744 -0.21697131013101
 1 -9.67107699259926 -4.49846486778678 -0.03085490809081
 1 -3.38529922582258 -3.77658090879088 -0.13669894139414
 1 -2.01213938043804 -4.53088952865286  3.89438235353535
 1 -3.22555216381638 -5.85526714431443  3.35189802870287
 1 -1.35510362186219 -5.83856312951295  2.81262521542154
 1  2.73654295839584 -1.92153398929893 -1.33082704770477
 1  2.67650512811281 -0.09091481188119 -2.21122427462746
 1  4.14562546814681 -0.81525374057406  0.35749896589659
 1  4.04789375287529  0.91488019841984 -3.06410478017802
 1  5.18441385308531  2.27374763366337 -2.52997946614662
 1  5.78347565516552  0.68358946644665 -3.26046477747775
 1  6.62807487038704  1.46713071307131 -0.11486884408441
 1  6.40093421282128 -0.16083412081208  0.70656037273727
 1  7.33639102380238 -1.12871210641064 -1.35687701130113
 1  7.82667510341034  0.35694890299030 -2.09380230383038
 1  9.02785483708371  0.96899478447845  0.20209784198420
 1  8.85847433613361 -0.63551905810581  0.58955681938194
 1  10.22720027142714  0.16811934963496 -1.70501539103910
 1  9.30364535003500 -2.00883886038604 -2.06158208300830
 1  10.90596315201520 -2.12252903680368 -2.03160740464046
 1  10.02809569556956 -2.51141308330833 -0.66114555425543
 1  11.47062474337434  0.80280251045105  0.26240772827283
 1  11.42321537493750 -0.70386634793479  0.94256487808781
 1  12.68852217111711 -1.59761792299230 -0.97473514111411
 1  12.72761651415141  0.11343203420342 -1.83008636993699
 1  13.58948038473847  1.08054061006101  0.42622996599660
 1  13.52090484358436 -0.64579418411841  1.12034855135514
 1  15.26872016051605  0.16778626362636 -1.40066442444244
 1  15.87207465036504 -2.13065335743574  0.48426697279728
 1  14.93746679737974 -2.44050642624263 -1.13375079017902
 1  16.63224285368537 -1.99361488638864 -1.01761323082308
 1  16.12200740144014  1.44668250195019  0.88187473177318
 1  16.60963541074107 -0.15846502160216  1.41264402560256
 1  18.33407434613461 -0.53606015341534 -0.10264360476048
 1  17.90453751825182  0.91561888078808 -1.07699127492749
 1  18.30910170277028  2.47943210091009  0.96341434673467
 1  18.79169632993299  0.97848202920292  1.93746374667467
 1  20.44340925362536  0.44859100730073  0.11445850985098
 1  19.99196330293029  3.18807236913691 -1.20749434283428
 1  21.56624087618762  2.23532018481848 -1.10744210751075
 1  20.08648255265527  1.35162697349735 -1.96983395239524
 1  20.93388936413641  1.76690479957996  2.57138675587559
 1  22.14316602290229  2.16745797549755  1.01261622792279
 1  20.62716244614462  3.09391947524752  1.38693913441344

