%nproc=4
%Mem=2GB
# td=(NStates=1) CAM-B3LYP/6-31G(d,p) 

TD

0 1
<<<<<<< HEAD
12 -7.18212878587859  0.55542429052905  0.21966965436544
 6 -4.83186780478048 -2.00198137653765  0.56697323002300
 6 -4.82603253215322  2.85770421772177  1.10210657555756
 6 -9.46187092259226  3.09198469396940 -0.27881074077408
 6 -9.54452476617662 -1.71999751075107 -0.83984041314131
 7 -5.13821724632463  0.40169998809881  0.75563598189819
 6 -4.31732143824382 -0.74133395539554  0.78906692989299
 6 -2.88946795219522 -0.44128355405541  1.20751110531053
 6 -2.96997043544354  1.09659232753275  1.60291102180218
 6 -4.32058905380538  1.46786753555356  1.18304533443344
 6 -2.82198728082808  1.31491377947795  3.14807621652165
 6 -1.92267572857286 -0.69941520292029  0.02527648594859
 6 -0.38432585518552 -0.49910425762576  0.43174730403040
 6  0.51609274647465 -0.69308282118212 -0.61049643014301
 8  0.27300854095410 -1.02240764836484 -1.83729006070607
 8  1.79759156965697 -0.40205760216022 -0.29879666856686
 7 -7.08558900680068  2.63011860166017  0.39731842734273
 6 -6.08655793479348  3.35283625942594  0.72041557515752
 6 -6.36914416751675  4.73311760116012  0.74775546274627
 6 -7.75183789078908  4.89774040554055  0.31044943624362
 6 -8.18514278587859  3.52378157345735  0.07536008230823
 6 -5.39666762346235  5.84780724662466  1.13079784028403
 6 -8.51157895549555  6.06369740344034  0.02734972037204
 6 -8.43814770607061  7.25430154875488  0.70997724752475
 7 -9.18627089968997  0.59190205130513 -0.46165019871987
 6 -9.91579783948395  1.72775272837284 -0.55752207630763
 6 -11.27401649824982  1.41689002810281 -1.07901962146215
 6 -11.32719512341234  0.06697206130613 -1.28631734573457
 6 -10.00245592629263 -0.43272524682468 -0.80665568166817
 6 -12.31157998169817  2.44084465546555 -1.30668744354435
 6 -12.42765731203120 -0.78061547164716 -1.79981078957896
 6 -12.18478596699670 -1.10457286848685 -3.33856897549755
 7 -7.21341080938094 -1.46420603420342 -0.15758043504350
 6 -8.25453569336934 -2.25758093019302 -0.52877783298330
 6 -7.81695784138414 -3.68152642014201 -0.49616689398940
 6 -6.46808069216922 -3.62585692269227 -0.02059379127913
 6 -6.16567916431643 -2.25878415971597  0.09344214841484
 6 -8.68326579397940 -4.84625746814682 -0.77942642104210
 6 -5.28185265556556 -4.34752863636364  0.25840871347135
 8 -5.02674151205121 -5.53609809320932  0.23876090679068
 6 -4.08196177557756 -3.30208599839984  0.56128599389939
 6 -3.50652128302830 -3.64814003530353  1.91085145804580
 8 -3.73756535713571 -3.09275601180118  2.98908158925893
 8 -2.69167036073607 -4.70561528392839  1.81335991689169
 6 -2.15241582948295 -5.17414164326433  3.05640057555756
 6  2.78623113481348 -0.59316711131113 -1.30962216261626
 6  4.07039912891289 -0.31080925722572 -0.54042419141914
 6  5.08411189558956  0.43535980138014 -1.00636040874087
 6  5.08577700070007  1.25729837913791 -2.25125929122912
 6  6.37713204600460  0.43690554075408 -0.25861234643464
 6  7.61887942584258 -0.03278362526253 -1.03838078857886
 6  8.88721059365937 -0.01207633803380 -0.22316412921292
 6  10.12986361086109 -0.46335340704070 -0.99777074757476
 6  10.02382908310831 -1.87290822692269 -1.50786425142514
 6  11.41923480038004 -0.19588336913691 -0.13619275067507
 6  12.70612552025202 -0.48614266536654 -0.74227425032503
 6  13.83359282768277 -0.02852405520552  0.12843991149115
 6  15.31200732563256 -0.26995072417242 -0.52480071987199
 6  15.61157282618262 -1.80394802860286 -0.66045566326633
 6  16.32467657355735  0.39380374037404  0.34588909610961
 6  17.79300388978898  0.50900229862986 -0.14952076667667
 6  18.77504787428743  1.21664988198820  0.86165659865987
 6  20.31415008420842  1.22094242774277  0.31328609180918
 6  20.37549890369037  2.15263356055606 -0.87430842354235
 6  21.28017894869487  1.75601853815382  1.45803116651665
 1 -4.20786227072707  3.53784930633063  1.35387997489749
 1 -10.23128352105211  4.14811564656466 -0.53235862736274
 1 -10.12458574797480 -2.61793113391339 -1.21985863806381
 1 -2.62054851175118 -0.96539485338534  2.17241793299330
 1 -2.12794639983998  1.72976655925593  1.19422007240724
 1 -1.73680813831383  1.04436488938894  3.52944665816582
 1 -3.19765482548255  2.23488754625463  3.42170433583358
 1 -3.43364680738074  0.52814749874988  3.51647406020602
 1 -2.07004948984898 -1.55335529592959 -0.50691460066007
 1 -1.90662233473347 -0.07660040964096 -0.92017205680568
 1 -0.27644116151615  0.44325893979398  0.79485988508851
 1 -0.12542034403440 -1.01486600180018  1.26610056525653
 1 -5.62785156055606  6.73252189628963  0.38441415061506
 1 -5.33534052345234  6.12550591369137  2.13709000610061
 1 -4.28504246024603  5.76387755415541  0.87357053265327
 1 -9.51506355885589  5.85357150525052 -0.46396662486249
 1 -9.01842305820582  8.31618235713571  0.61181080288029
 1 -7.78139760556056  7.15115151465147  1.56291467696770
 1 -11.97429153425342  3.22432275827583 -2.16542954765477
 1 -13.20041971117112  1.80690458165817 -1.64462565406541
 1 -12.71597332843284  3.10232888758876 -0.28267951195120
 1 -12.22680745914592 -1.76551599669967 -1.33814876977698
 1 -13.21382010091009 -0.14794153095310 -1.49807533503350
 1 -13.05279163176318 -1.64336902310231 -3.57749763426343
 1 -12.00220378457846 -0.06949148674867 -3.82474597029703
 1 -11.07324360366037 -1.52533740084008 -3.58177679767977
 1 -9.16151575457546 -4.71273201610161 -1.92233549764977
 1 -8.24109347414741 -5.71541154535454 -0.55945555855586
 1 -9.78689857475748 -4.78845386668667 -0.22445426802680
 1 -3.24629532543254 -3.40895414611461 -0.14788005950595
 1 -1.55999416591659 -4.44174061376138  3.58292120742074
 1 -3.03950355895590 -5.42908452605261  3.47802064096410
 1 -1.50963907540754 -5.97893716691669  2.74031798469847
 1  2.61128043214321 -1.54066590249025 -1.84190815581558
 1  2.83665114271427  0.21941622122212 -2.06981013321332
 1  4.23209411501150 -0.61766398159816  0.26829004500450
 1  4.25289425292529  1.19931864226423 -2.96368473817382
 1  5.38466387808781  2.41324158305831 -1.98203467166717
 1  5.89345665326533  0.65928703620362 -2.94108283928393
 1  6.62037410031003  1.52321632163216 -0.03286064326433
 1  6.28316243564356 -0.17245528292829  0.75113483018302
 1  7.28815620032003 -0.98912814801480 -1.48533985758576
 1  7.66370880678068  0.50883409150915 -2.05032795639564
 1  8.97915996759676  0.97549543454345  0.07842547474747
 1  8.72604109280928 -0.54191969816982  0.72106997069707
 1  10.38921647304730  0.23849638733873 -1.98721361086109
 1  9.35747073257326 -2.09919789628963 -2.10278620342034
 1  11.04432698839884 -2.20571735563556 -1.92744698859886
 1  9.59305219121912 -2.43994593659366 -0.55757519721972
 1  11.49686736763676  0.87941017121712  0.27476896439644
 1  11.29414246764676 -0.83835979727973  0.80617123872387
 1  12.80630394929493 -1.57816597779778 -0.94782244984498
 1  12.81115486798680  0.15471616261626 -1.61522488378838
 1  13.95849728642864  1.05342789878988  0.43427077007701
 1  13.81692444554456 -0.72604220892089  0.98554507100710
 1  15.32825611411141  0.19997948294829 -1.44967932593259
 1  15.69987743064306 -2.39317961006101  0.33700224632463
 1  14.82645569626963 -2.30027240284028 -1.26346376147615
 1  16.53121275067507 -2.01140666556656 -1.24392586208621
 1  15.79024422512251  1.44463229692969  0.55628217251725
 1  16.17501194839484 -0.02896207130713  1.30193295449545
 1  18.04974591329133 -0.55502204960496 -0.39751309170917
 1  17.89522658715872  0.87240455935594 -1.19817339313931
 1  18.53222401500150  2.27039119681968  1.05573357865787
 1  18.72330949124913  0.66194037503750  1.83340334063406
 1  20.61886679937994  0.33544969316932  0.05893295729573
 1  20.19836394299430  3.32570613251325 -0.67801139453945
 1  21.43805805790579  2.08697535033503 -1.44669603290329
 1  19.57776168056806  1.75156696749675 -1.48201517051705
 1  21.33009898509851  1.11841995109511  2.29126874407441
 1  22.25311701800180  1.94948617831783  1.21592655895589
 1  20.74986471637164  2.70978106140614  1.56558699919992
=======
12 -7.11678225122512  0.54822357045705  0.09465715311531
 6 -4.88380299829983 -1.90324150255025  0.38023455615562
 6 -4.79952988188819  2.81667011431143  1.07064342924292
 6 -9.39668440394039  3.02927842334233 -0.36876973667367
 6 -9.44797511121112 -1.80172568356836 -0.89371580068007
 7 -5.04931835643564  0.52502232033203  0.69761017931793
 6 -4.36211591769177 -0.57050687268727  0.62486050925092
 6 -2.86974597999800 -0.36359578527853  1.01273162736274
 6 -3.00155359375938  1.15941861016102  1.43427415811581
 6 -4.37793478837884  1.57124787358736  1.07044407430743
 6 -2.79605468756876  1.24374666276628  3.05115652455246
 6 -1.89313277427743 -0.47272253365337 -0.03980002170217
 6 -0.47335475807581 -0.48613296049605  0.57712184148415
 6  0.58018915611561 -0.57354086698670 -0.66482186268627
 8  0.27742898299830 -0.81971737933793 -1.90368670037004
 8  1.85114692519252 -0.34327172357236 -0.30502729162916
 7 -7.10264071197120  2.64870045984598  0.40465916141614
 6 -6.03847312631263  3.37887886368637  0.74775830943094
 6 -6.50052730583058  4.75738002740274  0.71248193539354
 6 -7.82927563456346  4.77454808630863  0.37881627292729
 6 -8.14329860146015  3.39704890019002  0.07775032133213
 6 -5.61244920162016  5.98523098899890  1.07628238873887
 6 -8.61157895549555  6.01573260696070  0.27577456285629
 6 -8.62481637293729  7.21232735133513  0.85437168696870
 7 -9.10988326092609  0.59937279837984 -0.47399143284328
 6 -9.90332659235924  1.74497445054505 -0.67345366946695
 6 -11.25327442404240  1.44293263236324 -1.02290400990099
 6 -11.22028443234323 -0.04470910681068 -1.14580329432943
 6 -9.92673835453545 -0.41651362566257 -0.74009902600260
 6 -12.41336015971597  2.43089366036604 -1.27916469126913
 6 -12.43175772207221 -0.82339975007501 -1.64645545404540
 6 -12.30286777517752 -1.14001641284128 -3.02220733933393
 7 -7.20116958525853 -1.37541715531553 -0.24292896989699
 6 -8.25964620442044 -2.27559273137314 -0.56148110331033
 6 -7.87075322092209 -3.63597186468647 -0.52621989928993
 6 -6.57313119721972 -3.53905824282428 -0.02322405430543
 6 -6.12990558695870 -2.13627190849085  0.04201700590059
 6 -8.62446991439144 -4.82410525292529 -0.69063754215422
 6 -5.31752622292229 -4.38606248974897  0.21975484808481
 8 -5.19211804970497 -5.59964444784478  0.33195022572257
 6 -4.23667724712471 -3.25029081888189  0.48386825212521
 6 -3.55537616851685 -3.63118834013401  1.77029740264026
 8 -3.62752435303530 -3.10183691989199  2.84134681578158
 8 -2.75917711141114 -4.73080780318032  1.68570715161516
 6 -2.19568015591559 -5.26407063616362  2.88295323082308
 6  2.80896340804080 -0.67065486008601 -1.30784198459846
 6  4.17799988898890 -0.42165034133413 -0.55893604260426
 6  5.19972345674567  0.31471773717372 -0.99474924762476
 6  5.27828625162516  1.14483713301330 -2.24396856215622
 6  6.44337867066707  0.39367121732173 -0.08665515071507
 6  7.70738827672767 -0.16022636953695 -0.94563151365136
 6  8.92810468306831  0.04453932353235 -0.06021783458346
 6  10.23375399989999 -0.50873794549455 -0.67622859335934
 6  10.06141284148415 -2.07685862196220 -0.99713317831783
 6  11.48559143604360 -0.13790757155716  0.12414328292829
 6  12.74927983568357 -0.46689074017402 -0.61340136303630
 6  13.98002747114711 -0.02452365516552  0.19477654515452
 6  15.28684480938094 -0.18291202030203 -0.39286752655266
 6  15.64716638553855 -1.64480211401140 -0.72220183788379
 6  16.35079918581858  0.46877123712371  0.53000750795080
 6  17.78317290669067  0.30792219061906 -0.15094090869087
 6  18.82146251575157  1.14653287028703  0.63356378937894
 6  20.20473914311431  1.16400673417342  0.12967773097310
 6  20.35562691649165  2.09538783598360 -1.12973396609661
 6  21.07886881768177  1.83240617691769  1.21133649704970
 1 -4.00917240174017  3.51371689308931  1.36673126002600
 1 -10.05453584628463  3.76404723972397 -0.79859525102510
 1 -10.42415570497050 -2.35641498229823 -1.27947459965997
 1 -2.68552500940094 -0.95372368626863  2.06269696089609
 1 -2.21325493069307  1.94148773137314  0.93830448084809
 1 -1.85706016351635  0.93539399229923  3.18921263476348
 1 -3.19254431443144  2.24004806230623  3.36043820922092
 1 -3.40203364606461  0.40021470547055  3.64187660046005
 1 -2.19394187908791 -1.38640860126013 -0.60734464366437
 1 -1.98608028052805  0.23809105950595 -0.83141318091809
 1 -0.12295581298130  0.36396101000100  0.95974637373737
 1 -0.60273807580758 -1.26124063926393  1.43308726392639
 1 -5.99316809220922  6.89020766486649  0.73945965516552
 1 -5.50311730113011  5.72704606770677  2.27951424852485
 1 -4.67618157415742  5.97572873927393  0.74393756935694
 1 -9.55037709020902  5.56826297439744 -0.33001322952295
 1 -9.20754197009701  8.09259999889989  0.63325294709471
 1 -7.87128659445945  7.54225062456246  1.50899928542854
 1 -12.11803590869087  2.88443876987699 -2.28983198789879
 1 -13.30098976817682  1.76275016621662 -1.33379457095710
 1 -12.33296502760276  3.00863951865186 -0.31868311231123
 1 -12.64743952235224 -1.75921536663666 -0.93774872977298
 1 -13.31754047294729 -0.27522425922592 -1.45012053955396
 1 -13.02654900750075 -1.90102478867887 -3.26140602510251
 1 -12.03117668186819 -0.26686122372237 -3.68502199789979
 1 -11.28430470977098 -1.59914478157816 -3.30363898389839
 1 -8.95347495049505 -5.01386212911291 -1.70997426152615
 1 -7.99495886068607 -5.75112511671167 -0.39901951495149
 1 -9.62953283818382 -4.89495451675168 -0.07085890849085
 1 -3.31320201610161 -3.22047529822982 -0.21295656715672
 1 -1.83441160766077 -4.41466790649065  3.42234514981498
 1 -3.01516112471247 -5.67159877747775  3.45321816071607
 1 -1.38283639513951 -5.95677495069507  2.26330028292829
 1  2.96251555565557 -1.69472130803080 -1.33584754975498
 1  2.65634311191119 -0.02554827522752 -2.04089724192419
 1  4.10517142274227 -0.96319853505350  0.45922913891389
 1  4.35688465196520  1.25725443584358 -2.86359472917292
 1  5.63635904760476  2.16965722462246 -2.07464393259326
 1  5.98334564216422  0.64404551205120 -3.01825055605560
 1  6.48034009690969  1.48791279127913  0.25762840564056
 1  6.41433555295530 -0.22248028542854  0.97628734543454
 1  7.61956934163416 -1.25861509670967 -1.21311263486349
 1  7.84117655355536  0.53311651975198 -1.95364828842884
 1  8.87055910751075  1.13656154115412  0.15322295449545
 1  8.79593808250825 -0.41452695889589  0.95445330903090
 1  10.25553310471047  0.13625616331633 -1.73119800930093
 1  9.26378136363636 -2.26881485798580 -1.92000792559256
 1  10.99963251895189 -2.33042982688269 -1.48495273917392
 1  9.94540742674267 -2.56967890989099  0.11254181448145
 1  11.44000168106811  0.98977120732073  0.24405589308931
 1  11.48121117451745 -0.53418938023802  1.06658728032803
 1  12.44524784368437 -1.56019418061806 -0.96462413001300
 1  12.91852560506051 -0.03808311731173 -1.70690405170517
 1  13.73237467416742  0.93558611461146  0.41574891789179
 1  13.84305705880588 -0.52033163786379  1.23536005250525
 1  15.29717300580058  0.40026951195120 -1.25782014001400
 1  15.47883532643264 -2.32072236433643  0.15681422752275
 1  14.78152120282028 -2.03076545214522 -1.53850126522652
 1  16.60729035843584 -1.70644616951695 -1.07487895739574
 1  16.28962416311631  1.54519235293529  0.66945348964896
 1  16.41040548774878 -0.00838001310131  1.38473123432343
 1  18.01422236093609 -0.68134468186819 -0.36346968736874
 1  17.68491555605561  0.77372469136914 -1.27646122192219
 1  18.53437423002300  2.12232639033903  0.70354836013601
 1  18.82147930823082  0.67374155515552  1.47272727302730
 1  20.49604451715172  0.16938308650865 -0.12302523852385
 1  20.32243635023502  3.09191275317532 -0.77199079247925
 1  21.37109136123613  1.84804145694569 -1.63479484278428
 1  19.65483938833884  1.90964277507751 -1.82476944594460
 1  21.26624259945995  1.22616072517252  2.23817343454345
 1  22.04041574787479  1.76694792449245  0.75594056035604
 1  20.73613334323433  2.90475055835584  1.40661110161016
>>>>>>> 8e03b5b5abfc0030b3aa597dc0de36371bfbd096

