%nproc=4
%Mem=2GB
# td=(NStates=1) CAM-B3LYP/6-31G(d,p) 

TD

0 1
12 -7.12336290929093  0.55226397449745  0.13569125652565
 6 -4.92150676867687 -1.90415159355936  0.47259379207921
 6 -4.75275520442044  2.95685413271327  1.09978634353435
 6 -9.39998473397340  3.09662515801580 -0.43286614631463
 6 -9.51004131783178 -1.65601111211121 -0.90032646174617
 7 -5.15018844344434  0.48562838093809  0.76569698799880
 6 -4.34508421452145 -0.68514833683368  0.80888891209121
 6 -2.90379938533853 -0.41594101980198  1.25607596179618
 6 -3.07774121252125  1.10432310061006  1.80070080078008
 6 -4.39207620252025  1.56318706750675  1.18369539943994
 6 -2.96615169726973  1.23532582068207  3.20783219211921
 6 -1.89678313931393 -0.59381464286429  0.08951290959096
 6 -0.44875229782978 -0.52098644584458  0.53136726602660
 6  0.53194433163316 -0.70450396329633 -0.62811819231923
 8  0.20313155325533 -1.06990239783978 -1.74622095379538
 8  1.83201501200120 -0.37045444184418 -0.22355914481448
 7 -7.15529597749775  2.64219980978098  0.39112780828083
 6 -6.09140841984198  3.37825880168017  0.79669320292029
 6 -6.40337759085909  4.73494778417842  0.71646233343334
 6 -7.77250995799580  4.85205583708371  0.39690808210821
 6 -8.15149942154216  3.51072026732673  0.08881142744274
 6 -5.49744770147015  6.04273673957396  1.06147090759076
 6 -8.62888068566857  5.92528356205621  0.19356634203420
 6 -8.51410530183018  7.19841596019602  0.81905815561556
 7 -9.07936020862086  0.67560042114211 -0.56661069476948
 6 -9.81769802950295  1.80698065116512 -0.59385570967097
 6 -11.11236033263326  1.53015135423542 -1.20298201770177
 6 -11.24614701860186  0.11950731483148 -1.29393810781078
 6 -9.90504618531853 -0.35836781108111 -0.93882889898990
 6 -12.35196402010201  2.38864943594359 -1.41302807760776
 6 -12.31893643994399 -0.74381179127913 -1.83408421692169
 6 -12.06640412881288 -1.18253066426643 -3.27422254085409
 7 -7.21850131843184 -1.44055366896690 -0.09392406940694
 6 -8.25898613841384 -2.22836800890089 -0.45184013921392
 6 -7.85935208080808 -3.59381764926493 -0.63378065536554
 6 -6.56541042514251 -3.59610394739474 -0.06463819571957
 6 -6.15971856825683 -2.17858613991399  0.15733853805381
 6 -8.62263973137314 -4.89907274967497 -0.87294577297730
 6 -5.35395986628663 -4.41546543004300  0.24965783838384
 8 -5.27040587848785 -5.57163164656466  0.34712174287429
 6 -4.16404998439844 -3.28989477927793  0.49655952125213
 6 -3.59529015991599 -3.59924514581458  1.92721309420942
 8 -3.79636123672367 -3.01721845804580  2.93758643974397
 8 -2.77484867856786 -4.69829455185519  1.81668024892489
 6 -2.23980456835684 -5.16704093319332  3.05135007050705
 6  2.86060857255726 -0.77064485908591 -1.22936413681368
 6  4.16799888888889 -0.56168434473447 -0.52062221122112
 6  5.07427091149115  0.18771503690369 -0.95275504820482
 6  4.98313673667367  1.22453510281028 -2.12658682398240
 6  6.41871620442044  0.33990584078408 -0.22110859605961
 6  7.54965250315032 -0.18541888878888 -1.08730568106811
 6  8.88159003160316 -0.15225035543554 -0.24245605840584
 6  10.21118174267427 -0.57526459815982 -0.97250822132213
 6  10.15139183938394 -2.01839277537754 -1.33740720572057
 6  11.49336221312131 -0.23789757055706 -0.09932906430643
 6  12.82025693339334 -0.38144219531953 -0.80976099899990
 6  13.95482495089509 -0.14810601340134  0.17918498599860
 6  15.31262738763876 -0.13626735583558 -0.46001424122412
 6  15.65871754065406 -1.63515114891489 -1.05854547224722
 6  16.44498860476047  0.26425078507851  0.43558806600660
 6  17.88138272767277  0.49859125752575 -0.10535635023502
 6  18.89371974147415  1.24632284928493  0.84755518851885
 6  20.32563123232323  1.38851918541854  0.23875863906391
 6  20.29349070287029  2.29842814001400 -1.01205219791979
 6  21.32276320712071  1.93428636493649  1.31551691509151
 1 -4.06922840734073  3.63453897529753  1.51757634453445
 1 -10.19131952465247  3.91806264126413 -0.71649704120412
 1 -10.30956424582458 -2.52935227602760 -1.26589324152415
 1 -2.65968242514251 -1.01224953885389  2.14107479867987
 1 -2.32749635483548  1.68354193679368  1.40686133653365
 1 -1.95533999149915  0.90305075797580  3.61729544304430
 1 -3.17585264526453  2.22116617411741  3.53807597299730
 1 -3.48114155685568  0.23103778777878  3.81196360916092
 1 -2.03367585248525 -1.64817477787779 -0.38937284648465
 1 -1.86827850035003  0.16690394079408 -0.61555159475948
 1 -0.53031654905491  0.63521813571357  0.97768816791679
 1 -0.09953775577558 -1.18138265346535  1.29176313151315
 1 -5.89521829722972  7.01474011811181  0.62593830303030
 1 -5.52900989038904  6.02156551965196  2.14706100320032
 1 -4.52362631863186  5.76884805120512  0.50906408200820
 1 -9.33933598609861  5.74799094719472 -0.58437866606661
 1 -9.28816003190319  7.94854559345935  0.73309293109311
 1 -7.96095556135614  7.38523492299230  1.72023040854085
 1 -12.17135124022402  3.04089441544154 -2.32772577727773
 1 -13.21171084028403  1.69788367956796 -1.78494968646865
 1 -12.49836156725673  3.26523517821782 -0.73654489848985
 1 -12.29062384078408 -1.69232867796780 -1.14051900680068
 1 -13.24937365626563 -0.27582431923192 -1.82530805830583
 1 -12.89676602920292 -1.78364305050505 -3.58942882738274
 1 -12.08627219141914 -0.40560509810981 -3.92125562126213
 1 -11.17513379267927 -1.83222808990899 -3.38931755175518
 1 -9.05435503850385 -4.81363210611061 -1.90391365546555
 1 -8.02832219701970 -5.82791279547955 -0.87194680768077
 1 -9.40913079797980 -5.13633865516552 -0.18022984558456
 1 -3.24526522242224 -3.43432668336834 -0.35315058655866
 1 -1.43751191769177 -4.53367980768077  3.35466838213821
 1 -3.01587119571957 -5.38345996359636  3.91283412231223
 1 -1.81068918041804 -6.13274254745475  2.64680863376338
 1  2.68699800390039 -1.85492732863286 -1.53479744474447
 1  2.56389386698670 -0.12904862526253 -2.11668482068207
 1  4.40677158275828 -1.41436365156516  0.30797401340134
 1  3.92681164466447  1.45129383978398 -2.47520589028903
 1  5.34538995069507  2.13873413231323 -1.94836130433043
 1  5.46886419401940  0.64372548004801 -2.86101483248325
 1  6.57549961286129  1.44262826282628  0.19975261806181
 1  6.29566368576858 -0.08147618501850  0.80312002870287
 1  7.34054143884388 -1.29611884708471 -1.38641996559656
 1  7.58194062996300  0.28933214131413 -1.93911683528353
 1  9.15652770437044  0.90762864786479 -0.03931629942994
 1  8.69736822552255 -0.61496700290029  0.72780064376438
 1  10.12760031143114 -0.06245370767077 -1.90835572507251
 1  9.30078506400640 -2.17806578307831 -2.02621854665467
 1  10.96506906260626 -2.25061184508451 -2.00974521842184
 1  9.96031891789179 -2.60842278427843 -0.48831827152715
 1  11.35007268816882  0.72906513671367  0.21445293279328
 1  11.26361941534154 -0.72069803110311  0.92354297589759
 1  12.90506382528253 -1.36533469466947 -1.32723039063906
 1  12.88827257975798  0.26419711071107 -1.79686304760476
 1  13.79338077477748  0.96916947294730  0.70488783178318
 1  13.92336508960896 -0.73218282298230  1.01005752225223
 1  15.23998728722872  0.48023750875087 -1.29149350735074
 1  15.70979842274227 -2.22200249234923 -0.24042549644964
 1  14.71544459515952 -1.91148352395240 -1.67984539963996
 1  16.70066969636964 -1.60043556845685 -1.53305477497750
 1  16.30536573727373  1.37738557225723  0.95974251855185
 1  16.54023847104710 -0.42364153925392  1.35663842504250
 1  18.50331126982698 -0.58108465586559 -0.42524586498650
 1  17.73667073157316  1.12129944884488 -1.11901547734773
 1  18.35774656725673  2.14638879657966  1.28359636493649
 1  19.21789895019502  0.58189237023702  1.82277227752775
 1  20.46115102780278  0.31680782898290 -0.01769470547055
 1  19.98803290989099  3.33319688158816 -0.73201679507951
 1  21.35018927102711  2.56721337413741 -1.37911927522752
 1  19.76559046344635  2.05111692249225 -1.88693566256626
 1  21.15662163736374  1.45799390849085  2.15879549674968
 1  22.27274898119812  2.00855208490849  0.92757772407241
 1  20.92227195709571  2.94803488678868  1.87690813131313

