%nproc=4
%Mem=3GB
# td=(NStates=1) iop(3/107=0140000000,3/108=0140000000) CAM-B3LYP/6-31G(d,p) 

TD

0 1
12 -7.11278597029703  0.60471885538554  0.11865823582358
 6 -4.87649646614662 -1.97660489108911  0.50041544394439
 6 -4.81575760636064  2.86302502040204  1.28750885608561
 6 -9.41386815131513  3.06614416741674 -0.40382285758576
 6 -9.59703580158016 -1.68142990869087 -0.73499030393039
 7 -5.19717674887489  0.41710780138014  0.91558938293829
 6 -4.38437068436844 -0.70017116031603  0.77223511821182
 6 -2.98505472607261 -0.36041443944394  1.25502117121712
 6 -3.13649687658766  1.04800350195019  1.81506778607861
 6 -4.44137437213721  1.50328497959796  1.32194658855886
 6 -3.02312849364937  1.04101692099210  3.31460677527753
 6 -1.94446017571757 -0.56016200540054  0.00150396069607
 6 -0.49916562576258 -0.47537078507851  0.50469385168517
 6  0.47009893309331 -0.57806442834283 -0.68610840094009
 8  0.19300951775178 -0.78264204190419 -1.80399779287929
 8  1.75971456985699 -0.21746168456846 -0.24013940154015
 7 -7.10037768116812  2.60049325922592  0.33761468556856
 6 -6.09284942874287  3.39817358475848  0.83884976107611
 6 -6.41065597399740  4.77263412701270  0.86206446514651
 6 -7.64979976527653  4.85151695689569  0.34835096149615
 6 -8.17207673517352  3.44713165196520  0.05288328692869
 6 -5.53286532043204  5.90891036473647  1.18263841904190
 6 -8.46157616561656  5.96829709930993  0.01221183368337
 6 -8.40804921492149  7.10633978367837  0.72795685498550
 7 -9.11611065216522  0.72080907530753 -0.57308388228823
 6 -9.79374686098610  1.76265959025903 -0.75737855135514
 6 -11.15293924662466  1.53824326882688 -1.29719457915792
 6 -11.22923241044104  0.17323486928693 -1.31128115641564
 6 -9.93512111571157 -0.30247044044404 -0.84660686198620
 6 -12.30978191589159  2.51497673907391 -1.57300675337534
 6 -12.42925671857186 -0.61766789058906 -1.76503583418342
 6 -12.28926083498350 -1.12994318661866 -3.23746439763976
 7 -7.25872883528353 -1.44181901760176 -0.02929560466047
 6 -8.33550787708771 -2.15516406190619 -0.40060164006401
 6 -7.86481852165216 -3.57921847324732 -0.40626092589259
 6 -6.52146993749375 -3.58982196429643 -0.07828991069107
 6 -6.17008073977398 -2.22530048584858  0.11046288168817
 6 -8.82282462196220 -4.75103120152015 -0.67592097519752
 6 -5.29971543444344 -4.39305286868687  0.20552552665267
 8 -4.98058905120512 -5.58026488348835  0.12646859545955
 6 -4.09570407300730 -3.31947939533953  0.55880420202020
 6 -3.47584176097610 -3.74942288498850  1.88261422992299
 8 -3.76986977037704 -3.12374973287329  2.91913527172717
 8 -2.73921927472747 -4.81538015651565  1.72767180468047
 6 -2.28573753075308 -5.48542374827483  2.96081348174817
 6  2.77849416981698 -0.52213050195019 -1.22664618181818
 6  4.14888577377738 -0.34193946184618 -0.62195475827583
 6  5.13376886818682  0.43194972297230 -1.05906878387839
 6  5.22476620222022  1.19608728402840 -2.34941907690769
 6  6.46250252895290  0.36210682668267 -0.29482000640064
 6  7.55779723232323 -0.41234978297830 -1.00690101880188
 6  8.89209692129213 -0.18907072317232 -0.28457455985599
 6  10.22122758335834 -0.71203286648665 -0.88069378937894
 6  10.20204348094810 -2.10210809070907 -1.22677964396440
 6  11.35302996679668 -0.28290318141814 -0.01652961546155
 6  12.75310304580458 -0.56133616711671 -0.70090759585959
 6  13.90881215301530 -0.01904761906191  0.13233964556456
 6  15.34423041404140 -0.15347443104310 -0.53455910841084
 6  15.86666293729373 -1.62079046734673 -0.81767359365937
 6  16.46923391609161  0.43372989028903  0.41339607430743
 6  17.87460504820482  0.62001573117312 -0.17770429742974
 6  18.78472889148915  1.33980205870587  0.71466472317232
 6  20.28270107450745  1.32848228072807  0.27841454745475
 6  20.43195604140414  2.19154645974597 -1.03451814771477
 6  21.24493956095609  1.79389108900890  1.39516345634563
 1 -4.13983434693469  3.56770002140214  1.90494659045905
 1 -10.12863498679868  3.95860813531353 -0.61794632083208
 1 -10.34149857395740 -2.67167270237024 -1.00016783618362
 1 -2.89650693789379 -0.99449965266527  2.12038852955296
 1 -2.36247971427143  1.69998205930593  1.42061571057106
 1 -2.13996708310831  0.82714182058206  3.81076141354135
 1 -3.26981409050905  2.07927715051505  3.80616863906391
 1 -3.61587438793879  0.39162431673167  3.81907359255926
 1 -2.23570868986899 -1.67337800860086 -0.56323433053305
 1 -2.04318068706871  0.29840746054605 -0.67784451905191
 1 -0.25449087778778  0.37273686098610  1.01258512151215
 1 -0.05728414871487 -1.28880964756476  1.24628808710871
 1 -5.58637281498150  6.72841035303530  0.34014384568457
 1 -5.72481395269527  6.51769465086509  2.02394440694069
 1 -4.45370021462146  5.71787605560556  1.19516024862486
 1 -9.24337459725973  6.02046542854285 -0.88705005770577
 1 -8.81564062776278  8.00316003700370  0.32075185088509
 1 -7.65232316441644  7.24986182258226  1.63641260156016
 1 -11.89051952495250  3.43302244934493 -2.04201003250325
 1 -13.12706000370037  1.97022576497650 -2.48393412161216
 1 -12.71012204490449  2.86976431053105 -0.43719415891589
 1 -12.59035100000000 -1.52322324512451 -1.10045354625463
 1 -13.24937723682368 -0.00218292879288 -1.78965471987199
 1 -13.19925512471247 -1.84690835293529 -3.59383034113411
 1 -12.24387479317932 -0.29615808710871 -3.87518649704970
 1 -11.34352919231923 -1.74042506970697 -3.58557683588359
 1 -9.15753037163716 -4.75100160096009 -1.74301036403640
 1 -8.10518490369037 -5.48979493279328 -0.67598755385539
 1 -9.61902608160816 -5.07889633803380  0.07338506980698
 1 -3.23869138763876 -3.63590019561956 -0.23989172727273
 1 -1.36000938853885 -4.81514372777278  3.44310602820282
 1 -3.27595403270327 -5.57597712261226  3.52435347304730
 1 -1.94044456495650 -6.39719050385039  2.80629399049905
 1  2.65487354215422 -1.52975959875988 -1.74725617431743
 1  2.86801324262426  0.11231931673167 -2.21214227172717
 1  4.21286177287729 -0.98711712551255  0.32672407260726
 1  4.50212552405241  1.39493503620362 -2.82158264396440
 1  5.70831776397640  2.14022444634463 -2.08763620202020
 1  5.80065963446345  0.48587977887789 -2.88489474637464
 1  6.90305848974898  1.36154613521352 -0.09010939703970
 1  6.17618549064906 -0.19962729942994  0.63144934043404
 1  7.25353747654765 -1.42572324532453 -1.15670042724272
 1  7.72989554805481  0.15903500650065 -2.04603542644264
 1  9.03413945824582  0.84097359485949 -0.31865943784378
 1  8.75771889268927 -0.67286563926393  0.77399352275228
 1  10.27118174997500 -0.01688554075408 -1.76919207720772
 1  9.16021563066307 -2.64960324382438 -1.63644202610261
 1  11.07209635023503 -2.29371277057706 -2.03846920502050
 1  10.31053325042504 -2.86990110481048 -0.30216761046105
 1  11.38217985958596  0.78114454785479  0.37355512631263
 1  11.27580517601760 -0.88771006860686  0.99746606670667
 1  13.00623857635764 -1.56208362766277 -0.91532380388039
 1  12.64007983788379 -0.16888195219522 -1.79912424612461
 1  13.77136855715572  0.93883924722472  0.48166299499950
 1  14.01954026462646 -0.59748612751275  1.04633700770077
 1  15.47116751815182  0.39202259925993 -1.46334760356036
 1  16.04540833763376 -2.26293563476348  0.27343920842084
 1  15.07773941834183 -2.13198771877188 -1.49592096559656
 1  16.93636191579158 -1.55734663166317 -1.32229874317432
 1  16.12590586408641  1.47657599129913  0.99295521182118
 1  16.71668574637464 -0.10036632143214  1.40268876357636
 1  18.12930966866687 -0.35701221522152 -0.22505270087009
 1  17.83427073667367  1.12992188628863 -1.06731247484748
 1  18.49441849874987  2.40721198919892  0.57342928972897
 1  18.74042000450045  0.74965980548055  1.73142638813881
 1  20.63718355065507  0.32941393899390  0.07799369156916
 1  20.11316813531353  3.21525230173017 -0.84239642434243
 1  21.25664946574657  1.98599974207421 -1.58495647684768
 1  19.81559995759576  1.77851814201420 -1.79004738913891
 1  21.19289314281428  1.01897753865387  2.29021269006901
 1  22.11864975777578  1.95180565126513  0.83522017561756
 1  20.84772485098510  2.83602972017202  1.76930406710671

