%nproc=4
%Mem=2GB
# td=(NStates=1) CAM-B3LYP/6-31G(d,p) 

TD

0 1
<<<<<<< HEAD
12 -7.08034860786079  0.60954970307031  0.20617830523052
 6 -4.83946856485649 -1.91711288968897  0.33901043374337
 6 -4.68720864976498  2.86714516181618  1.28838520342034
 6 -9.41172590809081  3.03723921942194 -0.30235309500950
 6 -9.60457077077708 -1.80631614261426 -0.81194762386239
 7 -5.08943236783678  0.33556337443744  0.82219263756376
 6 -4.30417012311231 -0.69282910491049  0.69708773197320
 6 -2.90144915031503 -0.33489291499150  1.23127348154815
 6 -2.95389882828283  1.12657532583258  1.61577230793079
 6 -4.46642363726373  1.52587333613361  1.21867889778978
 6 -2.76071115321532  1.36521880998100  3.13796520542054
 6 -1.92491595259526 -0.67883314471447  0.00837479577958
 6 -0.52542996559656 -0.27620196739674  0.51794592389239
 6  0.53350448764876 -0.70130364326433 -0.52547792829283
 8  0.30660190029003 -1.12016742434243 -1.62959929162916
 8  1.81035284578458 -0.43055045144514 -0.19335612451245
 7 -7.00493094099410  2.54688027782778  0.44787348284829
 6 -6.05792507150715  3.34288526432643  0.83177671127113
 6 -6.34343159625963  4.74891918131813  0.80644133133313
 6 -7.63428613561356  4.79574020552055  0.28027641894189
 6 -8.08599287088709  3.39146834213421  0.07276982328233
 6 -5.53636159285929  5.93131559745975  1.08237299779978
 6 -8.55381317891789  5.96595762946295  0.05949293469347
 6 -8.44082797409741  7.12648876747675  0.67046329612961
 7 -9.17199947254725  0.63908676977698 -0.53732776647665
 6 -9.87472373207321  1.82048200130013 -0.61934825892589
 6 -11.24490358695870  1.50114845394539 -1.06470819031903
 6 -11.27366977087709  0.11469683378338 -1.28022673667367
 6 -10.00856653735373 -0.33793576787679 -0.84383940004000
 6 -12.32677150085008  2.45366593759376 -1.23253002780278
 6 -12.42306685298530 -0.79341675177518 -1.60209101760176
 6 -12.43019050745075 -1.03449586078608 -3.12127724632463
 7 -7.23503297159716 -1.43174278787879 -0.19203388038804
 6 -8.33180342014201 -2.26956212831283 -0.55430038523852
 6 -7.82960910651065 -3.57695596309631 -0.60143742104210
 6 -6.45184906900690 -3.47055139213921 -0.16463819571957
 6 -6.19613220962096 -2.13955223652365 -0.04926212201220
 6 -8.59124659205921 -4.87735057745775 -0.88594707310731
 6 -5.33900837113711 -4.30208409190919  0.20130300290029
 8 -5.15406424432443 -5.50646512991299  0.30170720142014
 6 -4.17191077047705 -3.29101489128913  0.49812967826783
 6 -3.59415004590459 -3.62126734803480  1.97151752465247
 8 -3.87592919351935 -3.07410414661466  3.04612729382938
 8 -2.67556875057506 -4.63837856025603  1.83221180208021
 6 -2.17756834473447 -5.16540076917692  3.04280921642164
 6  2.77415992769277 -0.69292708730873 -1.28042924332433
 6  4.24751684068407 -0.66319449574957 -0.73440358935894
 6  5.08300178457846  0.23685995139514 -1.12280205290529
 6  4.99010743374337  1.20632328162816 -2.37643180848085
 6  6.44344867766777  0.30848269846985 -0.36361284648465
 6  7.63295083298330 -0.27653800070007 -1.10130708120812
 6  8.88393026562656 -0.01971710211021 -0.20723253605361
 6  10.12516314081408 -0.64297136883688 -1.02209317981798
 6  10.02380908110811 -2.02560349644964 -1.62069553455346
 6  11.44984786168617 -0.30664444524452 -0.22297142854285
 6  12.83329823752375 -0.50898494959496 -0.88994901780178
 6  13.89268873727373 -0.12295349814982  0.02380944844484
 6  15.43278940384038 -0.27438116721672 -0.51608984878488
 6  15.82121379027903 -1.69771740554055 -0.79357897559756
 6  16.51458556445645  0.37792215221522  0.49698420562056
 6  17.85325991539154  0.52110350875088 -0.04588040264026
 6  18.71149151865187  1.24178239523952  0.91436186918692
 6  20.17948661786178  1.49092942644264  0.49951471467147
 6  20.36355770957096  2.21209950715072 -0.87294828752875
 6  21.01208213901390  2.08446138243824  1.52102746614661
 1 -4.00085156965697  3.68140366176618  1.35181976887689
 1 -10.02502289498950  3.88008884388439 -0.52122751425142
 1 -10.39096238563856 -2.78039738053805 -1.25625227742774
 1 -2.56443290019002 -0.93829214311431  2.13610430163016
 1 -2.19672327752775  1.50930451305131  0.88123877427743
 1 -1.69039349684969  1.15645609850985  3.38456216971697
 1 -2.74198925892589  2.30735479297930  3.46002816821682
 1 -3.46771021372137  0.82410709470947  3.61777419021902
 1 -2.05223770867087 -1.65791575197520 -0.27701161036104
 1 -2.10798247074707 -0.20003275287529 -0.85968600820082
 1 -0.38761227862786  0.75217983188319  0.81895229432943
 1 -0.56805460746075 -0.82848736393639  1.48965292049205
 1 -5.86609538493849  6.94366301040104  0.54741045024503
 1 -5.54998198759876  6.25076843994399  2.14639093619362
 1 -4.54227818381838  5.86871803820382  0.75337851345135
 1 -9.12672472497250  6.05545169326933 -0.90367059525953
 1 -9.32839405530553  7.89190992989299  0.28708833063306
 1 -7.64522398819882  7.16611301080108  1.29966835233523
 1 -12.26465057015702  3.26448677467747 -2.04058706340634
 1 -13.49126879607961  1.84618851005100 -1.44120531203120
 1 -12.46985871697170  3.05486414111411 -0.35519676367637
 1 -12.32416719511951 -1.74717416251625 -1.08634358925893
 1 -13.43465218411841 -0.39692642944294 -1.16478200570057
 1 -13.50996734933493 -1.55558024422442 -3.36269615411541
 1 -12.59065262946295 -0.24025856345635 -3.82676617231723
 1 -11.48164444374438 -1.60596546364636 -3.55826444644465
 1 -9.16919652265227 -5.03242398529853 -1.90541380548055
 1 -8.02609197399740 -5.92314231843184 -0.97640725372537
 1 -9.40091997689769 -5.14926994829483 -0.16423824642464
 1 -3.26703739963996 -3.45095834653465 -0.32691796329633
 1 -1.40107827432743 -4.44862130183018  3.27764067936794
 1 -3.08185779437944 -5.32047366496650  3.77430026892689
 1 -1.61060917241724 -6.10513978717872  2.63097705060506
 1  2.66173547764776 -1.81413324922492 -1.48683264826483
 1  2.80774825242524 -0.08021374177418 -2.04332748494849
 1  4.49845075067507 -1.18242045724572  0.26749996599660
 1  4.13003196669667  1.28631734213421 -2.88313668336834
 1  5.14327973967397  2.24440469936994 -1.98442491069107
 1  5.77861516911691  1.02243335083508 -3.03545227622762
 1  6.65637770067007  1.42762676267627  0.10398304110411
 1  6.24327844724472 -0.26178421582158  0.44099381608161
 1  7.54818220292029 -1.23150238543854 -1.40275159875988
 1  7.85318775467547  0.31145435353535 -1.95024794839484
 1  9.27756980858086  0.99967785278528 -0.04746711451145
 1  9.04190267896790 -0.60047555375538  0.82515037873787
 1  10.28099565096510  0.23844638233823 -1.88628351785178
 1  9.22112709820982 -2.30245822232223 -2.34198012281228
 1  10.98638119381938 -2.22208899279928 -2.09256350025003
 1  10.00604349034904 -2.58054999699970 -0.67262670237024
 1  11.37649533043304  0.65831806200620  0.10572205970597
 1  11.52086513991399 -0.78040400170017  0.79392001360136
 1  12.93925724462446 -1.70838900010001 -1.27281494909491
 1  12.74896864936494  0.24091478247825 -1.88832219351935
 1  13.94060549724972  0.87449000500050  0.40897824082408
 1  13.75783853695370 -0.74435404010401  0.97160367686769
 1  15.35270855935594  0.31802128712871 -1.43001735973597
 1  16.07870531343134 -2.34334462656266  0.18404695079508
 1  15.16682973367337 -2.24056643224322 -1.47301471657166
 1  16.92544217361736 -1.71862738763876 -1.09255072457246
 1  16.10072527322732  1.52186001970197  0.77432397669767
 1  16.59191363856386 -0.25034420952095  1.35041780298030
 1  18.42445338403840 -0.45130167756776 -0.27713105350535
 1  17.88159522402240  1.01532885178518 -0.92678625442544
 1  18.14586537913791  2.45041919961996  1.15847385268527
 1  18.56479363966397  0.68955313631363  1.97258725902590
 1  20.51718663136314  0.42978912711271  0.31494855885589
 1  19.78476258285828  3.29945350725072 -0.86928052145215
 1  21.43540779287929  2.21356800960096 -1.06857822112211
 1  19.71762566696670  1.68820063086309 -1.58969593859386
 1  21.02489846504650  1.56550465956596  2.49604922212221
 1  22.07038874517452  2.18526975667567  1.47890285658566
 1  20.80399012891289  3.18655873917392  1.77860830133013
=======
12 -7.10525109810981  0.59454820292029  0.11213890129013
 6 -4.81057567556756 -1.93795497389739  0.51605813851385
 6 -4.76459638853885  2.79424787208721  1.18196456135614
 6 -9.35078981448145  3.02689818531853 -0.26880974067407
 6 -9.51559187288729 -1.69630514151415 -0.68808523762376
 7 -5.13629705430543  0.37257707580758  0.74218463676368
 6 -4.36160586668667 -0.71469129112911  0.78121614481448
 6 -2.89579858525853 -0.39967939363936  1.19029938413841
 6 -3.04892833123312  1.05927859615962  1.66155688638864
 6 -4.39615661056106  1.48393914271427  1.19988701860186
 6 -2.94644972707271  1.21573386148615  3.19369077797780
 6 -1.87514097509751 -0.60854611601160  0.07885184348435
 6 -0.45784320692069 -0.25250959815982  0.44113824312431
 6  0.49159029622962 -0.50596410931093 -0.57974335483548
 8  0.15217645774577 -0.94416982458246 -1.67696402810281
 8  1.81767357785779 -0.36241363776378 -0.28530531943194
 7 -7.08520896879688  2.54128971877188  0.40362905840584
 6 -6.13451273027303  3.32234321012101  0.83943747734773
 6 -6.36427368046805  4.77859214861486  0.76915760296030
 6 -7.70782348934893  4.80169080058006  0.27628601990199
 6 -8.08230250185019  3.43098229352935 -0.00734818851885
 6 -5.47856581328133  5.83019548544855  1.15297005750575
 6 -8.54635243284328  5.98355938963896 -0.07311032563256
 6 -8.52346623792379  7.09136525512551  0.64751100090009
 7 -9.26224849744974  0.64009687078708 -0.43967800150015
 6 -9.89852611231123  1.80549050215022 -0.62749907400740
 6 -11.19593869046905  1.43052139123912 -1.14724644414441
 6 -11.28868127202720 -0.04325896179618 -1.21376009000900
 6 -9.90838651935193 -0.43761573587359 -0.82628764486449
 6 -12.36415523922392  2.34420499149915 -1.43223999879988
 6 -12.32397694399440 -0.89944735483548 -1.75493630213021
 6 -12.20987847624762 -1.17838024922492 -3.23267838643864
 7 -7.23030249854986 -1.43386299989999 -0.07090176717672
 6 -8.25167540734073 -2.24779995209521 -0.40099505470547
 6 -7.78875502110211 -3.63107137463746 -0.38362563986399
 6 -6.49961384548455 -3.60226456345635 -0.02396412831283
 6 -6.10619321572157 -2.21268955025503  0.21167397159716
 6 -8.58434590199020 -4.86459930233023 -0.82379085748575
 6 -5.24888935923592 -4.40890477397740  0.19530240284028
 8 -5.05605444334433 -5.61287577097710  0.11538856955696
 6 -4.13161674107411 -3.38590438023802  0.61895176047605
 6 -3.54721535243524 -3.59449467076708  1.96584695759576
 8 -3.87470907150715 -3.00779751595159  2.87942062316232
 8 -2.64474566826683 -4.65749047144714  1.87343592449245
 6 -2.17720830873087 -5.18866309540954  3.15953088858886
 6  2.75961847354735 -0.39395719031903 -1.29832103250325
 6  4.10557264626463 -0.12267044334433 -0.70683083208321
 6  5.14217770217022  0.64872113751375 -1.16126589928993
 6  5.04639306230623  1.33856650595060 -2.46866103140314
 6  6.45718005080508  0.61867371757176 -0.31233771897190
 6  7.69113665156516  0.08147780088009 -1.10741769226923
 6  8.91115298789879  0.09258412801280 -0.27110892369237
 6  10.18815944044404 -0.48707577927793 -1.00007097759776
 6  9.96135283548355 -1.97752868896890 -1.43184664966497
 6  11.43407628452845 -0.22717649844984 -0.11033016441644
 6  12.70360526822682 -0.50269432053205 -0.78716873977398
 6  13.84623409180918 -0.13507471027103  0.14394146164616
 6  15.26418254315432 -0.18956268536854 -0.57558579837984
 6  15.67332900180018 -1.52207984178418 -1.06787640534053
 6  16.41698580448045  0.21337569756976  0.43225773297330
 6  17.76056064546454  0.40905230363036 -0.07370318491849
 6  18.86346671617162  1.08857707470747  0.94679511251125
 6  20.29717838703870  1.14533486698670  0.41748651185118
 6  20.45547690149015  1.87047534473447 -0.85507650035004
 6  21.15658658945895  1.74960789708971  1.59610497389739
 1 -3.98174965946595  3.65279080048005  1.46622120902090
 1 -10.12995338803880  3.88257909290929 -0.58978436993699
 1 -10.33483677307731 -2.48708804960496 -0.80611726392639
 1 -2.55512196909691 -1.04028234213421  2.00950164136414
 1 -2.35909951515151  1.77933151575157  1.21124177457746
 1 -1.93639809730973  0.80588104100410  3.54392810631063
 1 -2.75793085308531  2.36633069056906  3.35809797519752
 1 -3.78905234793479  0.54494917891789  3.92666507930793
 1 -1.97184966986699 -1.62591255165517 -0.40736464566457
 1 -2.14711638413841 -0.00670341994199 -0.94859489908991
 1 -0.58705222262226  0.66102071597160  0.89799019811981
 1 -0.15068287028703 -1.09064357955796  1.17166112131213
 1 -5.75123389878988  6.71346999109911  0.73234894409441
 1 -5.65610259965997  6.14228759185919  2.24204050115012
 1 -4.42402635863586  5.41910307670767  1.13468664426443
 1 -9.32603465596560  5.69420556865687 -0.67785801400140
 1 -9.23607482338234  7.87763850275027  0.38880850265026
 1 -7.96306577237724  7.29460586008601  1.38809719521952
 1 -12.14551865696570  2.90715104110411 -2.24757776247625
 1 -13.17954762396240  1.76036992819282 -1.74855604710471
 1 -12.43261499259926  3.26265492019202 -0.65877712171217
 1 -12.49044382278228 -1.71553099819982 -1.21022597749775
 1 -13.24826354525453 -0.36457319411941 -1.48160368786879
 1 -13.01537789038904 -1.73276796299630 -3.50638052255226
 1 -12.12708627282728 -0.28630316791679 -3.83194669036904
 1 -11.20534681398140 -1.69769463656366 -3.44261288128813
 1 -8.92782238523852 -4.43598434133413 -1.76217948204820
 1 -7.85050441524152 -5.65294529872987 -0.85712532553255
 1 -9.31020090499050 -4.97310233153315 -0.23331515411541
 1 -3.40900159605961 -3.30479373007301 -0.16468173967397
 1 -1.70437860436044 -4.62492893259326  3.58717163246325
 1 -2.96794640324032 -5.44881649924993  4.02804564346435
 1 -1.64478258975898 -6.04342361556156  2.82439639253925
 1  2.73165246934693 -1.33221505740574 -1.84715868086809
 1  2.32366984458446  0.45673995359536 -1.95200835303530
 1  4.08348925452545 -0.70991320652065  0.22050526652665
 1  3.97783674717472  1.30534924532453 -2.80702907260726
 1  5.21093650535053  2.36945720462046 -2.11906837503750
 1  5.65873318091809  0.90573168066807 -3.24719345034503
 1  6.86875893879388  1.68795279527953 -0.05367272447245
 1  6.49738385778578  0.04681664426443  0.56681639833983
 1  7.49670705540554 -1.05654488968897 -1.67763908750875
 1  7.62022445834583  0.60532374047405 -2.07569049264927
 1  8.96420847244724  1.22294017901790  0.08374600680068
 1  8.60164865356536 -0.37076258245825  0.67788565226523
 1  10.39195674707471  0.12779531723172 -1.79207409690969
 1  9.06448143364336 -1.90285826232623 -2.21625755055506
 1  10.80264281998200 -2.16599338323832 -2.04467871177118
 1  9.63859674567457 -2.70248219021902 -0.76228566826683
 1  11.35950363126313  0.61773400360036  0.41100258775878
 1  11.35135818921892 -0.84802076337634  0.72545316691669
 1  12.62898621752175 -1.65130329152915 -1.16244391199120
 1  12.85312906540654  0.04110480148015 -1.71799516081608
 1  13.57053849054905  0.82593514951495  0.53497084008401
 1  14.17492024512451 -0.96341594629463  1.02167868436844
 1  15.43043633213321  0.62475196019602 -1.49414377237724
 1  15.68219566246625 -2.15113540564056 -0.10850230413041
 1  14.84302735343534 -2.06706908250825 -1.67429484458446
 1  16.54948457785779 -1.68595412031203 -1.64401587108711
 1  16.14017921862186  1.19999783348335  1.02012855715572
 1  16.66040048724872 -0.75108428352835  1.23557631883188
 1  18.19122006070607 -0.53537008440844 -0.38828216861686
 1  17.87707477197720  1.09779709860986 -0.99585316111611
 1  18.47895868846885  2.09654381208121  1.07932593789379
 1  18.61050821112111  0.45024920592059  1.84929492979298
 1  20.67306221892189  0.15488163636364  0.29923698769877
 1  19.97968207480748  2.87194075597560 -0.78128172157216
 1  21.50482473457346  2.09300595339534 -1.14542590589059
 1  19.96602050645065  1.44114592539254 -1.68846581558156
 1  21.11100707590759  1.10555866496650  2.56028564576458
 1  22.25469717601760  1.81110233993399  1.22357732403240
 1  20.68843857375738  2.83469355265527  1.96896733723372
>>>>>>> 8e03b5b5abfc0030b3aa597dc0de36371bfbd096

