%nproc=4
%Mem=3GB
# td=(NStates=1) iop(3/107=0140000000,3/108=0140000000) CAM-B3LYP/6-31G(d,p) 

TD

0 1
12 -7.13020771247125  0.69894827832783  0.00972734273427
 6 -4.93723253975398 -1.93374060466047  0.60478588098810
 6 -4.78855488608861  2.85306402430243  1.11515162036204
 6 -9.49636640114011  3.08743629662966 -0.34475695099510
 6 -9.46325242324233 -1.67443920962096 -0.98778558345835
 7 -5.20350738193819  0.42551864246425  0.69993781778178
 6 -4.38305055235524 -0.69000014321432  0.86662455715572
 6 -2.99742596319632 -0.44935333333333  1.16216188528853
 6 -2.95647887478748  1.12644134573457  1.66415269456946
 6 -4.39660989568957  1.52525717681768  1.12379677357736
 6 -2.76823300410041  1.34017683698370  3.10566588118812
 6 -1.91262699239924 -0.54391038023802  0.07914172447245
 6 -0.46042175137514 -0.31966521452145  0.45586896919692
 6  0.54030595379538 -0.79277589948995 -0.69339913001300
 8  0.10016023282328 -1.19631340904090 -1.79635702880288
 8  1.75597419581958 -0.58279821822182 -0.35136052365237
 7 -7.14564220762076  2.64432764266427  0.45560648474847
 6 -6.08396854065407  3.41625539293929  0.83939981608161
 6 -6.38097300570057  4.78844570817082  0.85833409210921
 6 -7.68359314461446  4.82648445364536  0.36965309170917
 6 -8.18841836933693  3.50041698049805  0.16372437103710
 6 -5.54628666256626  5.96109558325833  1.26030618581858
 6 -8.57148715671567  6.02453272287229  0.31757236973697
 6 -8.55430384038404  7.19950910061006  0.88721278057806
 7 -9.06577561866187  0.67708470287029 -0.67164373827383
 6 -9.80906839313931  1.80793411771177 -0.64830764426443
 6 -11.17981193389339  1.47591703620362 -1.10288514821482
 6 -11.20218970617062  0.06148369416942 -1.24055408370837
 6 -9.87126473007301 -0.40683087648765 -1.07975017631763
 6 -12.27561849954995  2.40220546194619 -1.35285473817382
 6 -12.35270906380638 -0.80994711851185 -1.69989932053205
 6 -12.25107701660166 -1.14054424672467 -3.12998364956496
 7 -7.18463142554255 -1.32060689638964 -0.20741341644164
 6 -8.16904123042304 -2.26934548004801 -0.68604018391839
 6 -7.84920696049605 -3.56345689708971 -0.55010531033103
 6 -6.59119691019102 -3.58651163326333 -0.04209629132913
 6 -6.11694542624262 -2.15667362316232  0.05315715111511
 6 -8.64779711921192 -4.72391849024902 -0.90239362246225
 6 -5.28663412631263 -4.30663422682268  0.27842281638164
 8 -5.11049204150415 -5.55204206120612  0.23730967956796
 6 -4.25850035263526 -3.27475492289229  0.72211053265327
 6 -3.59318349514951 -3.64257219991999  1.93994996349635
 8 -3.78208099149915 -3.08864622252225  3.00578393659366
 8 -2.73497885068507 -4.64381299979998  1.80191922942294
 6 -2.15501445844584 -5.21460666656666  3.01450885128513
 6  2.75319163956396 -0.86095438433843 -1.37211072827283
 6  4.17635852105211 -0.58850411831183 -0.68902146494649
 6  5.08045353665366  0.31340786878688 -0.98726160316032
 6  5.02673639923992  1.13043071837184 -2.37664179917992
 6  6.38393467216722  0.42433304930493 -0.21183170757076
 6  7.63543499609961 -0.16867541554155 -0.98165849454945
 6  8.84736244784478 -0.04056587268727 -0.19997610001000
 6  10.19759522012201 -0.54491615481548 -0.82719843984398
 6  10.17883115971597 -2.08314619451945 -1.43096006200620
 6  11.46069073287329 -0.39005389648965  0.03978601610161
 6  12.83044077957796 -0.56680671417142 -0.68014551965197
 6  14.04974624642464 -0.06074178847885  0.16460287188719
 6  15.38323431443144 -0.19569865346535 -0.48311396389639
 6  15.69232550355036 -1.60170855915592 -0.93938576487649
 6  16.37010400310031  0.47235375267527  0.43738847354735
 6  17.73346093379338  0.60294402400240 -0.21362788978898
 6  18.74589500810081  1.11953003150315  0.78731198789879
 6  20.29874267866787  1.31823125562556  0.26167287328733
 6  20.45604845064506  2.18547585268527 -0.90697539343934
 6  21.07329239623962  1.83288498839884  1.40537447744774
 1 -4.10881124462446  3.49979323072307  1.61658775457546
 1 -10.32608473177318  3.76477875237524 -0.44990951715171
 1 -10.25607003110311 -2.39800533563356 -1.36420423982398
 1 -2.83979126632663 -0.95165536823682  1.97628411911191
 1 -2.23873734003400  1.72046410751075  1.15241889088909
 1 -1.95210829722972  0.86669577597760  3.51542187958796
 1 -2.88348545764577  2.42158138093809  3.28899692189219
 1 -3.49588238873887  0.98387354165417  3.81987367256726
 1 -2.03358847784778 -1.48136880768077 -0.30623863096310
 1 -2.14824119311931  0.11238885868587 -0.75036177077708
 1 -0.40833626232623  0.59104869216922  0.79659352235224
 1 -0.24768318861886 -0.98599936653665  1.31259471777178
 1 -6.11649582728273  6.86287379937994  0.87610744204420
 1 -5.44033550485049  6.28210109150915  2.29973198569857
 1 -4.38695353995400  5.72275654365436  0.94685541814181
 1 -9.39251951175117  5.82279566156616 -0.37870922362236
 1 -9.31028009170917  7.92662238323832  0.52430220592059
 1 -7.72198013011301  7.51297813421342  1.55707466776678
 1 -12.06204667766777  3.12452159925993 -2.18325415691569
 1 -13.05547284498450  1.75337407980798 -1.59593532173217
 1 -12.60404143684368  3.10760809490949 -0.50833127262726
 1 -12.19469143404340 -1.60203112591259 -1.08004150505051
 1 -13.22587488658866 -0.20513322382238 -1.47283303770377
 1 -13.17244244344434 -1.65627929002900 -3.33399435753575
 1 -12.20911131683168 -0.26472494379438 -3.84687366576658
 1 -11.32874771417142 -1.65880690789079 -3.25947422562256
 1 -9.01170578917892 -4.83970047084708 -1.79314537753775
 1 -7.98857324252425 -5.59821577487749 -0.85709566466647
 1 -9.46278045704571 -5.05126357475748 -0.18325059375938
 1 -3.52057957645765 -3.44520112571257 -0.03400113821382
 1 -1.71828521612161 -4.43265547894790  3.62738445604560
 1 -2.75701213851385 -5.52355188008801  3.73779481718172
 1 -1.22057257775778 -5.81904268906891  2.69052241334133
 1  2.80703875867587 -2.02190881368137 -1.56309775847585
 1  2.71561800310031 -0.25812772797280 -2.14514557205721
 1  4.41016150285029 -1.28945735953595  0.21529292949295
 1  3.99053436493649  1.16319186188619 -2.73644413011301
 1  5.27615454765477  2.05455587948795 -2.10845828422842
 1  5.66732630113011  0.85335652655266 -3.17855411231123
 1  6.72545072897290  1.49028900950095 -0.26343672977298
 1  6.39065693779378  0.04802746604660  0.92210840634063
 1  7.55382750555056 -1.19618029102910 -1.25697045424542
 1  7.68438099659966  0.20787989098910 -1.81014183708371
 1  9.02844888918892  0.94563406090609  0.18621104920492
 1  8.60164328512851 -0.58702705540554  0.83634975837584
 1  10.39145377717772  0.13761990979098 -1.81638679667967
 1  9.36683629272927 -2.34352263576358 -1.85372375427543
 1  10.93269240984099 -2.27565096439644 -2.11338669676968
 1  10.08994119121912 -2.87348146284628 -0.61658905260526
 1  11.54968661026103  0.64059049244925  0.45602337313731
 1  11.51939953545355 -1.10766206380638  0.81984830493049
 1  13.06081403390339 -1.63031045034503 -0.88145041654165
 1  13.05322115201520 -0.02833789778978 -1.53410774447445
 1  13.68897031733173  1.14174953825382  0.16470129882988
 1  14.04621293189319 -0.54929130803080  1.26093846784678
 1  15.31238163956396  0.41293469046905 -1.28087935673567
 1  15.80762455925593 -2.27696703790379 -0.14720285578558
 1  14.90168181258126 -1.94388890889089 -1.87312868636864
 1  16.73804208380838 -1.39853075007501 -1.51144765806581
 1  16.24716799029903  1.53044137783778  0.76602251855186
 1  16.48351242904290 -0.13104938973897  1.41627012171217
 1  18.17979471717172 -0.53790030403040 -0.27097729332933
 1  17.61489879947995  1.25684457855786 -1.06193193679368
 1  18.59379843674368  2.31023229122912  0.98322026882688
 1  18.65316127862786  0.68615345484548  1.85539878537854
 1  20.61033086538654  0.36005700330033  0.13898979117912
 1  20.10992781128113  3.23392416891689 -0.78486067076708
 1  21.40740454125412  2.22612375447545 -1.24954293549355
 1  19.72372076967697  1.83259354955496 -1.75881426582658
 1  21.25844969846985  1.04940058095810  2.32701637043704
 1  22.07467536033603  2.21420189088909  1.04331098469847
 1  20.64089416791679  2.82103822102210  2.00513765046505

