%nproc=4
%Mem=2GB
# td=(NStates=1) CAM-B3LYP/6-31G(d,p) 

TD

0 1
12 -7.14820539353935  0.61335008310831  0.07268495589559
 6 -4.86499111711171 -2.03493467186719  0.56174270697070
 6 -4.80792072097210  2.81556000330033  1.26068243314331
 6 -9.36684141964196  3.11510700620062 -0.36859971967197
 6 -9.61562187588759 -1.65651116211621 -0.93235966506651
 7 -5.11014443904390  0.34377419551955  0.68223864216422
 6 -4.30595030113011 -0.82395221722172  0.75417344054405
 6 -2.95184418981898 -0.47867729342934  1.20924127832783
 6 -3.05799923832383  1.04157682598260  1.65334606530653
 6 -4.39978697359736  1.44394514331433  1.10779780968097
 6 -2.91824690679068  1.08612090019002  3.19994140304030
 6 -1.89163262426243 -0.60210547194719  0.01095505380538
 6 -0.48314573717372 -0.38653300050005  0.52271640094009
 6  0.51070220742074 -0.63826733963396 -0.54646002650265
 8  0.24383562366237 -1.04808021562156 -1.67597392909291
 8  1.81328313881388 -0.31877927432743 -0.22044883378338
 7 -7.05929637753775  2.61472706250625  0.35511420692069
 6 -5.95494477347735  3.33124410021002  0.76521005460546
 6 -6.25300255335534  4.65946023542354  0.71970265746575
 6 -7.62053476047605  4.83621425292529  0.29383777507751
 6 -8.15240951255126  3.53473266856686  0.07156970327033
 6 -5.34597255395540  5.78532099799980  1.01877663816382
 6 -8.47125492309231  6.03582461616162  0.11555854125413
 6 -8.20836472777278  7.21149726832683  0.80588683848385
 7 -9.17926019861986  0.60050291139114 -0.44214824852485
 6 -9.88683494319432  1.80556050915092 -0.64894121822182
 6 -11.17908700530053  1.50371871097110 -1.12419413891389
 6 -11.30855325922592  0.10046541064106 -1.28960767476748
 6 -9.96694237493749 -0.37113908820882 -0.87396241234123
 6 -12.24454327802780  2.59754032503250 -1.45443221802180
 6 -12.35702024832483 -0.76686409650965 -1.78108891739174
 6 -12.08182567096710 -1.14589700090009 -3.26406152475248
 7 -7.29935940424042 -1.38126774037404 -0.08453313031303
 6 -8.36377661746175 -2.23816898899890 -0.45748070327033
 6 -7.92711885748575 -3.62356062356236 -0.47249452675268
 6 -6.59761364546455 -3.61534587158716 -0.05100683258326
 6 -6.21711430783078 -2.23121140244024  0.20910371457146
 6 -8.91606907430743 -4.66316915931593 -0.80479895829583
 6 -5.41490596089609 -4.47529141264126  0.23466633923392
 8 -5.19958879677968 -5.64900938433843  0.15274230493049
 6 -4.27235081448145 -3.31984777457746  0.53612347764776
 6 -3.66188681958196 -3.77810303160316  1.90521089398940
 8 -3.87765936653665 -3.18281501770177  2.89997267836784
 8 -2.71417261096110 -4.72975769816982  1.70652923382338
 6 -2.17971855975598 -5.17933216231623  3.04873980948095
 6  2.75896840854085 -0.59457725232523 -1.14743594399440
 6  4.16623871287129 -0.32511068736874 -0.48796894589459
 6  5.16567005140514  0.40760702610261 -0.92965273797380
 6  5.12549097209721  1.19233188248825 -2.23848801410141
 6  6.46181051385139  0.46363821402140 -0.24933141834183
 6  7.65757329522952 -0.21630197709771 -0.92416936743674
 6  9.02585445804580 -0.19089421982198 -0.12194400720072
 6  10.17047767226723 -0.52365943764376 -0.91342231273127
 6  10.15280198039804 -2.05019595569557 -1.24067753275328
 6  11.42873575047505 -0.26750053085309 -0.04031316271627
 6  12.75526043374337 -0.53205725682568 -0.70921094399440
 6  13.97988745714571 -0.15364656745675  0.16139320682068
 6  15.30799692459246 -0.26906063516352 -0.53778201800180
 6  15.75395706460646 -1.72081971577158 -0.71282089978998
 6  16.43634774067407  0.37365172517252  0.51198570577058
 6  17.76489107850785  0.57570896929693 -0.19090490509051
 6  18.75119548904890  1.45000321732173  0.71815224822482
 6  20.16330499969997  1.60192052555256  0.19764452765277
 6  20.37036839063907  2.23874217141714 -1.19556054875488
 6  21.16131706250625  2.01209414571457  1.25951131453145
 1 -4.10026151065107  3.66888240964096  1.61327591449145
 1 -10.04641503420342  4.02609344434443 -0.46461185268527
 1 -10.44647793719372 -2.34485382618262 -1.38239489168917
 1 -2.80361681858186 -1.03948226212621  2.19387007820782
 1 -2.31373497869787  1.43463704630463  1.18579923032303
 1 -2.04128858635864  0.62118257115712  3.65227894139414
 1 -2.83211827182718  2.23309736723672  3.31949411481148
 1 -3.94636807950795  0.73142782678268  3.55895830863086
 1 -2.10095258015802 -1.69377933833383 -0.41427533673367
 1 -2.18943061556156  0.00608785918592 -0.76789682928293
 1 -0.27585110251025  0.50217483138314  1.04630502960296
 1 -0.46968477047705 -0.99706422162216  1.54815877107711
 1 -5.64244301970197  6.75279392349235  0.44156986618662
 1 -5.04238122752275  6.02256561966197  2.02505880298030
 1 -4.35526948294829  5.72241340774077  0.41629480508051
 1 -9.26482853535354  5.93641979007901 -0.46237646584658
 1 -8.83350456635664  7.99787052595260  0.79210883268327
 1 -7.27838730453045  7.25790218971897  1.57539592509251
 1 -11.86471057615762  3.43296362236224 -2.16622962766277
 1 -13.12974264346435  2.21849574077408 -1.93837502900290
 1 -12.71264299539954  2.89216787148715 -0.34399564356436
 1 -12.59417419581958 -1.61266071117112 -1.17300225512551
 1 -13.35164388328833 -0.23867060386039 -1.61369689718972
 1 -13.16860321292129 -1.39958464466447 -3.52306219071907
 1 -11.99743330753075 -0.22510704830483 -3.70341383708371
 1 -11.19295557485749 -1.80711557865787 -3.47811643164316
 1 -9.46973657665767 -4.44783552645265 -1.85602886698670
 1 -8.28750811561156 -5.61263126732673 -1.19397901090109
 1 -9.71795168006801 -5.05053007430743  0.03931210861086
 1 -3.41371206710671 -3.53229648034803 -0.20049532103210
 1 -1.64271243774377 -4.43633007270727  3.45541845714571
 1 -3.01750135873587 -5.40990260786079  3.54332717161716
 1 -1.74035214671467 -6.07230650385039  2.78117207010701
 1  2.85633493759376 -1.71515335123512 -1.33691765676568
 1  2.43991146874687 -0.09910563096310 -2.05792894509451
 1  4.41736264186419 -0.92136435163516  0.51759497549755
 1  4.18190715421542  1.34216292669267 -2.82313068276828
 1  5.51017642934293  2.17470772967297 -2.05044151235124
 1  5.80742805040504  0.78253936143614 -3.05642437343734
 1  6.55116717961796  1.58674267426743 -0.04341169836984
 1  6.47839195859586 -0.00867890529053  0.79123884058406
 1  7.33362074677468 -1.15373460866087 -1.33996532013201
 1  7.93401583748375  0.16268947704770 -1.89579250285029
 1  9.11330338193819  0.76818470347035  0.39453708590859
 1  8.83227171587159 -0.56853235943594  0.80684854855486
 1  10.19643719511951 -0.04138160046005 -1.85160004950495
 1  9.23202818831883 -2.22173014951495 -1.75662158695870
 1  11.04190674637464 -2.22072885678568 -2.01936618051805
 1  10.37989087508751 -2.59619156115612 -0.36332577227723
 1  11.37913559445945  0.81265349554955  0.41312279977998
 1  11.45149820322032 -0.73572953425343  0.99750037163716
 1  12.75777909680968 -1.55537369856986 -1.17314498209821
 1  12.94134788728873  0.21745243624362 -1.56564992629263
 1  13.91681311801180  0.79138169416942  0.59721706470647
 1  13.77526027912791 -0.62716232093209  1.04938145464546
 1  15.29596288478848  0.22668215321532 -1.54510886888689
 1  16.06696413931393 -2.09327962006201  0.19283782988299
 1  14.95423847454746 -2.48996137173717 -1.32028944404440
 1  16.55728535793579 -1.94038956385639 -1.16374784428443
 1  15.93472867356736  1.50442827652765  0.53366991129113
 1  16.45373982118212 -0.09068824392439  1.49890265146515
 1  18.29097003570357 -0.21202775017502 -0.42671601200120
 1  17.65393245774577  1.08390570947095 -1.12955653145315
 1  18.20394118671867  2.50700485818582  0.71267927322732
 1  18.51019818011801  1.08339252025203  1.64283428372837
 1  20.38151306400640  0.43276942514251 -0.05559849584959
 1  20.25421952855285  3.38028159005901 -1.24789838323832
 1  21.49943419551955  2.14911156395640 -1.54934629792979
 1  19.80332423682368  1.63367517831783 -1.99275624462446
 1  20.85709168436844  1.57217532663266  2.29216883408341
 1  22.18183989028903  2.01374260396040  1.10234520082008
 1  21.00470019991999  3.06822690599060  1.44483492399240

