%nproc=4
%Mem=2GB
# td=(NStates=1) CAM-B3LYP/6-31G(d,p) 

TD

0 1
12 -7.01458203120312  0.59335808390839 -0.05695800840084
 6 -4.96804142214221 -1.95923710211021  0.57651418411841
 6 -4.66847677657766  2.85023347064706  1.07892425732573
 6 -9.32241697719772  3.10675617111711 -0.38509136883688
 6 -9.61379169286929 -1.68502401340134 -0.81784821392139
 7 -5.05222864746475  0.39458927702770  0.61551196949695
 6 -4.30702040814081 -0.71525134713471  0.75752377557756
 6 -2.89943894929493 -0.46470589628963  1.22808316251625
 6 -3.00710414881488  1.02604527282728  1.65938666936694
 6 -4.33341033593359  1.51513226202620  1.06515354525453
 6 -2.89563464556456  1.12999528762876  3.16347775667567
 6 -1.87202066306631 -0.81233649504950 -0.02307834953495
 6 -0.49021644424442 -0.50985533273327  0.46372050135014
 6  0.50511164836484 -0.71875538843884 -0.63699908040804
 8  0.20637187728773 -1.05914132173217 -1.83718004970497
 8  1.74869668016802 -0.44038143454345 -0.24229101800180
 7 -7.07498794669467  2.57173276307631  0.35129382488249
 6 -5.99353863286329  3.29584055985599  0.68227176077608
 6 -6.39122637573757  4.74379866926693  0.76335702290229
 6 -7.70699340634063  4.82150278177818  0.29416780808081
 6 -8.08502277387739  3.48405760106011 -0.01322877657766
 6 -5.35017297399740  5.86822928882888  0.98270303080308
 6 -8.58012581018102  6.03646468016802  0.12578956435644
 6 -8.34585847714771  7.16917303590359  0.80920717051705
 7 -9.05933820642064  0.72190505160516 -0.57319135283528
 6 -9.86094235393539  1.79998995209521 -0.69323564766477
 6 -11.24423351995199  1.54122246134613 -1.05352707220722
 6 -11.31108351225122  0.19535489958996 -1.11673038703870
 6 -9.97231291199120 -0.34842681698170 -0.81085610171017
 6 -12.27663648734873  2.62067263826383 -1.23928070287029
 6 -12.51370591689169 -0.64511192129213 -1.53217402590259
 6 -12.35513300170017 -1.09928233943394 -2.98156327492749
 7 -7.24790425872587 -1.36229584318432 -0.23250792779278
 6 -8.31428166796680 -2.24869004110411 -0.61246620182018
 6 -7.93142928852885 -3.58284655215522 -0.54048132543254
 6 -6.61527541164116 -3.52815715271527 -0.08918064996500
 6 -6.27128972537254 -2.17226550785079  0.14748755295530
 6 -8.71923939133913 -4.74827767016702 -0.67851633003300
 6 -5.48453292359236 -4.39520340384038  0.24382725532553
 8 -5.34823366126613 -5.61127561096110  0.20429746044604
 6 -4.29971355075507 -3.34631042084208  0.60994085938594
 6 -3.47900853175318 -3.77738295959596  1.91773214611461
 8 -3.54059566016602 -3.15308204440444  2.93922660376038
 8 -2.72920411411141 -4.78831355375538  1.71737031793179
 6 -2.07815840374037 -5.24085831493149  2.91179611511151
 6  2.74043655535554 -0.83926172077208 -1.38702990339034
 6  4.09526161516152 -0.54299247554755 -0.58446859585959
 6  5.05058854325433  0.19424568996900 -1.12088186088609
 6  5.00821924492449  0.93094574387439 -2.43611777707771
 6  6.32872720552055  0.46134798499850 -0.25770225542554
 6  7.70513805170517 -0.03198354525453 -0.97111406190619
 6  8.93305517811781 -0.12153728412841 -0.01541335413541
 6  10.20658128262826 -0.49090616231623 -0.79603057355736
 6  10.09707640784078 -1.90933186928693 -1.29089255425543
 6  11.46238911581158 -0.21944572537254  0.05133600220022
 6  12.80502541024102 -0.46490054115412 -0.67924794769477
 6  13.99558902730273 -0.03234443724372  0.14831189868987
 6  15.36784290919092 -0.03427715681568 -0.44697293709371
 6  15.65772744164416 -1.42996062986299 -0.83454307200720
 6  16.37387149304930  0.54074843484348  0.47818232543254
 6  17.88144273367337  0.61328272667267 -0.06345215981598
 6  18.82414278377838  1.41898011501150  0.80806123912391
 6  20.25768443764376  1.33434376787679  0.35850061326133
 6  20.39185053885389  2.03045134233423 -1.03334432713271
 6  21.21709264006401  1.94799773607361  1.39660502390239
 1 -4.10718220272027  3.71441696309631  1.67819240614061
 1 -9.96742713541354  3.89424025902590 -0.35869126062606
 1 -10.55694898429843 -2.46954629542954 -0.91682833503350
 1 -2.67172362926293 -1.40221853575358  1.90841153235323
 1 -2.20313391859186  1.60475405800580  1.10705135553555
 1 -1.83333779127913  0.79986043894389  3.39956366986699
 1 -2.97121218121812  2.05430948844885  3.59916208160816
 1 -3.69474291699170  0.52857754175417  3.41724413721372
 1 -1.95893837873787 -1.83082304270427 -0.17350125932593
 1 -2.22418409090909 -0.00046279587959 -0.80103014261426
 1 -0.38817233463346  0.47043165706571  0.87977837693769
 1 -0.10011781378138 -1.27880239543954  1.39193314851485
 1 -5.90571934733473  6.80212885698570  0.41595730493049
 1 -5.44586157555756  6.18227159025903  2.11553785088509
 1 -4.29549350535054  5.71021218761876  0.72565574117412
 1 -9.23258531103110  5.80912706080608 -0.48442867106711
 1 -8.86037725362536  8.27996873577358  0.71134075587559
 1 -7.38630809660966  7.32776917641764  1.44000238573857
 1 -11.93958806390639  3.42184251025102 -2.07078008270827
 1 -13.29181885108511  2.20270416161616 -1.58883007450745
 1 -12.60829256035604  3.22125077977798 -0.32836408040804
 1 -12.45501027942794 -1.50218966406641 -0.71247620252025
 1 -13.47658637753775 -0.11592832963296 -1.39076460396040
 1 -13.12623897649765 -1.70422510871087 -3.46243612811281
 1 -12.21270483468347 -0.19972451005101 -3.54280777647765
 1 -11.50642692199220 -1.64472934003400 -3.34692331233123
 1 -9.45765536853686 -4.70183092599260 -1.56822008610861
 1 -8.05710507530753 -5.65435543974397 -0.68784839783978
 1 -9.43322320722072 -4.90750577187719  0.34090226762676
 1 -3.62787348324833 -3.35839909060906 -0.16276154765477
 1 -1.24110227672767 -4.44923136283628  3.12168508380838
 1 -2.83555316391639 -5.29372098969897  3.73995683458346
 1 -1.51668978047805 -6.19027830103010  2.71987594049405
 1  2.49156846094610 -1.94921675757576 -1.57961192619262
 1  2.52934041164116 -0.14095981638164 -2.21236438863886
 1  4.18852975857586 -1.21330354555456  0.28533174917492
 1  4.00944990849085  0.92468117851785 -2.78696706640664
 1  5.43401881358136  1.80447070597060 -2.34794126232623
 1  5.37529483708371  0.13638474597460 -3.37528625962596
 1  6.47503956685669  1.42429642964296  0.19347198999900
 1  6.37136125552555 -0.11371940934093  0.70727044374438
 1  7.50731811651165 -0.93421265646565 -1.67894921852185
 1  7.91174361026103  0.62146535463546 -1.73660658425843
 1  9.15263731533153  0.82997088208821  0.51280891309131
 1  8.78277676637664 -1.05097060326033  0.66008387208721
 1  9.95794334573457  0.21838437613761 -1.85939082858286
 1  9.38919390489049 -2.28332630913091 -2.10648657345735
 1  11.04173672937294 -2.56656344024402 -1.62280652455246
 1  9.95531841784178 -2.48535047704770 -0.51714115381538
 1  11.30443812471247  0.85633786398640  0.30089157665767
 1  11.47003005640564 -0.69284524582458  1.09353997559756
 1  12.76998031693169 -1.52880104130413 -0.69972764036404
 1  12.46049980248025  0.05958664966497 -1.60240360166017
 1  13.75412684938494  0.87867042304230  0.59749709270927
 1  13.97641039413941 -0.61617122182218  1.08726524302430
 1  15.41510479897990  0.60039952495250 -1.54455881388139
 1  15.45636307920792 -2.22786307840784 -0.01667312121212
 1  15.04244729542954 -1.73163553915392 -1.62914032913291
 1  16.67679730913092 -1.28503402830283 -1.23802527202720
 1  15.94296949764976  1.45971380508051  0.92155870017002
 1  16.51702614981498 -0.10460963606361  1.14892765396540
 1  18.22128306700670 -0.38331487888789 -0.04665800620062
 1  17.80353741824182  1.13649096799680 -1.12315589138914
 1  18.41363215581558  2.42587674537454  0.96143414871487
 1  18.68485564586459  0.75366954795479  1.82978297859786
 1  20.75746065876588  0.44793094129413  0.36534359835984
 1  19.92841694829483  3.05595915781578 -1.10730432383238
 1  21.55906015811581  2.07996464926493 -1.36724808810881
 1  19.88598250265027  1.28247005780578 -1.92074904390439
 1  21.31005698089809  1.64011212031203  2.42479209640964
 1  22.34720642694269  1.79655088478848  1.13256822312231
 1  21.04576430633064  3.06320640394039  1.51814225472547

