%nproc=4
%Mem=3GB
# td=(NStates=1) iop(3/107=0140000000,3/108=0140000000) CAM-B3LYP/6-31G(d,p) 

TD

0 1
12 -7.13194788648865  0.65191357485749  0.05826219621962
 6 -4.86597541404140 -1.84828205880588  0.48061346374637
 6 -4.78666469706971  2.83212193009301  1.33385349054906
 6 -9.33585034953495  3.14771232423242 -0.50299277457746
 6 -9.53911000900090 -1.75276704240424 -0.95113191809181
 7 -5.09165619681968  0.49608569916992  0.71313913791379
 6 -4.31905415271527 -0.68645978917892  0.78615651035104
 6 -2.88609483008301 -0.39828822682268  1.20323599269927
 6 -3.02686591349135  1.06153485508551  1.78323460276028
 6 -4.37016725142514  1.46524117521752  1.21769616351635
 6 -3.10821700250025  1.03173599289929  3.34627994259426
 6 -1.93623935363536 -0.41201719091909  0.00782459275928
 6 -0.46338204740474 -0.32748599659966  0.53765714801480
 6  0.58324024722472 -0.55605222712271 -0.63177296739674
 8  0.19475969276928 -0.77222099979998 -1.82027942104210
 8  1.79200779917992 -0.36131607000700 -0.15021040864086
 7 -7.12219986338634  2.54640785068507  0.43056398049805
 6 -6.05422556635664  3.30337410481048  0.91840771687169
 6 -6.35242015041504  4.80302716631663  0.76443470217022
 6 -7.65046983228323  4.81828363356336  0.38872499889989
 6 -8.01388091559156  3.43660059885989  0.04737273587359
 6 -5.48797083098310  5.88739821352135  1.32824297949795
 6 -8.37267727572757  6.04898516811681  0.00461107360736
 6 -8.18162657265727  7.23288243794379  0.55802986228623
 7 -9.15332437353735  0.63823081748175 -0.63875044894489
 6 -9.87018450475047  1.89706303060306 -0.71710452395240
 6 -11.26547049974998  1.46645609010901 -1.06758161786179
 6 -11.28953844104410  0.15360290609061 -1.28323835213521
 6 -9.90988859245925 -0.32752294569457 -1.02689489078908
 6 -12.30408134583458  2.47920316171617 -1.22954240694069
 6 -12.44383817671767 -0.84022014581458 -1.76658598919892
 6 -12.28460036893689 -1.31832202450245 -3.19260991219122
 7 -7.26192915531553 -1.40006484218422 -0.16068874397440
 6 -8.30166449274927 -2.24548309380938 -0.53689526942694
 6 -7.92515455525553 -3.62543309470947 -0.48678897869787
 6 -6.47344513501350 -3.49583256535654 -0.18856093779378
 6 -6.22154588628863 -2.20230818661866  0.11940377577758
 6 -8.68321066056606 -4.90082618101810 -0.84653803690369
 6 -5.36074153705371 -4.37313087648765  0.04818979307931
 8 -5.17797879017902 -5.63029988698870  0.14594054265427
 6 -4.14609911251125 -3.36981442884288  0.49440776237624
 6 -3.54283846064606 -3.67197514021402  1.86006197469747
 8 -3.79739252265227 -3.14183154105411  2.89218257645765
 8 -2.83110846364636 -4.79486810531053  1.86995603310331
 6 -2.20765972297230 -5.21894710061006  2.99683708410841
 6  2.89199551995200 -0.64412270117012 -1.13817733493349
 6  4.17120800600060 -0.43753902180218 -0.49345190799080
 6  5.25779127042704  0.28505503350335 -0.98319119611961
 6  5.01875560116012  1.23552122742274 -2.14283841884188
 6  6.44312059075908  0.36658727472747 -0.19938046244624
 6  7.63953540614061 -0.19131767976798 -1.04813514221422
 6  8.96510422202220 -0.16233804990499 -0.14504060646065
 6  10.28192365296530 -0.64313597679768 -0.87546326632663
 6  10.17499077567757 -2.01640952085208 -1.16131309730973
 6  11.45992065586559 -0.15167005810581 -0.01769973247325
 6  12.77217495299530 -0.43303333683368 -0.67265477057706
 6  13.95096636843684 -0.18097381168117  0.13157956955696
 6  15.29070506150615 -0.26434551815182 -0.49543519601960
 6  15.58918518951895 -1.69886827512751 -0.91246307260726
 6  16.47719471217122  0.40847736503650  0.34461919661966
 6  17.81118870657066  0.56262999259926 -0.22337886488649
 6  18.71158157675767  1.24994307280728  0.73569682638264
 6  20.21001380578058  1.24366379887989  0.25621232723272
 6  20.35919876567657  2.00251755685569 -1.09610430633063
 6  21.05293036003600  2.09189088898890  1.32341628162816
 1 -3.93003336683668  3.41967521892189  1.83851994779478
 1 -10.06444856815682  3.81142341684168 -0.30364489068907
 1 -10.34434885898590 -2.51557709280928 -1.36527434683468
 1 -2.55432271947195 -1.09523972667267  2.04663115381538
 1 -2.16127959425943  1.76984904600460  1.47512116111611
 1 -2.01764485088509  0.76052515891589  3.93552388978898
 1 -3.52617972707271  1.94633385618562  3.58001602380238
 1 -3.88511131163116  0.22130728502850  3.59854153935394
 1 -1.88810392939294 -1.32836350715072 -0.75931393849385
 1 -2.24186055505551  0.46681430123012 -0.67742447704770
 1 -0.31915734443444  0.59122871017102  0.84422828582858
 1 -0.26339475977598 -0.81276204280428  1.26925038333833
 1 -5.53550772847285  6.62160967296730  0.34386421772177
 1 -5.58897036833683  6.43222610401040  2.26715872837284
 1 -4.37422226682668  5.75164943294329  1.19522025462546
 1 -9.13831409120912  5.97127050905091 -0.85139649234923
 1 -8.72819188288829  7.96055577657766  0.22170194589459
 1 -7.49412734483448  7.26041287768777  1.28001696199620
 1 -12.30571104410441  3.05782492959296 -2.10226605810581
 1 -13.30033733143314  1.92519126152615 -1.05143087128713
 1 -12.14597563026303  3.29236657075708 -0.27108754825483
 1 -12.57955992089209 -1.51563248604861 -0.93383688458846
 1 -13.45639793889389 -0.44354706520652 -1.52060781518152
 1 -12.95597079627963 -2.10430409250925 -3.63309426752675
 1 -12.36446685238524 -0.44279275057506 -3.96943592199220
 1 -11.53458829822982 -1.87867889508951 -3.25793407160716
 1 -9.13459807840784 -4.93143964476448 -1.88194425742574
 1 -8.28258264346435 -5.86097205050505 -0.61106106120612
 1 -9.72877705670567 -4.82717116551655 -0.17132940164016
 1 -3.43499101760176 -3.54535114071407 -0.30432817091709
 1 -1.62647603520352 -4.36877909130913  3.66059777737774
 1 -2.94854129142914 -5.42736226112611  3.75042608030803
 1 -1.63023354385438 -6.00559134393439  2.68020138123812
 1  2.89061711651165 -1.76350297309731 -1.21193264196420
 1  2.74470091139114  0.00080816561656 -2.15465652315231
 1  4.32298278497850 -1.17727614141414  0.40305170537054
 1  4.02492780428043  1.30708625132513 -2.41229171487149
 1  5.53841077327733  2.23820424432443 -1.92530996939694
 1  5.48882845134514  0.77750894179418 -3.07334359125913
 1  6.72543072697270  1.26137611821182  0.21645125902590
 1  6.38343621572157 -0.24529186588659  0.57943413891389
 1  7.27286940974097 -1.04331500450045 -1.51350610781078
 1  7.72526508500850  0.56939604260426 -1.93228405130513
 1  8.91977802210221  0.68713821132113  0.27532996109611
 1  8.84413753455346 -0.83907225992599  0.53598972237224
 1  10.41167579937994 -0.02371622382238 -1.67941309930993
 1  9.26403601270127 -2.32244052755276 -1.70603898579858
 1  10.88376751735174 -2.49612301160116 -1.82922828092809
 1  10.05115731283128 -2.51257537223722 -0.22080947464747
 1  11.54042568416842  0.79584601800180  0.53977174797480
 1  11.39496709220922 -0.74083538113811  0.86851317141714
 1  12.82320027252725 -1.35413283258326 -1.06444871637164
 1  12.59851568146815  0.35677061306131 -1.59323365706571
 1  13.98235965626563  0.85290065336534  0.61209603830383
 1  13.78290660126012 -0.85322170107011  0.98127050105010
 1  15.28489889128913  0.28903230023002 -1.54077534633463
 1  15.36018981578158 -2.49818916011601 -0.01050918641864
 1  15.06395804020402 -2.11565608560856 -1.98686005950595
 1  16.77971625122512 -1.81468236523652 -1.36003251655165
 1  16.03799707320732  1.39024735843584  0.62930884718472
 1  16.27650172797280 -0.25722200700070  1.34811330603060
 1  18.20564730243024 -0.66373288728873 -0.34467466306631
 1  17.57669497909791  1.15321421552155 -1.14160990459046
 1  18.18199725662566  2.20950221822182  0.91391333813381
 1  18.66501246374638  0.69870470997100  1.89492273777378
 1  20.45560539283928  0.16718771637164  0.17289318151815
 1  20.02008882738274  3.04067484398440 -1.32278446314631
 1  21.38960276107611  1.95628677077708 -1.31306928812881
 1  19.89057745534554  1.41666195639564 -1.90895928032803
 1  21.12600645414541  1.45662130303030  2.12030569936994
 1  22.26742463526352  2.36142661336134  0.85487214081408
 1  20.78773885238524  3.10873699089909  1.56694383108311

