%nproc=4
%Mem=2GB
# td=(NStates=1) CAM-B3LYP/6-31G(d,p) 

TD

0 1
<<<<<<< HEAD
12 -7.11094166716672  0.52113086118612  0.14948263566357
 6 -4.92744736273627 -1.95698687708771  0.54617114981498
 6 -4.77218714761476  2.84536298359836  1.06406277117712
 6 -9.37074180968097  3.06219171467147 -0.40238309800980
 6 -9.58072838653865 -1.74099961096110 -0.88921535063506
 7 -5.10984440904090  0.36090590869087  0.77157757605761
 6 -4.36971667776778 -0.73702352435244  0.86534455765577
 6 -2.93321232663266 -0.45787521322132  1.26216657085709
 6 -3.04608804720472  0.98316098439844  1.75076580728073
 6 -4.46522351725172  1.52370311911191  1.17849487938794
 6 -2.92127720982098  1.26703899199920  3.13505491439144
 6 -1.96245970697070 -0.61341660306031  0.11923588188819
 6 -0.52942036463646 -0.40224457165717  0.51634576387639
 6  0.50077121432143 -0.58639215211521 -0.61541692219222
 8  0.21391263136314 -0.93937934553455 -1.78009434113411
 8  1.72473428392839 -0.32984038043804 -0.23601038993899
 7 -7.16872732063206  2.55481107090709  0.30082877837784
 6 -5.99610888988899  3.39721069686969  0.74044757835784
 6 -6.40128738183818  4.75607989738974  0.78915960316032
 6 -7.70740344734473  4.83430406190619  0.40679907120712
 6 -8.19005327692769  3.49537873317332  0.05194774107411
 6 -5.51041899859986  5.92039450535054  1.11729649014901
 6 -8.51360915851585  5.96455748944895  0.23304028942894
 6 -8.52626651795179  7.16442256085609  0.80943719351935
 7 -9.12271454405441  0.50523338443844 -0.54572860656066
 6 -9.78044430413041  1.77922787588759 -0.70818714281428
 6 -11.12301139773977  1.47800613971397 -1.24670639013901
 6 -11.28607101100110  0.10991635573557 -1.32443115711571
 6 -9.98163384408441 -0.39056103040304 -0.99251426752675
 6 -12.28158698239824  2.57322789378938 -1.43949072387239
 6 -12.43674822112211 -0.73975138523852 -1.77745855435544
 6 -12.24073156155616 -0.99164157535754 -3.38612373097310
 7 -7.29035850415042 -1.35574518811881 -0.18394307130713
 6 -8.26018625842584 -2.20046521862186 -0.56343129832983
 6 -7.85873201880188 -3.61479974747475 -0.61006828412841
 6 -6.51755563966397 -3.52394673167317 -0.07365909780978
 6 -6.27369996639664 -2.18788707000700  0.15016782098210
 6 -8.57792525992599 -4.78253109550955 -0.91000947934793
 6 -5.38307277757776 -4.36354023752375  0.30561343394339
 8 -5.17013585148515 -5.54234871827183  0.31738876957696
 6 -4.24253783318332 -3.26371216101610  0.63296316161616
 6 -3.53614424532453 -3.67464268556856  1.91672204510451
 8 -3.77157875847585 -3.10754749094909  3.03595627672767
 8 -2.70035122882288 -4.81922664506451  1.68018659955996
 6 -2.04894548244824 -5.25010924002400  3.01737667316732
 6  2.77260977267727 -0.61000879547955 -1.22725392579258
 6  4.12615470447045 -0.38140631693169 -0.56636678567857
 6  5.18701218561856  0.29051531693169 -0.90998077077708
 6  5.28403682668267  1.08066071537154 -2.21003516881688
 6  6.43614794759476  0.45058690889089 -0.16020250545055
 6  7.57684522242224 -0.24460480738074 -0.90527747824782
 6  8.80516238883888 -0.07332246264626 -0.08632044484448
 6  10.17623824832483 -0.58153522522252 -0.68564953545355
 6  10.12025872607261 -2.13790472657266 -1.02075554055406
 6  11.42758563546355 -0.27203098389839  0.14357522612261
 6  12.73680858855885 -0.59061311241124 -0.62035205810581
 6  13.99858932733273 -0.17032823562356  0.24272133963396
 6  15.35960208510851 -0.20490421952195 -0.57090533033303
 6  15.76975864476448 -1.59216685048505 -1.00209982768277
 6  16.44095820172017  0.39599395939594  0.31263577077708
 6  17.83734832423242  0.50868226662666 -0.29415523012301
 6  18.81668203770377  1.35607382438244  0.63034346734673
 6  20.28966763596360  1.36825715921592  0.14263902710271
 6  20.38729008280828  2.24217251445145 -1.12223321602160
 6  21.16625755655566  2.05068800510051  1.25308067146715
 1 -3.99104058855886  3.60843636503650  1.28970355725573
 1 -10.22969336203620  3.80533136813681 -0.48664405590559
 1 -10.54817810721072 -2.42736207700770 -0.93317997019702
 1 -2.76546300320032 -1.25245355925593  1.90475116631663
 1 -2.34586819201920  1.71163474607461  1.18831948234824
 1 -1.83537799529953  1.02937339023902  3.49335304880488
 1 -3.22940800080008  2.26182023952395  3.39413157855786
 1 -3.61180462316232  0.67615229922992  3.59226163896390
 1 -2.02254473937394 -1.79847980838084 -0.08906281548155
 1 -2.23927560006001 -0.06219896949695 -0.76548658825883
 1 -0.60158367576758  0.62839745364536  0.95246564566457
 1 -0.07115491749175 -1.21241575677568  1.17215117031703
 1 -5.79044782018202  6.69101774587459  0.52261797099710
 1 -5.53157014641464  5.93447681078108  2.01326762386239
 1 -4.46367032303230  5.65770693709371  0.87367054265427
 1 -9.28638069056906  5.78922507060706 -0.52766299449945
 1 -9.22465368126813  8.13148388728873  0.54252387418742
 1 -7.95636510231023  7.18631503100310  1.67737612311231
 1 -11.82691679677968  3.37867819381938 -2.19484248894890
 1 -13.30750041924192  2.26181007220722 -1.52703389488949
 1 -12.32330406150615  3.38155681038104 -0.53940518451845
 1 -12.41743652205221 -1.63378282338234 -1.10182513741374
 1 -13.40970968986899 -0.36776351315132 -1.64624015151515
 1 -13.02847920052005 -1.68925361156116 -3.71352123662366
 1 -12.20926449064907  0.00846630903090 -3.79898339403940
 1 -11.28012429172917 -1.54334920202020 -3.58326694669467
 1 -8.61583118611861 -4.76521726462646 -2.11024428852885
 1 -7.90565993079308 -5.64846485068507 -0.53722333533353
 1 -9.49774965986599 -4.93777879917992 -0.40187200980098
 1 -3.54477517341734 -3.39635288598860 -0.25814108560856
 1 -1.62028019451945 -4.42243868356836  3.41622453775378
 1 -2.92139174777478 -5.64300591819182  3.58220105900590
 1 -1.36043415491549 -5.96919619281928  2.66232018491849
 1  2.82589189328933 -1.63466530243024 -1.64097806280628
 1  2.49080655825583  0.01142542214221 -1.99678283048305
 1  4.21772267786779 -0.88204041924192  0.41682489848985
 1  4.36657562106211  1.43302201260126 -2.74588295799580
 1  5.76591200290029  2.08623888278828 -2.28983545174517
 1  5.78020532813281  0.56902801030103 -3.25162389338934
 1  6.73924598749875  1.50259425942594  0.10834347714772
 1  6.47847196659666 -0.17178521592159  0.78594831153115
 1  7.20610799549955 -1.33437267246725 -1.28426975057506
 1  7.96369880578058  0.30965417351735 -1.75019794339434
 1  8.77145919751975  0.91329921492149  0.23206083828383
 1  8.70998948764876 -0.58898440464046  0.76962482618262
 1  10.44228177957796 -0.07523498579858 -1.69820470997100
 1  9.25958094359436 -2.42621059755976 -1.70984690949095
 1  10.99607216291629 -2.39923670757076 -1.51893613751375
 1  10.38912179817982 -2.66774871687169  0.05377593789379
 1  11.40867854875487  0.71613384358436  0.42479396689669
 1  11.36172922632263 -0.98452441374137  0.95383600520052
 1  12.88629194809481 -1.65115327652765 -0.92441010861086
 1  12.84612836533653 -0.17344665366537 -1.56094945624562
 1  14.01571300800080  0.92871542754275  0.62054939793979
 1  14.09739249234924 -0.69346895159516  1.23845036153615
 1  15.20807409590959  0.43079256425643 -1.52048640664066
 1  15.73909135203520 -2.23167345944594 -0.23850530443044
 1  15.07121017171717 -2.39393176877688 -1.84389180428043
 1  16.69319894929493 -1.64065959085909 -1.59977144664466
 1  16.01252645334533  1.46463429712971  0.74409095339534
 1  16.64270871807181 -0.12999217431743  1.15769853105310
 1  18.21758269696970 -0.48250479787979 -0.40471381178118
 1  17.99167623212321  1.05115243414341 -1.33912748854886
 1  18.35900669326933  2.36851100880088  0.89995800110011
 1  18.60259742004201  0.88395257625763  1.71045104540454
 1  20.68546345904591  0.24397054525453 -0.04306724272427
 1  20.09317342394239  3.08879244114411 -0.98294188758876
 1  21.52857710981098  2.37568422122212 -1.42284364766477
 1  19.76021992639264  1.87914972577258 -2.05536250525053
 1  21.15513148834884  1.11516962606261  1.97747736493649
 1  22.09418112441244  2.21367259695970  0.72070703700370
 1  20.49648937883789  2.78153823712371  1.64237467796780
=======
12 -7.19229980298030  0.56601534963496  0.11766945434543
 6 -4.78266288428843 -1.93602478087809  0.44455098779878
 6 -4.82611254015402  2.85540398769877  1.05618198309831
 6 -9.45752048754875  3.12983847934793 -0.32021488118812
 6 -9.58113842754275 -1.78180369136914 -0.88405483458346
 7 -5.10239366396640  0.44536435453545  0.67399781808181
 6 -4.35673537963796 -0.64257407940794  0.83214123732373
 6 -2.96468547394739 -0.36881630733073  1.23052340654065
 6 -3.11197463586359  1.03632630093009  1.69997072777278
 6 -4.43039003390339  1.52235298409841  1.23020004990499
 6 -2.99995507760776  1.27748003610361  3.15956736563656
 6 -1.99844330533053 -0.58733399479948  0.03194715301530
 6 -0.52281970457046 -0.53026737393739  0.56730085938594
 6  0.48757989518952 -0.76426993989399 -0.60362574307431
 8  0.13018425852585 -1.12494790239024 -1.73116944864486
 8  1.76510832133213 -0.51105850225022 -0.21462825172517
 7 -7.22450289818982  2.63155874567457  0.32056075157516
 6 -6.12699197819782  3.36628760456046  0.78223175677568
 6 -6.41892914601460  4.81793608300830  0.70110079727973
 6 -7.75744845184518  4.91212184368437  0.30860925222522
 6 -8.17089136073607  3.48055725102510  0.07551009730973
 6 -5.51951990869087  5.90256272217222  1.17867262776278
 6 -8.62394019161916  6.00875190889089  0.19498648404841
 6 -8.62523641494150  7.26695281388139  0.75930218001800
 7 -9.08790106270627  0.71888474957496 -0.49050308400840
 6 -9.88147440714071  1.81630158325833 -0.71411773587359
 6 -11.16669576617662  1.51941028012801 -1.02862458195820
 6 -11.17694009790979  0.15252061616162 -1.21049976397640
 6 -9.88848452915292 -0.34131610591059 -0.90410542664266
 6 -12.20871969566957  2.44244481548155 -1.30475725052505
 6 -12.42391693799380 -0.67558496859686 -1.66836764526453
 6 -12.38411589999000 -0.89087149834983 -3.23742886148615
 7 -7.27617708600860 -1.39790940454045 -0.17067174417442
 6 -8.37659789958996 -2.23126829892989 -0.51263621882188
 6 -7.86063220882088 -3.68552682018202 -0.49469674697470
 6 -6.60908479257926 -3.60871520852085 -0.14323605550555
 6 -6.24147674407441 -2.20845912721272  0.12780558475848
 6 -8.73162062946295 -4.85232807520752 -0.89229770817082
 6 -5.34071854215422 -4.38124200770077  0.17644051665167
 8 -5.13117195509551 -5.52661714511451  0.19389642034203
 6 -4.12766634603460 -3.29430522032203  0.53310317561756
 6 -3.55457608850885 -3.68583380468047  1.91974234713471
 8 -3.83848544914491 -3.09632636883688  2.93885656675668
 8 -2.69279047274727 -4.70935565796580  1.82194077497750
 6 -2.01746233413341 -5.16191042014201  3.04202913841384
 6  2.75845835753575 -0.86863465806581 -1.24970617101710
 6  4.16744883388339 -0.62492066836684 -0.58219836883688
 6  5.08711219561956  0.20050631603160 -1.14882465516552
 6  5.00967939093909  1.03431608090809 -2.45343950925092
 6  6.49125345814582  0.30593244344434 -0.35792227742774
 6  7.73246078397840 -0.24447479437944 -1.12263921442144
 6  8.99827169976998 -0.04184931533153 -0.24868668146815
 6  10.37370799529953 -0.62410948264826 -0.88748971947195
 6  10.23447014721472 -2.08446938303830 -1.22201566656666
 6  11.47623049995000 -0.27579135993599 -0.02077120852085
 6  12.91244615231523 -0.51197524862486 -0.69161918481848
 6  14.04318378677868 -0.12040324312431  0.22987005450545
 6  15.38095422032203 -0.30749447854785 -0.37444568436844
 6  15.82603427232723 -1.72378001180118 -0.88260787848785
 6  16.46742084798480  0.33257761776178  0.45647015421542
 6  17.87837242664266  0.59435083348335 -0.10026584118412
 6  18.82277264676468  1.35780399739974  0.74482491549155
 6  20.34415308450845  1.50212054555456  0.30192495569557
 6  20.55251660546055  2.33761205840584 -1.00311130383038
 6  21.15005593639364  2.15851878817882  1.38634399779978
 1 -4.10124160866087  3.46539206060606  1.58994358125813
 1 -10.18277867056706  3.96507734273427 -0.38054344584458
 1 -10.34274756415642 -2.54604394519452 -1.22572922512251
 1 -2.62441889878988 -1.15340365426543  2.03794448564856
 1 -2.28534213941394  1.66510009260926  1.22404305470547
 1 -2.06526098359836  0.88336878977898  3.51107482098210
 1 -3.01689674967497  2.39616367386739  3.55020718611861
 1 -3.86348979167917  0.74478916291629  3.60905331813181
 1 -1.97612009690969 -1.42243220362036 -0.40217412661266
 1 -2.02088376087609  0.24075132553255 -0.81186122572257
 1 -0.21446496389639  0.34270888478848  0.91228162726273
 1 -0.33615141714171 -1.13594811001100  1.42678663386339
 1 -5.77185596099610  6.89389803390339  0.71002671187119
 1 -5.44768175757576  6.02269563266327  2.29704600170017
 1 -4.48383233923392  5.61615278167817  0.96913008860886
 1 -9.74854690719072  5.88437458555856 -0.29116934513451
 1 -9.37799901580158  7.97205794469447  0.50224984678468
 1 -7.82838230403040  7.62560896039604  1.45894427992799
 1 -12.19427353245324  3.12917324332433 -2.12942594729473
 1 -13.23268293749375  1.93934782598260 -1.32308349984998
 1 -12.35944767586759  3.03612226692669 -0.46870811481148
 1 -12.57786256465647 -1.66549599469947 -1.12793774867487
 1 -13.39903862276228 -0.21300803760376 -1.19097462496250
 1 -13.20972732533253 -1.39252393859386 -3.71419130363036
 1 -12.60097366156616  0.19434489688969 -3.69419291499150
 1 -11.46745302460246 -1.52600746784679 -3.53234185418542
 1 -9.45515511851185 -4.64079482238224 -1.82924618871887
 1 -8.06971633643364 -5.74610461466147 -1.05001461446145
 1 -9.38330821572157 -5.23899892119212  0.16663484088409
 1 -3.38036873277328 -3.34990824152415 -0.18686395789579
 1 -1.67598576507651 -4.16676311601160  3.46917983328333
 1 -2.73484309290929 -5.78748036563656  3.61852469136914
 1 -1.50468858035804 -5.96868614181418  2.78779273217322
 1  2.68249755385539 -1.90920275617562 -1.53045701070107
 1  2.86214369196920 -0.19602532293229 -2.15329848204821
 1  4.52972387798780 -0.99227144234423  0.25499871587159
 1  4.00381934543454  1.18281699209921 -2.82368073777378
 1  5.27768318001800  2.17663792269227 -2.46566303450345
 1  5.55765307290729  0.75850695819582 -3.20572930393039
 1  6.52980504340434  1.32982698269827 -0.01641899909991
 1  6.29589370877088 -0.33937197459746  0.57382709940994
 1  7.48636602130213 -1.25332456765677 -1.46615793939394
 1  7.94095653155316  0.45858906700670 -1.99840276387639
 1  9.15874792639264  0.97639552455246 -0.02713508130813
 1  8.84889337803780 -0.12578808500850  0.84090195389539
 1  10.58309586098610  0.00247278497850 -1.64137902740274
 1  9.57036202170217 -2.21452942944294 -2.04182010681068
 1  11.14634719041904 -2.21658844274427 -1.70915515941594
 1  9.86255914191419 -2.75107704970497 -0.44544398409841
 1  11.20640832173217  0.78538076827683  0.20519200670067
 1  11.38669172257226 -0.98807476877688  0.97515813741374
 1  12.98495181408141 -1.60932909410941 -1.06669433703370
 1  12.99807355985599  0.11222191319132 -1.58676203750375
 1  13.93898533523352  0.94199675567557  0.74141148414842
 1  13.99862261536154 -0.72549215391539  1.13870038653865
 1  15.71190447894789  0.39388887388739 -1.23827818581858
 1  15.87507495039504 -2.46150644274427 -0.04679613351335
 1  14.98681173187319 -2.14745712131213 -1.60998841394139
 1  16.89446907630763 -1.75738126302630 -1.46468793829383
 1  16.22023722442244  1.35406324002400  0.70921746604660
 1  16.78529297649765 -0.25532470757076  1.38789155035504
 1  18.41028196689669 -0.26656320372037 -0.35003834423442
 1  17.87082414691469  0.95909322822282 -1.17244081988199
 1  18.30439123172317  2.44803896159616  0.57104510981098
 1  18.87176433673368  0.94093827482748  1.83525352565257
 1  20.59830474317432  0.45131127932793  0.03907097109711
 1  20.06445055165516  3.17826138803880 -0.95585917931793
 1  21.52035628772877  2.23112976577658 -1.45456681998200
 1  19.88895279967997  1.85220703150315 -1.98434540354035
 1  21.08145412061206  1.61227933703370  2.39060867806781
 1  22.21764347064706  1.87727895759576  1.37455242154215
 1  20.94336406630663  3.15296537983798  1.39696013651365
>>>>>>> 8e03b5b5abfc0030b3aa597dc0de36371bfbd096

