%nproc=4
%Mem=3GB
# td=(NStates=1) iop(3/107=0140000000,3/108=0140000000) CAM-B3LYP/6-31G(d,p) 

TD

0 1
12 -7.15869056075608  0.72426080958096  0.12385875587559
 6 -4.91405022152215 -1.93799102970297  0.49568497089709
 6 -4.73019905050505  2.83463218111811  1.00804090929093
 6 -9.44896166066607  3.10163771677168 -0.26090856615662
 6 -9.50896699469947 -1.61392315801580 -0.88635544044404
 7 -5.08397542874287  0.46117220782078  0.72903072707271
 6 -4.27992023932393 -0.68236938013801  0.85337323202320
 6 -2.87214343494349 -0.39456785478548  1.22382805190519
 6 -2.93661688858886  0.99777847944794  1.75946222552255
 6 -4.26934716941694  1.43830848194820  1.11523591749175
 6 -2.98525470627063  1.25779859915992  3.21105642024202
 6 -1.95941167086709 -0.66435242444244  0.06932074237424
 6 -0.49208491769177 -0.42758600660066  0.53517689999000
 6  0.42936485968597 -0.66668329022902 -0.60796058615862
 8  0.24636485328533 -1.17582135983598 -1.70415780888089
 8  1.79658825722572 -0.36791673007301 -0.26307169476948
 7 -7.15442308570857  2.62136534643464  0.45323624772477
 6 -6.03451359515952  3.36471023842384  0.74684056015602
 6 -6.37227213561356  4.73796065966597  0.86663492219222
 6 -7.71900668596860  4.85062686788679  0.39989611601160
 6 -8.18959848734874  3.51916885568557  0.15892389098910
 6 -5.37963999789979  5.81490096379638  1.00899105430543
 6 -8.53591359935993  5.99091936153615  0.19157977047705
 6 -8.46573498349835  7.22463161286129  0.63315737503750
 7 -9.16898593969397  0.72439943434343 -0.44016058995900
 6 -9.94150163646365  1.80636396069607 -0.58129094259426
 6 -11.26001995469547  1.52845228972897 -1.10254511421142
 6 -11.25600508770877  0.10837838363836 -1.26268629692969
 6 -9.95193279687969 -0.37474766816682 -0.82650485178518
 6 -12.40397133483348  2.41029627102710 -1.41569102180218
 6 -12.40397419031903 -0.67532365616562 -1.73517284788479
 6 -12.28380028892889 -1.09034922722272 -3.29290994219422
 7 -7.18865182758276 -1.23471830753075 -0.13354602970297
 6 -8.31705603190319 -2.12918146364636 -0.50207178707871
 6 -7.88022006180618 -3.47869842124212 -0.43040334013401
 6 -6.56941473197320 -3.51302428452845 -0.12733481518152
 6 -6.23960769246925 -2.14201215701570  0.11019285468547
 6 -8.68251059055906 -4.75518161656166 -0.91718510161016
 6 -5.34910037293729 -4.35250881428143  0.19558453255326
 8 -5.25333632593259 -5.54774163116312  0.17488343694369
 6 -4.27093159575958 -3.25983343074307  0.63045136673667
 6 -3.52235641244124 -3.66345428812881  1.89804577307731
 8 -3.72467525092509 -3.05355271317132  2.96613997219722
 8 -2.77345269806981 -4.78417703620362  1.75983502100210
 6 -2.17804676167617 -5.28406361226123  2.88506590699070
 6  2.72404872527253 -0.65706399529953 -1.15796931413141
 6  4.11370225542554 -0.50772604050405 -0.52105466826683
 6  5.20598608990899  0.12250877887789 -1.11798467546755
 6  5.27842156775678  0.92350002530253 -2.30461459645965
 6  6.39917619631963  0.10121073707371 -0.19640016441644
 6  7.60997244984498 -0.49806835483548 -0.89839016771677
 6  8.89857756935694 -0.30746256235624 -0.15934203660366
 6  10.19948540914091 -0.69105076827683 -0.89147486748675
 6  10.16205948254825 -2.09447732763276 -1.42866983298330
 6  11.41518618241824 -0.34718961006101 -0.09804776727673
 6  12.83238097359736 -0.44690472397240 -0.78357586268627
 6  14.01705297709771 -0.02459817411741  0.13395980758076
 6  15.41917790879088 -0.19168825242524 -0.51795744824482
 6  15.76302257325733 -1.53438182648265 -0.99058088438844
 6  16.50722771547155  0.36868338563856  0.40944567926793
 6  17.84966255395540  0.54997872747275 -0.27776430343034
 6  18.81982240084008  1.28631671017102  0.77070032673267
 6  20.24589739413942  1.50860029252925  0.35999270527053
 6  20.40782362816282  2.47133443854385 -0.90597529342934
 6  21.05860092709271  2.01921362126213  1.53222716271627
 1 -4.12291265476548  3.61983523492349  1.41971806760676
 1 -10.15359748304830  4.04653692819282 -0.51103562976298
 1 -10.23741816591659 -2.42428796389639 -1.11775959535954
 1 -2.72964025122512 -1.06145634833483  1.99453594429443
 1 -2.05665913221322  1.56322838393839  1.46425007400740
 1 -1.95218830523052  1.02962206860686  3.81506184358436
 1 -3.18306541564156  2.24028325112511  3.57652567476748
 1 -3.53654645514552  0.65641079537954  3.80627231243124
 1 -1.98332345134513 -1.71555222602260 -0.18239624672467
 1 -2.15361173017302  0.00895851565157 -0.63914064866487
 1 -0.24077950665067  0.65164475177518  0.77508137113711
 1 -0.17439585988599 -1.06513728032803  1.32733619191919
 1 -5.80182436013601  6.80038755075508  0.51581141244124
 1 -5.42612408370837  6.05987886928693  2.05488750125012
 1 -4.37050189478948  5.46942121012101  0.51602233483348
 1 -9.37186744654465  5.88249163116312 -0.63690504320432
 1 -9.10533959765977  8.18658837983798  0.16458623432343
 1 -7.60045797789779  7.59322615901590  1.51181014131413
 1 -11.94196466946695  3.34287343444344 -2.00517634913491
 1 -13.18822612031203  1.80569931233123 -2.07519324752475
 1 -12.83066409910991  2.56685401950195 -0.33080351985198
 1 -12.53121508640864 -1.58860978377838 -1.21219472037204
 1 -13.40314261336134 -0.09369207970797 -1.75533128752875
 1 -13.17431263046305 -1.55927959005901 -3.84533549164917
 1 -12.27476788248825  0.01393292199220 -3.87192617101710
 1 -11.24920976037604 -1.39098012521252 -3.47418569676968
 1 -9.19906452505250 -4.80854735553555 -1.88553461646165
 1 -7.84830921612161 -5.57507346064607 -0.91208116321632
 1 -9.47569174817482 -5.04348279667967 -0.13973624232423
 1 -3.47107462596260 -3.28190479607961 -0.12812055015502
 1 -1.41421480908091 -4.62814502790279  3.15140685828583
 1 -2.93605004230423 -5.59549907480748  3.43276431413141
 1 -1.60212073257326 -6.14623540834083  2.24200756185619
 1  2.47999605440544 -1.43619024182418 -1.56831828052805
 1  2.70237667896790 -0.10442235743574 -2.02659371687169
 1  4.22814330103010 -0.94846326012601  0.42337373757376
 1  4.17596290779078  1.20339588228823 -2.63298378407841
 1  5.79859679187919  1.92924334823482 -2.05818325672567
 1  5.63696326482648  0.35493668456846 -3.18533479037904
 1  6.57328551245125  1.03232321292129  0.13701331523152
 1  6.30753862596260 -0.49157649434943  0.78514470997100
 1  7.40943306610661 -1.41587226022602 -1.20848560576058
 1  7.74581714021402  0.05702480548055 -1.69407022992299
 1  8.83724976927693  0.73220271777178  0.07894032213221
 1  9.02925604640464 -0.85163351605161  0.87581370477048
 1  10.39286391819182  0.13512966076608 -1.89605476347635
 1  9.32625223432343 -2.28162644614461 -2.16578496039604
 1  11.08348748934893 -2.28976237553755 -2.07132249034904
 1  10.17173937103710 -2.86623073777378 -0.51206860056006
 1  11.28924056565656  0.62122855625563  0.39956772757276
 1  11.64805240074008 -0.80418171577158  1.04897121722172
 1  12.84677262976298 -1.56893431273127 -0.94460673217322
 1  12.73415924582458  0.34337927392739 -1.59251358505851
 1  13.89103052335233  1.08502386568657  0.32697752645265
 1  13.85761407200720 -0.58078445734574  1.02422479647965
 1  15.31395179657966  0.34099749674967 -1.56335760456046
 1  16.03841763856386 -2.27890723192319 -0.21188932443244
 1  14.97530917531753 -2.16473099309931 -1.68944031753175
 1  16.61881016061606 -1.59685058205821 -1.59941645494549
 1  16.32296557005700  1.28550688438844  0.73630954725473
 1  16.72650672847285 -0.25169145394539  1.31118961366137
 1  18.15359209690969 -0.38597511151115 -0.57842803840384
 1  18.09585689528953  1.08323721782178 -1.17457320092009
 1  18.32220127702770  2.22324359235924  0.87138908570857
 1  18.75575153765377  0.81851669116912  1.72858610411041
 1  20.46646647894790  0.50915191279128 -0.06929103690369
 1  19.67290410891089  3.37384816131613 -0.51740392509251
 1  21.38901270207021  2.36162730483048 -1.42654063526353
 1  19.71976037363736  2.03680397059706 -1.65686407080708
 1  20.89772362586259  1.40737637853785  2.45557922672267
 1  22.13051094389439  2.13501397209721  1.36112276587659
 1  20.65352543104311  3.18947506470647  1.64584172087209

