%nproc=4
%Mem=3GB
# td=(NStates=1) iop(3/107=0140000000,3/108=0140000000) CAM-B3LYP/6-31G(d,p) 

TD

0 1
12 -7.13963865556556  0.66599498299830  0.11866823682368
 6 -4.84709352585259 -2.01441867246725  0.47585298769877
 6 -4.79772580318032  2.77418613651365  1.11649175437544
 6 -9.41610837533753  3.15879343234323 -0.34362683798380
 6 -9.59820591859186 -1.63557532323232 -0.95983278817882
 7 -5.22032906410641  0.44217030763076  0.76270409440944
 6 -4.33849609690969 -0.73793493669367  0.84511240594059
 6 -2.91153737433743 -0.45575397339734  1.17005267436744
 6 -3.04002722962296  0.97526622822282  1.71608788808881
 6 -4.34423465816582  1.45304995609561  1.11716611051105
 6 -3.17122330313031  0.86014883418342  3.30246556115612
 6 -1.95594132383238 -0.60032602180218 -0.09206539623962
 6 -0.50601631083108 -0.52865611361136  0.47652103440344
 6  0.50748267146715 -0.62858948084808 -0.71063085318532
 8  0.27947816461646 -0.88194197189719 -1.88002539563956
 8  1.75875447384738 -0.42353229162916 -0.21606699429943
 7 -7.17350499389939  2.67548075797580  0.38152907700770
 6 -5.98955909970997  3.35770953835384  0.80011588768877
 6 -6.39364427282728  4.74798166176618  0.88862712141214
 6 -7.72410719601960  4.88004981018102  0.37371349774977
 6 -8.16727625512551  3.55514245304530  0.14986298489849
 6 -5.35865789968997  5.88628810251025  1.09694985018502
 6 -8.55431543954395  6.03417368696870  0.22054266676668
 6 -8.33133154315431  7.36776592629263  0.65197925722572
 7 -9.10415945704570  0.69969696409641 -0.48729530343034
 6 -9.82712019831983  1.84561788608861 -0.61608442194219
 6 -11.14996894959496  1.52459190369037 -1.18883374307431
 6 -11.30215970317032  0.17332487828783 -1.20291031933193
 6 -9.95980358395840 -0.31883207660766 -0.81726392769277
 6 -12.24096503420342  2.48843408480848 -1.53148260096010
 6 -12.40459425232523 -0.71675779957996 -1.70738006860686
 6 -12.29383129202920 -1.12472266456646 -3.12920357155716
 7 -7.22817577997800 -1.38331316701670 -0.09176185128513
 6 -8.31257558385839 -2.13301184668467 -0.56401798169817
 6 -7.89327136693669 -3.57555810721072 -0.57946824662466
 6 -6.55063285378538 -3.62464544664466 -0.18329041074107
 6 -6.20814454615462 -2.24177213301330  0.18152998839884
 6 -8.71583392289229 -4.74414051245124 -0.94278766186619
 6 -5.42481794469447 -4.37408097149715  0.24678965306531
 8 -5.26889788208821 -5.64193105010501  0.12054800340034
 6 -4.19398390099010 -3.41573902130213  0.60565888748875
 6 -3.55067924472447 -3.79420736343634  1.93795976447645
 8 -3.64318710211021 -3.19115647354735  3.01732509070907
 8 -2.70914626742674 -4.80965958445845  1.81166020352035
 6 -2.02121107810781 -5.15104030993099  3.02299970037004
 6  2.77573389378938 -0.57727601650165 -1.29417293449345
 6  4.09586047124712 -0.36109137703770 -0.59336189898990
 6  5.10043553485349  0.32756928492849 -1.04140701770177
 6  5.07067079267927  1.12083975927593 -2.35615975097510
 6  6.43442972167217  0.50171078707871 -0.30226075047505
 6  7.67335878847885 -0.28462701070107 -0.90259058775878
 6  8.88381609320932 -0.11113292939294 -0.06792289468947
 6  10.13949941054105 -0.65545720892089 -0.76517223722372
 6  10.05668894549455 -2.15807368726873 -1.08271523752375
 6  11.41908657245724 -0.12407729882988 -0.04923288578858
 6  12.73329106460646 -0.56678671217122 -0.74517202230223
 6  14.04435570737074 -0.14894060836084  0.16472288388839
 6  15.33970996199620 -0.26760584418442 -0.48664431693169
 6  15.66646291729173 -1.70231862016202 -0.77862968926893
 6  16.51105809850985  0.38492500980098  0.41361609630963
 6  17.94464205190519  0.47218094769477 -0.13076960396040
 6  18.84234465306530  1.47446552505251  0.68674193089309
 6  20.26764956935694  1.45211464396440  0.19096580258026
 6  20.46469931573157  2.17841514661466 -1.08802349824982
 6  21.14438950595060  1.97278897879788  1.24609854985499
 1 -4.07642800630063  3.30275352675268  1.55965206100610
 1 -10.16162828612861  3.92140441494149 -0.73513804000400
 1 -10.17207163126313 -2.22979851495149 -1.54108192759276
 1 -2.56604389158916 -1.16361656435644  1.88628511921192
 1 -2.25383885018502  1.59665172627263  1.47126077507751
 1 -2.09548263466347  0.62623172957296  3.86984732213221
 1 -3.05029213831383  1.86010523332333  3.83590161236124
 1 -3.94558735923592  0.18382353665367  3.55042672787279
 1 -2.18614373337334 -1.54034470527053 -0.54839284638464
 1 -2.06787315631563 -0.01892427262726 -0.93191992659266
 1 -0.06632206090609  0.30588017531753  1.05221908490849
 1 -0.11344976527653 -1.48398916551655  1.12173563186319
 1 -5.69647382508251  6.63495100710071  0.36167599889989
 1 -5.56084755605560  6.33305618701870  2.17513952645265
 1 -4.31614645924593  5.48540280828083  0.85459619221922
 1 -9.32813307310731  6.02644602660266 -0.63705505820582
 1 -9.11850091379138  8.18766848784878  0.47895767146715
 1 -7.55919385148515  7.64087092349235  1.51822078237824
 1 -11.80064053705371  3.17961710881088 -2.30242607410741
 1 -12.95407270497050  2.16477521992199 -2.10878660686069
 1 -12.57253828652865  2.93865119921992 -0.62326276577658
 1 -12.57893985888589 -1.61514243704370 -1.13731723262326
 1 -13.33502580168017  0.01321861136114 -1.58984473887389
 1 -13.15384058325833 -2.11212487458746 -3.22311326942694
 1 -12.65185559125912 -0.25549402070207 -3.78620759915992
 1 -11.26533137253725 -1.46223725092509 -3.20146842504250
 1 -9.14299891849185 -4.62792929372937 -2.06459252225222
 1 -8.13538792399240 -5.91895784908491 -0.88915887098710
 1 -9.65618979797980 -4.82821126952695 -0.44439670837084
 1 -3.14828234673467 -3.66857346294629 -0.09976771487149
 1 -1.81679506710671 -4.17869008240824  3.59338105570557
 1 -2.75238167546755 -5.57423694859486  3.50627166486649
 1 -1.30251077157716 -5.94757554235423  2.88533189428943
 1  2.59880793559356 -1.42362898569857 -1.81629307800780
 1  2.63272971427143  0.34097218201820 -2.03216427392739
 1  4.25557604430443 -1.12561097489749  0.27347874807481
 1  4.31055636713671  1.02994853755376 -2.87775826152615
 1  5.26842377457746  2.20156057995800 -2.12620005840584
 1  5.86632620112011  0.57829902080208 -2.95811206810681
 1  6.81840002390239  1.52583256385639 -0.00495088118812
 1  6.22855072717272  0.00569323262326  0.67201339683968
 1  7.43469559235924 -1.27200787378738 -0.96691144834483
 1  7.74840739923992  0.02471157415742 -1.99255007790779
 1  9.07277332163216  1.12797229472947 -0.12263983588359
 1  8.56983010381038 -0.45596394909491  0.94726084948495
 1  10.29436406820682 -0.15572942514251 -1.85245040304030
 1  9.26217582668267 -2.40599888338834 -1.87312569446945
 1  10.92167130773077 -2.50541394069407 -1.65478083618362
 1  10.12085428252825 -2.75738985368537 -0.23575096879688
 1  11.31032267386739  0.77063349674967  0.05250302110211
 1  11.35169276477648 -0.48529982758276  1.04493081318132
 1  12.74824277677768 -1.68256567586759 -0.83112538403840
 1  12.94720054995499  0.04122905890589 -1.79160349404941
 1  13.81389280958096  0.94202956625663  0.54424925362536
 1  13.88423673427343 -0.62538891779178  1.18137051105111
 1  15.22044244564457  0.16251964896490 -1.35727699649965
 1  15.86089988678868 -2.14628396959696  0.21799366386639
 1  15.03947559195920 -2.45194971497150 -1.32315368886889
 1  16.61277955755575 -1.78647954495450 -1.15529204250425
 1  16.07477075057506  1.61495982968297  0.81674759105911
 1  16.57956203400340 -0.12361864666467  1.35535403010301
 1  18.55474221192119 -0.46211272527253 -0.12065226082608
 1  17.79931724132413  0.79302819691969 -1.14240998459846
 1  18.19942899979998  2.37041830983098  0.83342528932893
 1  18.92362832533253  0.91497633713371  1.83194644014401
 1  20.54595442774277  0.18426942454245  0.04208010021002
 1  20.19186600510051  3.19157993449345 -0.91656384108411
 1  21.50560436123612  2.07195833793379 -1.33285126632663
 1  19.65604400200020  1.72558284848485 -1.75626401080108
 1  20.98238209170917  1.61426706760676  2.29247291609161
 1  22.34595248804880  1.87551802250225  1.23565021862186
 1  20.81812189068907  2.99668578577858  1.30422755945595

