%nproc=4
%Mem=3GB
# td=(NStates=1) iop(3/107=0140000000,3/108=0140000000) CAM-B3LYP/6-31G(d,p) 

TD

0 1
12 -7.16209090079008  0.65894427792779 -0.00380401040104
 6 -4.78849766626663 -1.96217344794479  0.45904130653065
 6 -4.81807783838384  2.92336105400540  1.10530063526353
 6 -9.50364712921292  3.12044959795980 -0.23143561886189
 6 -9.57287338533853 -1.66672843854385 -0.83767057195720
 7 -5.08812584378438  0.41479757035704  0.68679650365036
 6 -4.31665391269127 -0.76565770897090  0.71508940364036
 6 -2.83241946254625 -0.31011940994099  1.20437610671067
 6 -2.98728195509551  1.16770547214721  1.58284456375638
 6 -4.31588182288229  1.59375402650265  0.95553994789479
 6 -2.98870505130513  1.19519233853385  3.12439775437544
 6 -1.85408113781378 -0.52512850205021 -0.01644783448345
 6 -0.45058076727673 -0.54393764176418  0.57434081638164
 6  0.54715663886389 -0.99314593649365 -0.48988877897790
 8  0.18060827762776 -1.45199897759776 -1.66689408250825
 8  1.82197079547955 -0.63564350275028 -0.27078246584658
 7 -7.11275891929193  2.67571078097810  0.32654357845785
 6 -6.02427257105711  3.40080384778478  0.78563443954395
 6 -6.33409831823182  4.88739560316032  0.68634689338934
 6 -7.64465925122512  4.94973677887789  0.32042816921692
 6 -8.09773930143014  3.50326726552655  0.09045704430443
 6 -5.40179221312131  5.92525199889989  1.29862001720172
 6 -8.70366037403740  6.06161643124312  0.14093470597060
 6 -8.55364377437744  7.25816496619662  0.82160621992199
 7 -9.18144718581858  0.69924691909191 -0.58099467336734
 6 -9.84936242254225  1.83141646594659 -0.63880669416942
 6 -11.29334328702870  1.52141158565857 -1.10922578227823
 6 -11.34026351355135  0.20509805560556 -1.21164119241924
 6 -9.94891249484948 -0.35036522992299 -0.89753195449545
 6 -12.32339327702770  2.54883012441244 -1.23009246194619
 6 -12.46867065996600 -0.74323044684468 -1.61580091069107
 6 -12.29126103500350 -1.19325951825183 -3.12228287948795
 7 -7.22941590399040 -1.44102893859386 -0.12095477057706
 6 -8.28364269056906 -2.22937148264827 -0.49453103300330
 6 -7.93194523432343 -3.57660821222122 -0.52547284708471
 6 -6.59363715421542 -3.53342632473247 -0.15012709440944
 6 -6.16656038773877 -2.19443739953995  0.12874470987099
 6 -8.76075841534153 -4.80040613901390 -0.74445782888289
 6 -5.37168263116312 -4.30240380378038  0.16430140424042
 8 -5.22562355465547 -5.54015087208721  0.13547949654966
 6 -4.18768327092709 -3.38288573597360  0.47798612021202
 6 -3.54784896169617 -3.65782372507251  1.74978094659466
 8 -3.78091087448745 -3.04039139703970  2.80941429962996
 8 -2.78055340814081 -4.74448306680668  1.69233827132713
 6 -2.09016797379738 -5.23774898079808  2.85820322072207
 6  2.89370569096910 -0.94723301220122 -1.24510802800280
 6  4.05822670787079 -0.53582885078508 -0.44029659245925
 6  5.10838632993299  0.23427995599560 -0.90991386838684
 6  4.99440316591659  1.04325200050005 -2.28226236123612
 6  6.45454173287329  0.32587320332033 -0.16294681908191
 6  7.59784123672367 -0.24758330633063 -0.94575490419042
 6  8.89608732033203 -0.10050186628663 -0.14990109250925
 6  10.16288174877488 -0.40307197039704 -0.85546126612661
 6  10.11889516611661 -1.83639151905190 -1.37415438143814
 6  11.47716238003800 -0.15847073817382  0.01963400090009
 6  12.83973170867087 -0.34867490099010 -0.67810531563156
 6  14.06150742254225 -0.05997171147115  0.28443485508551
 6  15.36096208720872 -0.23463254685469 -0.43361901440144
 6  15.76367263826383 -1.72858124642464 -0.77384921122112
 6  16.47704469716972  0.42554907220722  0.43094782948295
 6  17.90875846354636  0.56581031063106 -0.16945347234723
 6  18.85274569316931  1.35167324582458  0.69733298999900
 6  20.27792059645965  1.34072350485049  0.20667737373737
 6  20.46264911071107  2.23881118621862 -1.03871856775678
 6  21.14763983098310  1.81409310921092  1.31195513551355
 1 -4.08201856535654  3.70691394279428  1.65416151195120
 1 -10.17208933223322  3.88147042154215 -0.42243676987699
 1 -10.34190861496150 -2.52344787988799 -1.27587540694069
 1 -2.43374066126613 -0.73279348204820  1.99305579627963
 1 -2.26318978527853  1.72290435153515  1.19759340834083
 1 -2.06474956135614  0.66833593999400  3.34487482488249
 1 -2.81646875597560  2.29740896369637  3.67933595579558
 1 -3.77984078457846  0.54140929522952  3.46578826402640
 1 -1.94694981398140 -1.53912458325833 -0.30079808690869
 1 -2.08600496949695  0.14866248604860 -0.76433316791679
 1 -0.14815024372437  0.21462104940494  1.13972783578358
 1 -0.39166758705871 -1.13988475507551  1.52363582188219
 1 -5.79266344404440  6.90886839883988  1.07795762706271
 1 -5.54113558485849  6.24674755615562  2.22599461196120
 1 -4.39199404400440  5.90181444944494  0.96807754035404
 1 -9.43549380918092  5.87152053405341 -0.67225857855785
 1 -9.34823388708871  7.99068878987899  0.69421919761976
 1 -7.60001793389339  7.31439827622762  1.51267022732273
 1 -12.07990846384638  3.19838898599860 -1.95545137663766
 1 -13.42596989468947  2.13366210861086 -1.61407713591359
 1 -12.50284131683168  3.31197853195320 -0.56335677517752
 1 -12.43707567246725 -1.58783970677068 -1.03541704260426
 1 -13.45659795889589 -0.41727443794379 -1.52218797319732
 1 -13.00033523272327 -1.87068073017302 -3.27916887498750
 1 -12.34707511321132 -0.42586105740574 -3.78909788818882
 1 -11.38626346574658 -1.47028805600560 -3.38182646084608
 1 -9.33334795339534 -4.73141964276428 -1.71530759375938
 1 -7.96592097729773 -5.65436138943894 -0.76320627572757
 1 -9.63688786778678 -5.01976042444244 -0.16716898559856
 1 -3.48095561406141 -3.63843044864486 -0.32132987108711
 1 -1.45898928652865 -4.49691190459046  3.41430314791479
 1 -3.00030646794680 -5.39615914081408  3.59188022572257
 1 -1.68283880438044 -6.29901068586859  2.49359272037204
 1  2.96069412421242 -2.01196781958196 -1.30470191889189
 1  2.56814325562556 -0.53336525172517 -2.01851290879088
 1  4.08854934163416 -1.18887730153015  0.50533193339334
 1  4.25807111861186  0.92575811851185 -2.70993147884788
 1  5.18342527472747  2.11498192209221 -1.85293273167317
 1  5.78403797229723  0.81615280618062 -3.13713997089709
 1  6.61078926282628  1.32905288588859  0.26064567846785
 1  6.28145601770177 -0.29049638633863  0.84386058155816
 1  7.42599472227223 -1.28766943994399 -1.15016977417742
 1  7.36707926642664  0.25393449644965 -1.88706952985299
 1  8.87113315761576  1.05817531503150  0.13453588168817
 1  8.80739386018602 -0.52011036373637  0.77431355475548
 1  10.35892052385239  0.25182132993299 -1.64103926192619
 1  9.30001961106111 -2.11459974347435 -1.84209259115912
 1  10.92546168676868 -2.01866526582658 -2.02209756785679
 1  10.20114231133113 -2.39375349004900 -0.64080147384738
 1  11.46003764536453  0.85636206960696  0.33775154595460
 1  11.58088568406841 -0.84273557115712  0.97689400950095
 1  12.89746769926993 -1.48826624592459 -0.89103137463746
 1  12.79942577247725  0.22928786478648 -1.57527186088609
 1  14.04826624692469  1.02871823512351  0.87294212291229
 1  14.08369668026803 -0.78253463236324  0.96346872087209
 1  15.23148354975498  0.32066546354635 -1.35336660546055
 1  15.94117791459146 -2.36017535873587  0.23107497199720
 1  15.22508415281528 -2.20910543054305 -1.42061343484348
 1  16.85727400700070 -1.64173507050705 -1.21459797309731
 1  16.23268654215422  1.55313364706471  0.60229614591459
 1  16.38655273307331 -0.07327361216122  1.42439093379338
 1  18.33525026272627 -0.36390290429043 -0.41147134273427
 1  17.73334064366437  1.08090698479848 -1.23869961356136
 1  18.55814487138714  2.35805707370737  0.62151409820982
 1  18.92701866436644  0.92189702920292  1.66254950045005
 1  20.45153498579858  0.30982197979798 -0.18824293209321
 1  20.12953977247725  3.30920169666967 -0.59174135883588
 1  21.54109791059106  2.27184832693269 -1.33974195539554
 1  19.96731512911291  2.00600089028903 -2.07967635203520
 1  21.10155400890089  1.07669331023102  2.08604227302730
 1  22.24996288908891  2.09121959265927  1.07067372097210
 1  20.74910498899890  2.75697181438144  1.73913104980498

