%nproc=4
%Mem=2GB
# td=(NStates=1) CAM-B3LYP/6-31G(d,p) 

TD

0 1
12 -7.14964553755375  0.60631938003800  0.08560624802480
 6 -4.81357597559756 -1.94348552695270  0.50688722142214
 6 -4.86943687258726  2.76597504480448  1.14547091199120
 6 -9.34779951545154  3.15307080258026 -0.41576443614361
 6 -9.55145545924593 -1.74220973197320 -0.87555398449845
 7 -5.12297572217222  0.43552337043704  0.64240465876588
 6 -4.31922162826283 -0.61338116011601  0.75911393459346
 6 -2.85818482388239 -0.32311173687369  1.20640099429943
 6 -2.98028146654665  1.04496716501650  1.55690642134213
 6 -4.40364735963596  1.52054280308031  1.11922895279528
 6 -2.86516159825983  1.20690297839784  3.12281369026903
 6 -1.89999346034603 -0.73793905530553  0.06543050135014
 6 -0.44006142874287 -0.71056540374037  0.51123525282528
 6  0.57457859505951 -0.81356486938694 -0.61778715921592
 8  0.27523876397640 -1.02657806540654 -1.72317864956496
 8  1.75802761326133 -0.66726412281228 -0.10181697059706
 7 -7.11952240014001  2.58846443624362  0.33089178467847
 6 -6.08454773377338  3.26683765956596  0.70819435303530
 6 -6.40481773487349  4.69430371977198  0.63808449564957
 6 -7.74545725272527  4.92101273277328  0.29444783608361
 6 -8.08961323292329  3.49325852115212  0.01011355765577
 6 -5.44155211191119  5.83453591949195  1.02666742724272
 6 -8.56114391199120  6.06481751545155  0.08780576597660
 6 -8.30812470377038  7.35421153975398  0.71706795659566
 7 -9.08783105570557  0.70097295839584 -0.48525255895590
 6 -9.83495975567557  1.82944289738974 -0.60584690879088
 6 -11.17123622022202  1.48954729382938 -0.93065478497850
 6 -11.25067747164716  0.12013737783778 -1.16685539953995
 6 -9.88758443914391 -0.37688966326633 -0.87546256235624
 6 -12.32796161986199  2.42333290429043 -1.45289206400640
 6 -12.46979152545255 -0.73888129822982 -1.57278808730873
 6 -12.52807029542954 -1.09785219641964 -3.04403952255226
 7 -7.19932940124012 -1.35854546814681 -0.18743342034203
 6 -8.27424766456646 -2.20105527762776 -0.45132008720872
 6 -7.84257040264026 -3.60575884338434 -0.42962023932393
 6 -6.52663654775478 -3.57205154215422 -0.03017474937494
 6 -6.10403299969997 -2.19279756105611  0.07637044124412
 6 -8.71736920432043 -4.87179002140214 -0.76621509990999
 6 -5.37804227452745 -4.30828471197120  0.20171304390439
 8 -5.20773961186119 -5.54454893829383  0.30411744244424
 6 -4.19232281168117 -3.29219500930093  0.53678354365437
 6 -3.50878150905091 -3.63631885318532  1.82577295019502
 8 -3.67951955255526 -3.16467320352035  2.90041272237224
 8 -2.65628682238224 -4.71009573197320  1.61249983088309
 6 -2.20473106100610 -5.24155838493849  2.86986192169217
 6  2.80294280598060 -0.71948974357436 -1.18724992539254
 6  4.12924501350135 -0.48881705800580 -0.58390853985399
 6  5.09613309770977  0.42890915631563 -0.84340411311131
 6  5.00648907190719  1.27590023932393 -2.17341150645064
 6  6.36042037483748  0.44742659285929 -0.11743822902290
 6  7.59536707460746 -0.21164151105110 -1.01477842834283
 6  8.84248612121212 -0.14696982738274 -0.25762757555756
 6  10.21039166366637 -0.50138721042104 -0.83605457595760
 6  10.11550825102510 -1.89525046114611 -1.41994545954595
 6  11.45038791569157 -0.24517829862986 -0.00118925032503
 6  12.81949685738574 -0.59446349744974 -0.66123614651465
 6  13.93396286468647 -0.15049625242524  0.17392445994599
 6  15.32551867676768 -0.13436716581658 -0.50879911971197
 6  15.74868653755376 -1.59648728252825 -0.95037465516552
 6  16.43804791069107  0.54892925292529  0.40043455065507
 6  17.80607519691969  0.65863726212621 -0.25020083468347
 6  18.76520689018902  1.21432964996500  0.80926135913591
 6  20.24940360956095  1.27418775227523  0.39384414761476
 6  20.36949830363036  2.17979627682768 -0.97303829652965
 6  21.07192812361236  1.91380431673167  1.36048141154115
 1 -4.29768125262526  3.70697621902190  1.68115270217022
 1 -10.14881527422742  3.86696753175318 -0.56191158265827
 1 -10.23947723712371 -2.40941028182818 -1.36683333553355
 1 -2.65403186008601 -0.88057637153715  2.13762445364536
 1 -2.17770137533753  1.64625820842084  1.20643129352935
 1 -1.91914637213721  0.69631008390839  3.44411812531253
 1 -2.82331739173917  2.22661671917192  3.24659682508251
 1 -3.70003344604460  0.55311999599960  3.56695910871087
 1 -2.23460594549455 -1.46983694409441 -0.63181709090909
 1 -1.91363303580358  0.31245849624962 -0.69240928052805
 1 -0.26740025742574  0.22939755365537  1.10916131523152
 1 -0.25606340834083 -1.52352686788679  1.25414937013701
 1 -5.95216399179918  6.65391403550355  0.44266997619762
 1 -5.37943493289329  6.01215457855786  2.10607690479048
 1 -4.36017997399740  5.58192935933593  0.65163833943394
 1 -9.32341439393939  5.97081322942294 -0.63849407760776
 1 -8.94054527042704  8.24263500240024  0.36945656745675
 1 -7.63175264106411  7.38480487998800  1.44015240074007
 1 -11.86796090119012  3.19602992899290 -2.33491649634963
 1 -13.04675434463446  1.87218110931093 -1.81947313881388
 1 -12.71181291239124  3.14090274497450 -0.68895013901390
 1 -12.54787956635664 -1.71200064516452 -0.87527248214821
 1 -13.31461017991799 -0.03730046684668 -1.51464699219922
 1 -13.52990934353435 -1.47381206740674 -3.30659054355436
 1 -12.36614017821782 -0.19555409300930 -3.60606410211021
 1 -11.86340261956196 -1.83357822492249 -3.34138275827583
 1 -9.16333593659366 -4.85282602550255 -1.76580984508451
 1 -7.86363572837284 -5.63288329252925 -0.75391500450045
 1 -9.48911879677968 -5.22062708400840 -0.07480930353035
 1 -3.51561225712571 -3.42804605530553 -0.33011828332833
 1 -1.59302746924692 -4.40016645634563  3.38923183848385
 1 -2.95945555415542 -5.71077269486949  3.58787162606261
 1 -1.32042015351535 -6.05223449664966  2.69426337923792
 1  2.70383968806881 -1.83635547144714 -1.44959892489249
 1  2.39272675027503 -0.01522724312431 -1.93137628982898
 1  4.46507741334133 -1.13059527472747  0.28806202220222
 1  3.75776473997400  1.71247995839584 -2.35054342404240
 1  5.30375578727873  2.30041029992999 -2.14005047324732
 1  5.48850615821582  0.87073818131813 -3.06767549854986
 1  6.72545460836084  1.56946094609461  0.16794943774377
 1  6.19507362676268 -0.06645468286829  0.79869958665867
 1  7.30034741944194 -1.20506974217422 -1.38719004260426
 1  7.45727816371637  0.35501870997100 -1.99570249384939
 1  8.80620267186718  0.92258014301430  0.03576120832083
 1  8.81377986668667 -0.63344885108511  0.66641450515051
 1  10.27379493089309  0.35587812551255 -1.75681057055706
 1  9.31175616111611 -1.98288626512651 -1.95661158595860
 1  11.01055361106111 -1.97739452335233 -1.97037128102810
 1  10.27545043104310 -2.54574651665166 -0.58385782548255
 1  11.46041372227223  1.02765499569957  0.22968445594559
 1  11.28910196359636 -0.72658862016202  0.84648527012701
 1  12.85602892179218 -1.68845700690069 -0.77384505210521
 1  12.88726247874787 -0.23571288028803 -1.77812117341734
 1  13.60284172087209  0.97663021902190  0.49410675367537
 1  13.91032378547855 -0.69689929462946  1.16808332483248
 1  15.25628891739174  0.64285377037704 -1.34590894889489
 1  15.68093553645365 -2.28343863596360 -0.05696715061506
 1  14.82508555925592 -2.01411378697870 -1.63395081018102
 1  16.67374700410041 -1.66255178007801 -1.57843931343134
 1  16.07406260696069  1.62059989368937  0.57786433073307
 1  16.39433388058806 -0.06314548964897  1.28526128732873
 1  18.16031697039704 -0.33948049544954 -0.46028936933693
 1  18.02353941844185  1.08352567146715 -1.29339291509151
 1  18.45040583318332  2.32224638233823  1.17449545484549
 1  18.59807696799680  0.69549373037304  1.74750475077508
 1  20.52882779547955  0.32142829102910  0.15383244724472
 1  19.88017212381238  3.15902946484648 -0.64404799819982
 1  21.36041029312931  2.40132678547855 -1.19949131243124
 1  19.89437334173417  1.82908471927193 -1.95314228322832
 1  20.99353532873287  1.41622973207321  2.39832945014501
 1  22.11222292859286  1.64451568126813  1.20411537783778
 1  21.04324405430543  2.93922400570057  1.54873531403140

