%nproc=4
%Mem=2GB
# td=(NStates=1) CAM-B3LYP/6-31G(d,p) 

TD

0 1
12 -7.07784835783578  0.52841158925893  0.01918960636064
 6 -4.85697031503150 -2.01571274967497  0.55749228192819
 6 -4.82137206610661  2.79049749704970  1.21914827972797
 6 -9.39838457395740  3.05589108460846 -0.37044990469047
 6 -9.48632894659466 -1.71110662166217 -1.01571800090009
 7 -5.08054147874788  0.30849066716672  0.81868228652865
 6 -4.28243794989499 -0.74616443844384  0.84436245944594
 6 -2.87768677407741 -0.37874730043004  1.26196655085509
 6 -2.99518295669567  1.12056472477248  1.72225295599560
 6 -4.31636863176318  1.49505025382538  1.22210924082408
 6 -2.95179026112611  1.22696498459846  3.29445085398540
 6 -1.95480894189419 -0.49815507690769  0.05184914321432
 6 -0.51860928352835 -0.45002935013501  0.49349347864786
 6  0.51089222642264 -0.64796830973097 -0.58311369186919
 8  0.25492673277328 -0.90908631623162 -1.74236056775678
 8  1.79234104460446 -0.46139353575358 -0.25664245314531
 7 -7.05072552045205  2.61498708850885  0.30626932243224
 6 -6.07129640864086  3.35211618741874  0.74539807340734
 6 -6.39693694679468  4.74501879127913  0.86255694289429
 6 -7.67130983798380  4.85287591909191  0.32827121842184
 6 -8.16647091869187  3.49337853315332  0.03271581788179
 6 -5.53977193389339  5.93789625552555  1.27608236873687
 6 -8.54369216681668  6.04830586428643  0.10814780018002
 6 -8.50958484978498  7.19363548214822  0.78883513331333
 7 -9.14718699129913  0.60118297939794 -0.56363039673967
 6 -9.88339459915992  1.78335828892889 -0.64254057815782
 6 -11.21081017761776  1.54268260736074 -1.06807852735274
 6 -11.23849625352535  0.12875823992399 -1.28521723572357
 6 -9.88491417211721 -0.36012798709871 -0.93998901500150
 6 -12.27517634133413  2.46692726372637 -1.50261703650365
 6 -12.27994254055405 -0.80748815891589 -1.78787959645965
 6 -12.25168265666567 -1.00250266146615 -3.27395251385139
 7 -7.22818228652865 -1.44984459805981 -0.15037971497150
 6 -8.24224446424643 -2.28274344644464 -0.59141409660966
 6 -7.75629177477748 -3.64692295979598 -0.46095337263726
 6 -6.50323420752075 -3.55220955795580 -0.12420415231523
 6 -6.19138173457346 -2.19549783108311  0.14017682188219
 6 -8.56920438783878 -4.88074091649165 -0.75098357675768
 6 -5.33451792209221 -4.33324720822082  0.22684555715572
 8 -5.18887772567257 -5.56542102550255  0.12270930163016
 6 -4.11641522092209 -3.33396918671867  0.56877674297430
 6 -3.55633626452645 -3.71927714901490  1.90721109400940
 8 -3.77045864646465 -3.05488222442244  2.91750443154315
 8 -2.74696589028903 -4.76025074747475  1.86381496239624
 6 -2.19338992689269 -5.16475070417042  3.11298623412341
 6  2.84851736343634 -0.55579337393739 -1.18830003040304
 6  4.10065215421542 -0.22989116541654 -0.55601575057506
 6  5.14107759215922  0.52551881728173 -1.03001277397740
 6  4.93827225022502  1.19347199649965 -2.33867803310331
 6  6.49485381818182  0.54448629882988 -0.19386587178718
 6  7.58428596649665 -0.14509485638564 -1.04876182668267
 6  8.82781465406541 -0.17238236863686 -0.25208702150215
 6  10.18428905340534 -0.63121019271927 -1.03540451095109
 6  9.96362306250625 -2.23436437253725 -1.32403586858686
 6  11.36457933483348 -0.31593537433743 -0.11372050345035
 6  12.80545545324532 -0.50695474657466 -0.75564558745875
 6  13.92086155455545 -0.18667987078708  0.26650371787179
 6  15.37432355725573 -0.23860758985899 -0.36840508030803
 6  15.75331700060006 -1.74080171397140 -0.68737835553555
 6  16.41707581348135  0.48614297429743  0.46426093329333
 6  17.81709629902990  0.48938033643364 -0.13226904150415
 6  18.81083145264526  1.29701791879188  0.70972140514051
 6  20.23023169236924  1.40601093459346  0.16753151635164
 6  20.38156951075107  2.04843314051405 -1.11283227592759
 6  21.05827675847585  2.05461839813981  1.26566192959296
 1 -4.01093257775778  3.53398892029203  1.36280086698670
 1 -10.18661905460546  3.75167600260026 -0.39816520802080
 1 -10.14883817321732 -2.41450079087909 -1.16243289548955
 1 -2.69428588548855 -1.12787110101010  2.02388307950795
 1 -2.29949355455546  1.80703428602860  1.24389503990399
 1 -1.80336479397940  1.03260371327133  3.58626233973397
 1 -3.08322338233823  2.37694175167517  3.47431959735974
 1 -3.48623206590659  0.49801448544854  3.99809222202220
 1 -2.05347783268327 -1.66296625702570 -0.19193310251025
 1 -1.93754542704270  0.25297254765477 -0.72317235683568
 1 -0.15468898629863  0.36631124502450  1.10633103220322
 1 -0.55849365136514 -1.31999651485149  1.24700865606561
 1 -5.88488726412641  6.83776242034203  0.79778548774878
 1 -5.74349133853385  6.05018838193819  2.41725802290229
 1 -4.63288724472447  5.64303546994699  0.95076825242524
 1 -9.24071612411241  6.01738788688869 -0.77185741394139
 1 -9.01567278317832  8.05993673257326  0.52277189898990
 1 -7.54695416121612  7.35121152065206  1.62593097859786
 1 -12.26621072617262  2.74403472947295 -2.80372337703770
 1 -13.11107077627763  1.92463635483548 -1.38938012951295
 1 -12.19379111021102  3.27165582028203 -0.73698494249425
 1 -12.20042482088209 -1.73668311341134 -1.52328728362836
 1 -13.24823354225423 -0.41165790259026 -1.66670219771977
 1 -13.35267161976198 -1.53594828102810 -3.45473535803580
 1 -12.21183474767477 -0.22966750435043 -4.02663615931593
 1 -11.25989226852685 -1.48920378747875 -3.63497211721172
 1 -9.19101870487049 -4.61890263316332 -1.64682794689469
 1 -7.85517488228823 -5.73273327752775 -0.82483209620962
 1 -9.34561444634464 -4.93185820712071 -0.06154797739774
 1 -3.21905260116012 -3.49338258895890 -0.06174144564456
 1 -1.76126429292929 -4.28262470217022  3.48367128242824
 1 -2.87872748134813 -5.50102171977198  3.66186902580258
 1 -1.79086719821982 -6.10446972017202  3.08880283318332
 1  2.67178648274827 -1.56989882578258 -1.58756272127213
 1  2.45877335493549  0.08057233683368 -2.08188134033403
 1  4.19424032963296 -0.67470968616862  0.33345656165617
 1  3.74558352185219  1.50326903730373 -2.38574694439444
 1  5.72788820052005  2.19388964786479 -2.14338080628063
 1  5.32212952055205  0.69734084158416 -3.20896962796280
 1  6.72374443734373  1.62812681268127  0.12752539533953
 1  6.16712083148315  0.07013897649765  0.76700641734173
 1  7.03458084278428 -1.10430966616662 -1.33574489808981
 1  7.68661109700970  0.37798100620062 -1.98514143774377
 1  9.02583463506351  0.89427731273127  0.09258689088909
 1  8.74152264096410 -0.54173968016802  0.75460332403240
 1  10.18109566096610 -0.07588505080508 -2.05120000950095
 1  8.93767875337534 -2.15395337183718 -1.71480740554055
 1  10.93170572627263 -2.55796258015802 -1.92615685958596
 1  9.65898878487849 -2.69067100910091 -0.34328376807681
 1  11.38916659755976  0.61603383358336  0.13585507300730
 1  11.35851890529053 -0.70015597689769  0.83916453805381
 1  12.61431475037504 -1.61799996119612 -1.15549321692169
 1  12.91752550505050  0.19973066406641 -1.60286364766477
 1  13.69999143584358  0.92686524252425  0.61003834683468
 1  13.70956370947095 -0.84030363506351  1.17984450095009
 1  15.16835012351235  0.10368985398540 -1.51901625962596
 1  15.75746318921892 -2.27810810291029  0.14653319941994
 1  14.90535358605861 -2.18722109770977 -1.35857327242724
 1  16.79927955735574 -1.75732125702570 -0.98457992749275
 1  16.00898609930993  1.50503833753375  0.48527507180718
 1  16.46952139933993 -0.10741991709171  1.49011177237724
 1  18.08283922262226 -0.63503005040504 -0.27493083348335
 1  17.74425148964897  0.76724404330433 -1.10910448624863
 1  18.22582337493749  2.10999515721572  0.93922192749275
 1  18.94323148344835  0.84641882288229  1.67980798109811
 1  20.39064397709771  0.48723487168717  0.01776884088409
 1  20.29252335893589  3.32868643054305 -0.97985157855786
 1  21.49337358945895  1.93642029482948 -1.55308667196720
 1  19.42253615801580  1.86643845464546 -1.88975594459446
 1  21.19517549274928  1.44308241734173  2.20719033623362
 1  22.10514222052205  2.11444267396740  0.58323328962896
 1  20.85921565146515  3.07688777207721  1.51053149364937

