%nproc=4
%Mem=3GB
# td=(NStates=1) iop(3/107=0140000000,3/108=0140000000) CAM-B3LYP/6-31G(d,p) 

TD

0 1
12 -7.06931162286229  0.61118950245025  0.03273964396440
 6 -4.87930674717472 -1.93181041164116  0.48539394179418
 6 -4.79227525812581  2.81980069796980  1.14822492769277
 6 -9.40855762026203  3.13214076707671 -0.38032050735073
 6 -9.58601469946995 -1.75817758345835 -1.01365817071707
 7 -5.04742177337734  0.41702779337934  0.70884870887089
 6 -4.34301654895490 -0.69379052225223  0.79429732443244
 6 -2.91674789538954 -0.42040043804380  1.29582525162516
 6 -2.98709193609361  1.16401510311031  1.79305558485849
 6 -4.31623185788579  1.52884753585359  1.01634602850285
 6 -3.10689687048705  1.30735355465547  3.31496681128113
 6 -1.96414214391439 -0.54598058725873  0.14336814711471
 6 -0.58927463666367 -0.48964221222122  0.52388577087709
 6  0.41710363356336 -0.66134275617562 -0.65122491259126
 8  0.14118433523352 -1.01035481318132 -1.74896228932893
 8  1.69643824222422 -0.51389132753275 -0.19675506310631
 7 -7.10076772017202  2.57275048494849  0.42309323342334
 6 -6.00999114291429  3.39823359075908  0.79195507160716
 6 -6.42774768316832  4.77039390299030  0.90511877057706
 6 -7.70037482278228  4.83665547074707  0.39740586698670
 6 -8.15773530103010  3.52845978477848  0.17096509510951
 6 -5.60995302920292  5.85078455215522  1.46596675187519
 6 -8.48102811081108  6.05532580218022  0.14308492099210
 6 -8.38485689568957  7.25587473717372  0.77347140644064
 7 -9.05074411551155  0.68177517191719 -0.44711128502850
 6 -9.76319380568057  1.84687801210121 -0.64197701120112
 6 -11.09153310601060  1.58538798329833 -1.23032789248925
 6 -11.20505999319932  0.23190073587359 -1.40554058235824
 6 -9.91321892549255 -0.39137933133313 -0.95630783208321
 6 -12.20574151185119  2.55732097349735 -1.44504395709571
 6 -12.32849664256426 -0.60513663746375 -1.87294662526253
 6 -12.17404931383138 -1.17196738903890 -3.31650230143014
 7 -7.23221618401840 -1.33898873457346 -0.19386206130613
 6 -8.32438676497650 -2.25645419091909 -0.64951653155316
 6 -7.78330036983698 -3.57902845424542 -0.67040734053405
 6 -6.53606139663966 -3.52316529862986 -0.13877595929593
 6 -6.17402113381338 -2.08623657945795  0.02615445084508
 6 -8.48794113361336 -4.80105620402040 -0.91704508760876
 6 -5.41123658655866 -4.37491105450545  0.29775474957496
 8 -5.27452844514451 -5.57243410041004  0.21166711531153
 6 -4.20977548014802 -3.32535998339834  0.57587590919092
 6 -3.56085026182618 -3.68682662536254  1.95026099459946
 8 -3.71931471487149 -2.98826618451845  2.96715007320732
 8 -2.77794314711471 -4.80653927242724  1.83532256975698
 6 -2.28435739273927 -5.32166737263726  3.06631403180318
 6  2.70138645904590 -0.77358564746475 -1.23329684688469
 6  4.02616350155015 -0.55230049794979 -0.46725928872887
 6  5.05566105740574  0.15991251925193 -1.00356323332333
 6  5.12951667726773  0.86313398869887 -2.32656679167917
 6  6.30609688838884  0.30503111911191 -0.16378690309031
 6  7.54513596619662 -0.30428897689769 -0.91983231193119
 6  8.87644535613561 -0.26879869596960 -0.05167126952695
 6  10.18845430603060 -0.66627829102910 -0.77882360236024
 6  10.22454573117312 -2.18339621952195 -1.19985695169517
 6  11.52161682548255 -0.38191308240824  0.02877491499150
 6  12.74817255275528 -0.43305333883388 -0.71029853495350
 6  14.01186245804580 -0.03591930623062  0.15135154675468
 6  15.42683867486749 -0.19096818041804 -0.53433908640864
 6  15.71127739873988 -1.57419580788079 -1.03139496579658
 6  16.40608760146015  0.44302081938194  0.32245698039804
 6  17.78248583628363  0.60744447404740 -0.27140366736674
 6  18.80167058565856  1.28807688618862  0.73391664836484
 6  20.29388219261926  1.41435086758676  0.19741644764476
 6  20.43313615941594  2.31993929902990 -1.11116581248125
 6  21.13365843284328  2.12485418531853  1.27125106510651
 1 -4.07036740024002  3.55300855225523  1.72139823562356
 1 -10.09848197149715  3.86309858435844 -0.39336386258626
 1 -10.26976140024003 -2.53997953305330 -1.24218203760376
 1 -2.58222550975098 -0.99817001970197  2.03464995569557
 1 -2.22432589888989  1.60178223932393  1.37303095209521
 1 -2.26113920032003  1.01213031943194  3.82312264966497
 1 -3.21046815591559  2.44595381818182  3.60698872107211
 1 -3.96789959045905  0.72714786908691  3.76727841304130
 1 -2.17068218721872 -1.52779345014501 -0.15534354145415
 1 -2.15768213721372  0.18309592939294 -0.61001773637364
 1 -0.17034246294629  0.47706729402940  0.83188705170517
 1 -0.29785820612061 -1.11385215181518  1.23246670497050
 1 -5.87825200290029  6.55334284628463  0.85721555285529
 1 -5.76652812411241  6.04547742914291  2.59164117661766
 1 -4.50624546914691  5.67173144114411  1.47523825642564
 1 -9.31033129292929  6.14404778677868 -0.71619297199720
 1 -8.84294335803580  8.12086180718072  0.35711548724872
 1 -7.81967990009001  7.47454429082908  1.63073203350335
 1 -11.96162663566357  3.07975712281228 -2.41802763426343
 1 -13.03705100280028  1.92147088948895 -1.71605733393339
 1 -12.21925295799580  3.31534886898690 -0.62844328382838
 1 -12.44463642854285 -1.50264118691869 -1.13458695959596
 1 -13.17766006510651 -0.04807751825183 -1.79397515191519
 1 -12.80040523972397 -2.01876553865387 -3.50352131023102
 1 -12.41062146784678 -0.42709118041804 -4.05044402280228
 1 -11.36267110651065 -1.80179120632063 -3.50051833003300
 1 -9.16210082868287 -4.69309581038104 -1.91696775977598
 1 -7.86102048724872 -5.73299925322532 -0.71858181328133
 1 -9.41543572257226 -4.88956740514051 -0.20894316301630
 1 -3.53131064956496 -3.55174177977798 -0.32299003710371
 1 -1.58203159075908 -4.60940315371537  3.54425614321432
 1 -2.98839527682768 -5.54079360426043  3.67558859655966
 1 -1.55999652015201 -6.24014479927993  2.93771713281328
 1  2.78277633243324 -1.80636725952595 -1.68623007170717
 1  2.61744818611861  0.01077916271627 -1.86910796829683
 1  3.86887737443744 -1.06422483628363  0.53847524772477
 1  3.99241455295530  0.76283182588259 -2.76605709140914
 1  5.36613354555455  2.06910733463346 -2.25039247764777
 1  6.00079964846485  0.54495568646865 -3.17951420832083
 1  6.47573575747575  1.33005298589859  0.16775638953895
 1  6.17301517361736 -0.06471380808081  0.79251544704470
 1  7.39218134093409 -1.15813648664867 -1.03422818001800
 1  7.75087764626463  0.16054515751575 -1.73466428932893
 1  9.05476152045205  0.70342984048405  0.51424385248525
 1  8.77360048084809 -0.85176352905291  0.96295241864186
 1  10.27903253505351  0.10961710951095 -1.65282044004400
 1  9.17490709980998 -2.19572785628563 -1.76240462236224
 1  11.11310045064507 -2.36109950925092 -1.75379073717372
 1  10.34690688778878 -2.80446456115611 -0.31980937463746
 1  11.24351599319932  0.56255268866887  0.54150192099210
 1  11.52506010151015 -1.02809410701070  0.75330165026503
 1  12.73386133863387 -1.39575699499950 -1.29072134363436
 1  12.80093592349235  0.05817075307531 -1.86706103980398
 1  13.92661408170817  0.92981834513451  0.63142797149715
 1  13.97040535113511 -0.92957933683368  0.85715808980898
 1  15.60787118851885  0.50928432543254 -1.42644391319132
 1  15.62747654445445 -2.21094043524352  0.02184404890489
 1  14.93582522692269 -2.11957647764777 -1.62118349184918
 1  16.76270455005501 -1.70024092109211 -1.26802331563156
 1  16.07759103260326  1.41332966666667  0.64286020232023
 1  16.70515459325933 -0.07317360216022  1.15489398409841
 1  18.33129986768677 -0.35165167916792 -0.51066126172617
 1  17.90075738533853  1.10113900800080 -1.19633537713771
 1  18.58866792369237  2.21923319131913  1.22725467226723
 1  18.89719568206821  0.62812765226523  1.53079632513251
 1  20.75530536283629  0.31492248984899 -0.15744985278528
 1  20.25875269376938  3.31024180068007 -0.96335852055205
 1  21.52716651745175  2.19652079417942 -1.42726070727073
 1  19.80162856045605  1.93075336553655 -1.95028341274127
 1  21.12882673617362  1.69154479537954  2.35761943074307
 1  22.20670856365636  1.88028849954996  0.77310396399640
 1  20.70196027452745  3.18044416161616  1.60045718241824

