%nproc=4
%Mem=2GB
# td=(NStates=1) CAM-B3LYP/6-31G(d,p) 

TD

0 1
<<<<<<< HEAD
12 -7.10194076707671  0.63939268736874  0.04460214761476
 6 -4.82214683268327 -2.01831300970097  0.65716224892489
 6 -4.69953988288829  2.94774322162216  1.09008537343734
 6 -9.36742147764776  3.10025552105211 -0.35330819051905
 6 -9.66812712641264 -1.72617812881288 -0.79002543164316
 7 -5.08242166676668  0.44160397849785  0.71892231053105
 6 -4.31623132923292 -0.72733255525553  0.94356237943794
 6 -2.88950795619562 -0.47367679337934  1.21035138933893
 6 -3.03357679607961  1.01698436673667  1.65920665136514
 6 -4.40597759265927  1.52335308410841  1.13325035493549
 6 -3.09496457855786  1.23125541364136  3.20404181308131
 6 -2.03592705370537 -0.67658291969197 -0.05602164386439
 6 -0.50527795039504 -0.63779812701270  0.44914904420442
 6  0.47325846304630 -0.77180069296930 -0.73681906240624
 8  0.22723396349635 -1.13155856345635 -1.84827115881588
 8  1.67576938743874 -0.37250464686469 -0.32882967186719
 7 -7.04525497339734  2.61986757655766  0.34985368086809
 6 -5.97149642864286  3.32967394319432  0.78941247484748
 6 -6.37356460956096  4.75295958535854  0.80607129432943
 6 -7.64837754475448  4.84872550405040  0.31084947624762
 6 -8.13298757035704  3.53039223452345  0.03411595789579
 6 -5.38691664836484  5.82970543644364  1.35432019251925
 6 -8.46404420202020  6.06896793049305  0.12012899829983
 6 -8.43018690999100  7.17821393999400  0.88178442824282
 7 -9.14653692629263  0.63227608870887 -0.56464049774978
 6 -9.81227748744874  1.83798375147515 -0.74826115021502
 6 -11.16663576017602  1.40407874697470 -1.16082780228023
 6 -11.24939734363436  0.10424578867887 -1.33998271227123
 6 -9.90199588028803 -0.44923689798980 -0.93405842194219
 6 -12.16282510621062  2.38446901790179 -1.61649842464246
 6 -12.34722926922692 -0.71584899499950 -1.75084589308931
 6 -12.23182067046705 -0.87583999519952 -3.28328344694469
 7 -7.17616708500850 -1.37716733033303 -0.11101577857786
 6 -8.32316255605561 -2.20476564866487 -0.46528148334834
 6 -7.87853399899990 -3.68408667616762 -0.44198147544754
 6 -6.50186407050705 -3.60201453845385  0.03465173327333
 6 -6.25940853725373 -2.19327760906091  0.21345414961496
 6 -8.77942540994099 -4.85291813421342 -0.89043752215222
 6 -5.31592606290629 -4.37201108460846  0.23189606220622
 8 -5.19984882278228 -5.54947943134313  0.21569860056006
 6 -4.23626720612061 -3.38347413721372  0.64844470977098
 6 -3.63185381628163 -3.70393561486149  1.95701607450745
 8 -3.85704730533053 -3.11009774597460  3.02541522262226
 8 -2.79796098979898 -4.74928965136514  1.84339292019202
 6 -2.20942153005301 -5.04105833493349  3.15712064756476
 6  2.75787829952995 -0.53558135273527 -1.25433663406341
 6  4.09393148214822 -0.47074525082508 -0.58040818981898
 6  5.07208069246925  0.37264352975298 -1.08516828952895
 6  5.09754817781778  1.17342999229923 -2.31442560786079
 6  6.34366869966997  0.42631448164816 -0.20667715291529
 6  7.62106964486449 -0.14386473337334 -0.83244019451945
 6  8.98383025562556 -0.18795392579258 -0.05255706850685
 6  10.18478910341034 -0.52410948264826 -0.87493846434643
 6  10.10007670787079 -2.02814375047505 -1.36700016501650
 6  11.50884376127613 -0.33010679147915 -0.01259039043904
 6  12.82606751445145 -0.49686373747375 -0.75141516441644
 6  14.03050251865186 -0.12364356715672  0.21013808130813
 6  15.35299142404240 -0.18854258335834 -0.42640087988799
 6  15.64139580848085 -1.58155578937894 -0.98069768746875
 6  16.46447055295529  0.30921528152815  0.38291279847985
 6  17.88158274767477  0.52835423382338 -0.30293610821082
 6  18.82642301180118  1.25400361736174  0.77930836383638
 6  20.23999266846685  1.41832216571657  0.20212497569757
 6  20.22168352215222  2.37360565776578 -1.04515550825083
 6  21.22141307210721  2.04397733403340  1.31834719811981
 1 -3.95587707220722  3.61721724312431  1.35161974887489
 1 -10.38079847254726  3.88626946194619 -0.48415380688069
 1 -10.32691598099810 -2.50381972277228 -0.92463911611161
 1 -2.35408186508651 -1.12189050295030  2.04921561276128
 1 -2.25394900010001  1.51519510211021  1.09154980538054
 1 -2.24050850835083  0.52504295719572  3.41559527302730
 1 -3.03590865086509  2.24443850135013  3.31442360776078
 1 -3.86579002170217  0.72393707770777  3.83527594039404
 1 -2.42901538643864 -1.57686764716472 -0.63025693489349
 1 -2.32003367586759 -0.05495824542454 -0.93741378097810
 1 -0.38660217761776  0.45146976087609  0.92232263136314
 1 -0.50812861486149 -1.36843135833583  1.19124307950795
 1 -5.71872064746475  6.89964860896090  0.99698540774077
 1 -5.46304329372937  5.95296865996600  2.31503780088009
 1 -4.29250320632063  5.59241040744074  0.93716689228923
 1 -9.24406645914592  5.83046919501950 -0.55545577377738
 1 -8.98478969486949  8.05391613051305  0.55835545734574
 1 -7.62468193399340  7.26456285578558  1.75658404390439
 1 -11.79651375647565  3.19008933493349 -2.35981898659866
 1 -13.15304497369737  1.81279517071707 -1.88225941744174
 1 -12.35463719481948  2.90664931963196 -0.68940018401840
 1 -12.60219499789979 -1.77242668776878 -1.27680263516352
 1 -13.20398911781178 -0.11026776357636 -1.75360088758876
 1 -13.31938829142914 -1.12540722692269 -3.88600848534853
 1 -11.78499206340634  0.01403686608661 -3.90169366506651
 1 -11.50330660996100 -1.74743961106111 -3.44428304830483
 1 -8.90117972097210 -4.69256999989999 -1.98739200330033
 1 -8.08970833563356 -5.69565957015701 -1.11792140514051
 1 -9.72139202410241 -5.04731975327533 -0.08552037463746
 1 -3.27083777967797 -3.63759701040104 -0.05608087958796
 1 -1.59711787828783 -4.17508394809481  3.66330924622462
 1 -3.16112572117212 -5.34210582818282  3.75960879977998
 1 -1.68618673017302 -5.89442871607161  2.93561751465146
 1  2.88209751385139 -1.63792562846285 -1.74940890589059
 1  2.79375685328533  0.22215649524953 -2.10703385558556
 1  4.09426033163316 -0.93197541274127  0.46246946294629
 1  4.12074103760376  0.97296600700070 -3.08721709140914
 1  5.29547495919592  2.27584784368437 -1.82648911711171
 1  6.27373468106811  0.71370247774778 -2.85599433043304
 1  6.42279434233423  1.40952495249525  0.14996763956396
 1  6.13635775517552 -0.08071610901090  0.90845056175618
 1  7.32588997369737 -1.34795403060306 -1.22886421002100
 1  7.87782021792179  0.22468567666767 -1.85361828542854
 1  9.20849290089009  0.83289117411741  0.39501713391339
 1  8.77099558825883 -0.69588509470947  0.94277214091409
 1  10.31436898829883  0.27345988368837 -1.55378026752675
 1  9.21896688218822 -2.34407238373837 -1.99853577837784
 1  11.06091864756476 -2.42525930983098 -1.85945018891889
 1  9.96796968296830 -2.66344828682868 -0.23458289798980
 1  11.52478015891589  0.66686891709171  0.30347183468347
 1  11.42208526192619 -0.91631759305931  0.98882950455045
 1  12.96960027892789 -1.50552871407141 -0.87678534613461
 1  12.86155990849085 -0.01206051505151 -1.79897325862586
 1  13.71286272297230  0.84009656565657  0.60552789578958
 1  14.09991274437444 -0.68717832253225  1.03166968346835
 1  15.39727301580158  0.53426291129113 -1.14190854885489
 1  15.64715215811581 -1.96776706880688  0.07520606670667
 1  14.95772882358236 -1.93449582518252 -1.46121353645365
 1  16.55747537693770 -1.73633915881588 -1.50252172167217
 1  16.45059025972597  1.34760259395940  0.94106065036504
 1  16.74723917111711 -0.37696687178718  1.21459422062206
 1  18.41010194889489 -0.44428097549755 -0.47263060346035
 1  17.81418848334834  1.14877219611961 -1.32551612741274
 1  18.35341613421342  2.14488864656466  1.16252425772577
 1  19.05548270857086  0.79137331833183  1.75384538483848
 1  20.56817172987299  0.44326047424743 -0.27636057205721
 1  19.77377148374837  3.37891145304530 -0.52990658405841
 1  21.37954220632063  2.53834048684868 -1.50074143744374
 1  19.41949585398540  1.98024983578358 -1.70682765176518
 1  21.12639861506151  1.28861697079708  2.21715133233323
 1  22.26406811311131  2.21752298199820  1.12823779007901
 1  20.94271400130013  2.99520960426043  1.60807124762476
=======
12 -7.15090566356636  0.61527027512751  0.10563825122512
 6 -4.81696631463146 -1.91645282368237  0.41358789148915
 6 -4.78737866676668  2.85531397869787  1.09325569046905
 6 -9.40301503700370  3.15038053355336 -0.50878373807381
 6 -9.45967628132813 -1.68652416341634 -0.87617404650465
 7 -5.07699112371237  0.48999881798180  0.78379879817982
 6 -4.34272397849785 -0.63165298729873  0.80256828002800
 6 -2.99661866726673 -0.39911933763376  1.34417477167717
 6 -3.00269370777078  1.14680734903490  1.73446417711771
 6 -4.42336933183318  1.49108985778578  1.20875790569057
 6 -2.83002808490849  1.28959124722472  3.23701511041104
 6 -1.96812027302730 -0.76816207760776  0.20462442074207
 6 -0.48198562116212 -0.53758810601060  0.74166829612961
 6  0.51285242244224 -0.78444195709571 -0.47555293579358
 8  0.23918515861586 -1.15844125172517 -1.49162549424942
 8  1.80270208070807 -0.49320671707171 -0.03254004290429
 7 -7.01502195009501  2.52709829962996  0.32698139363936
 6 -5.98419769876988  3.43789476527653  0.72445597919792
 6 -6.37508476157616  4.71105539493949  0.71493218041804
 6 -7.70768347534753  4.79592022352235  0.35258364966497
 6 -8.14722899449945  3.43706290159016  0.13826637293729
 6 -5.41455941264126  5.98924139003900  1.06406116661666
 6 -8.61849964756476  5.98351938563856  0.21460844624462
 6 -8.54363825512551  7.10781690029003  0.88352460226023
 7 -9.16485875847585  0.66883974507451 -0.53054708840884
 6 -9.83084934463446  1.74785473857386 -0.71668799289929
 6 -11.19295839243924  1.50804914401440 -1.31448316781678
 6 -11.26284868876888  0.08149351345134 -1.35891460546055
 6 -9.93584926562656 -0.39897187148715 -0.92910792689269
 6 -12.29234805850585  2.44559513051305 -1.56514328912891
 6 -12.38531307760776 -0.86181359145915 -1.77756856535654
 6 -12.27560504890489 -1.18149056025603 -3.27974309290929
 7 -7.27617708600860 -1.38316793039304 -0.23867854485449
 6 -8.29851009080908 -2.26837200930093 -0.58036299149915
 6 -7.84478062366237 -3.64235250275028 -0.48346562386239
 6 -6.57461134523452 -3.56584092109211 -0.14444617651765
 6 -6.28198079447945 -2.16534481578158  0.11838464266427
 6 -8.64913238063806 -4.88630147254726 -0.82118059645965
 6 -5.36263073337334 -4.39281316481648  0.12564543714371
 8 -5.07909674757476 -5.56891137453745  0.22024905560556
 6 -4.17649122852285 -3.25190097989799  0.48558842414241
 6 -3.55172580348035 -3.58566378767877  1.87389776267627
 8 -3.81454305490549 -3.10109684588459  2.87081976307631
 8 -2.61903309700970 -4.57256197859786  1.75927450835083
 6 -2.01635222312231 -5.14063829292929  2.95941087658766
 6  2.77278979067907 -0.70581837643764 -1.08922012241224
 6  4.14388647764776 -0.42920109640964 -0.43821397039704
 6  5.11231471587159  0.38380464586459 -0.81828160086009
 6  5.00521894489449  1.19721237053705 -2.05231939723972
 6  6.38912324512451  0.43356520672067 -0.08629511471147
 6  7.63663120102010  0.04026367946795 -0.96110306080608
 6  8.90122199479948  0.09156402600260 -0.09328114091409
 6  10.24009463396339 -0.48764583628363 -0.89170014051405
 6  10.12886958715871 -1.85133606970697 -1.60078354335434
 6  11.43004588148815 -0.24927870867087  0.02430329892989
 6  12.75228013571357 -0.44566861796180 -0.58599862276228
 6  13.91412088048805 -0.10740194299430  0.17893496099610
 6  15.23728985388539 -0.20552428152815 -0.62084032383238
 6  15.65028669756976 -1.67722535633563 -0.90364998269827
 6  16.47589169506951  0.38212257225723  0.36391089828983
 6  17.74484907430743  0.61543294169417 -0.32150796539654
 6  18.77281765126513  1.20031824882488  0.70804123712371
 6  20.21017968716871  1.32475280878088  0.13351811501150
 6  20.39879123292329  2.04281257845785 -1.16100709340934
 6  21.21103203400340  1.80117305360536  1.26647201060106
 1 -4.00363184768477  3.62351787318732  1.19030361726173
 1 -10.09122951565156  4.10718155315532 -0.57729312081208
 1 -10.16624991439144 -2.53396273707371 -1.12670932313231
 1 -2.75328178507851 -1.07611592549255  2.22680337153715
 1 -2.34197780298030  1.73812739533953  0.98608925932593
 1 -1.79483394089409  1.08745919881988  3.49874358785879
 1 -3.31811687168717  2.39626368386839  3.51857402280228
 1 -3.37789123182318  0.64855953995400  3.69860227302730
 1 -2.19350183508351 -1.71176113651365 -0.22276618581858
 1 -2.14631630413041 -0.01532428202820 -0.64066410601060
 1 -0.27187070447045  0.44132874677468  1.01988238733873
 1 -0.26248405040504 -1.26291080628063  1.57506146134613
 1 -5.62699147454746  6.90060870497050  0.34377008620862
 1 -5.49553654305431  6.46089945304530  2.14854115121512
 1 -4.22846680268027  5.66153732013201  1.12042521812181
 1 -9.42951500400040  6.08909505760576 -0.36029625782578
 1 -9.26324754065407  7.93287402630263  0.93221284308431
 1 -7.83256272207221  7.31676807630763  1.65982436793679
 1 -12.06781088618862  3.12553287928793 -2.57295029972997
 1 -13.28767843704370  1.84404829602960 -1.91624281578158
 1 -12.65656738783878  3.23423207790779 -0.76716796079608
 1 -12.31038581698170 -1.76407585268527 -1.08960391529153
 1 -13.34595331423142 -0.34445118191819 -1.66011153865387
 1 -13.18030438303830 -1.76181086728673 -3.53591347584759
 1 -12.17212077627763 -0.31593613121312 -3.91160465616562
 1 -11.47369364866487 -1.99221408850885 -3.47002562256226
 1 -8.90407001000100 -4.90512125502550 -2.00860412451245
 1 -8.09533889868987 -5.68738874307431 -0.43920353335333
 1 -9.70794067896790 -4.98636365766577 -0.29571139373937
 1 -3.40322101800180 -3.34766801750175 -0.26519179067907
 1 -1.86479464596460 -4.16668310801080  3.63932684798480
 1 -2.78072768136814 -5.80193181078108  3.36030886978698
 1 -1.13010112161216 -5.64758403160316  2.67796174907491
 1  2.58252755685569 -1.64816665256526 -1.44344830983098
 1  2.77376485408541 -0.02613833423342 -1.89918307050705
 1  4.29152005760576 -1.13718593379338  0.22763597959796
 1  4.04896385988599  1.11642035243524 -2.51197956765677
 1  5.28179359105911  2.18852911181118 -1.85093156135614
 1  5.52096940454045  0.57472858035804 -2.91746047704770
 1  6.51500356325633  1.47161116111611  0.30575321812181
 1  6.40657477687769 -0.23403144054405  0.78561827852785
 1  7.61164854955496 -0.98428766396640 -1.34871619521952
 1  7.77153958985899  0.54208741684168 -1.92023494709471
 1  9.02012406400640  1.23238112311231  0.28733636583658
 1  8.74537302600260 -0.67561306750675  0.82217008070807
 1  10.34917246864686  0.18173071077108 -1.68368325782578
 1  9.27426241174117 -1.98997697419742 -2.39436536133613
 1  11.07930048574858 -2.35663244714471 -1.75357960186019
 1  9.73747663366337 -2.66609855185519 -0.80112955265527
 1  11.32143982488249  0.93057528772877  0.31051253875388
 1  11.43605665906591 -1.14402036333633  0.92572319391939
 1  13.01762508140814 -1.45393355455546 -0.75064273187319
 1  12.66672042454245  0.15956664766477 -1.57236059735974
 1  13.60326176287629  0.92855541154115  0.52276961996200
 1  14.29966271937194 -0.71800140484048  0.93273979047905
 1  15.47172046054605  0.28667815281528 -1.64830918891889
 1  15.71944938783878 -2.33275356745675  0.00975952205221
 1  14.88779182988299 -2.08578095369537 -1.63993140824082
 1  16.82891252065207 -1.78577410231023 -1.35041651115112
 1  16.20954615531553  1.17964579827983  0.81014755905591
 1  16.65771021822182 -0.35580475557556  1.44476723792379
 1  18.11200213891389 -0.45682222962296 -0.73980732113211
 1  17.62226929142914  1.15691301020102 -1.25573914971497
 1  18.26384717731773  2.01561571927193  0.91872987828783
 1  18.88115527582758  0.71768594959496  1.73471347164716
 1  20.42921783448345  0.33214936313631 -0.03534647064706
 1  19.97782188878888  2.99880344224422 -0.99088268166817
 1  21.49840409250925  2.15718237103710 -1.51868323162316
 1  19.78531243564357  1.72293410421042 -1.89640660966097
 1  21.13181915711571  1.08081619071907  2.17055667286729
 1  22.24466617291729  1.69933116281628  1.16709167546755
 1  20.91477120702070  2.74844492779278  1.77435787628763
>>>>>>> 8e03b5b5abfc0030b3aa597dc0de36371bfbd096

