%nproc=4
%Mem=2GB
# td=(NStates=1) CAM-B3LYP/6-31G(d,p) 

TD

0 1
12 -7.15952652565256  0.59348809690969  0.04493218061806
 6 -4.83379799779978 -1.94672585098510  0.54311084378438
 6 -4.88151808070807  2.94830327762776  1.12984934983498
 6 -9.35472020752075  3.05549104460446 -0.46641950165017
 6 -9.49124943864386 -1.71402691369137 -0.91064749384939
 7 -5.10364378897890  0.46983680178018  0.74042446074607
 6 -4.31498120422042 -0.78172799479948  0.85422344554455
 6 -2.93171217661766 -0.36812623832383  1.30668102230223
 6 -3.10280371877188  1.19010167846785  1.70425115581558
 6 -4.46936393129313  1.50794154295430  1.13617064696470
 6 -2.93883896599660  1.44180646874687  3.29284069296930
 6 -1.97000046104610 -0.60929619101910  0.09062302060206
 6 -0.46164358695870 -0.48399274647465  0.55187931723172
 6  0.48772991019102 -0.79021253415342 -0.62173755425543
 8  0.18713995409541 -1.20432584018402 -1.71597792949295
 8  1.71404321482148 -0.47261465786579 -0.22112890179018
 7 -7.01899234713471  2.68708429822982  0.22469116461646
 6 -6.12522180118012  3.41716269206921  0.84830836443644
 6 -6.56901415451545  4.83060735013501  0.92403309050905
 6 -7.83786649364936  4.88357898939894  0.44191258255826
 6 -8.10505477707771  3.45063425872587  0.01820436673667
 6 -5.60699865656566  5.97833029892989  1.29411417191719
 6 -8.72349014661466  6.08132916661666  0.22694968036804
 6 -8.52817670897090  7.18521464006401  0.92191844164416
 7 -9.04581685428543  0.63265612671267 -0.39858389208921
 6 -9.78230449014901  1.75099505260526 -0.74669099319932
 6 -11.14844394099410  1.40345868496850 -1.18420013951395
 6 -11.20686309020902  0.05372073617362 -1.20195890989099
 6 -9.85573125382538 -0.43902587688769 -0.78162317841784
 6 -12.32944176787679  2.39570014101410 -1.52104887968797
 6 -12.35184973127313 -0.85743315341534 -1.63193400190019
 6 -12.23104059245925 -1.18961137233723 -3.10430554915492
 7 -7.21062053035304 -1.38823843744374 -0.15997067406741
 6 -8.21313155295530 -2.16312148424842 -0.52862781798180
 6 -7.81718786438644 -3.59256752425243 -0.54290156745675
 6 -6.43987787188719 -3.54848918591859 -0.14561629352935
 6 -6.08074067046705 -2.15587386868687  0.11599440364036
 6 -8.59073654105410 -4.80147298969897 -0.84488296669667
 6 -5.23314778507851 -4.39465334883488  0.20509338193819
 8 -5.07612645054505 -5.58422290569057  0.13267029772977
 6 -4.11735531493149 -3.30879666946695  0.62502236753675
 6 -3.53593422432243 -3.63701892319232  1.90585095799580
 8 -3.78630023062306 -3.04440117631763  2.96078875997600
 8 -2.70591178487849 -4.68934365676568  1.74863344424442
 6 -2.15939652755276 -5.12870709980998  3.06833176867687
 6  2.72988550025002 -0.63952174677468 -1.21984318471847
 6  4.13148523752375 -0.35895407170717 -0.65231538053805
 6  5.10264374877488  0.35559182458246 -1.14879465216522
 6  4.97453587658766  1.03151580088009 -2.48023218851885
 6  6.43495782858286  0.50615246544654 -0.44304078927893
 6  7.65140267816782 -0.12362270917092 -1.23199014951495
 6  8.93026489908991  0.06140100970097 -0.44381619441944
 6  10.15379600410041 -0.51653872557256 -1.08102907340734
 6  10.12147884808481 -1.94913584968497 -1.36307977297730
 6  11.48188106500650 -0.10291407220722 -0.19327845924592
 6  12.90194510221022 -0.54096814791479 -0.66665668856886
 6  14.03675314371437 -0.02182338513851  0.13389045654565
 6  15.41863798869887 -0.30310403950395 -0.44953319311931
 6  15.60896256515652 -1.79035666946695 -0.69252887058706
 6  16.46137024292429  0.32302666266627  0.49325383258326
 6  17.75901049044904  0.45040643904390 -0.18485430003000
 6  18.81484185368537  1.13995221222122  0.82262269526953
 6  20.29651832103210  1.27261759525953  0.37633239643964
 6  20.47250860466047  2.06963526072607 -0.96443743644364
 6  21.02734366516652  2.00389332563256  1.49549491289129
 1 -4.08598008250825  3.53684920632063  1.52644723162316
 1 -10.15328572127213  3.70735157015702 -0.78938432993299
 1 -10.17446073547355 -2.62869221002100 -1.11335798799880
 1 -2.50309676657666 -1.05735404930493  1.96586727792779
 1 -2.42042564776478  1.83737732033203  1.06568721912191
 1 -2.12536699419942  0.73095354825483  3.73001671517152
 1 -3.06741180118012  2.40555461296130  3.35363752915291
 1 -3.76187963066307  0.80790547454745  3.93131554435444
 1 -2.12580506540654 -1.56041600200020 -0.25417932713271
 1 -2.30697236973697  0.10818806920692 -0.70500053965397
 1 -0.21969548694869  0.37797241114111  1.13731413051305
 1 -0.29794759675968 -1.25949046424642  1.20996495169517
 1 -5.75995477087709  6.92810145424542  0.72989869906991
 1 -5.84453144254425  6.21503486658666  2.49671596869687
 1 -4.59910386638664  5.59960112651265  1.41556473207321
 1 -9.44962701520152  5.96874302240224 -0.78834906310631
 1 -9.18590980688069  8.15120585948595  0.80538015981598
 1 -8.00719018481848  7.23352975247525  1.68823720922092
 1 -12.10850495559556  2.60854118011801 -2.66725973067307
 1 -13.23954362356235  1.94784867606761 -1.42611380288029
 1 -12.06536826792679  3.55916457115712 -0.94764600860086
 1 -12.31385616401640 -1.78566801190119 -1.01364631953195
 1 -13.34823354225423 -0.33042977977798 -1.47671319881988
 1 -13.06376272887289 -1.81915660186019 -3.56628651315132
 1 -12.00479404360436 -0.26181071867187 -3.74878837453745
 1 -11.33856013531353 -1.87683255035504 -3.41517013701370
 1 -8.70212981598160 -4.80395113801380 -1.90163342744274
 1 -8.05568493329333 -5.74873487768777 -0.69231884488449
 1 -9.58937882278228 -4.84065908720872 -0.40695251785179
 1 -3.25590628652865 -3.34672792349235 -0.18248351985199
 1 -1.63324149064907 -4.30066650635063  3.62474538983898
 1 -2.84240384898490 -5.64165578317832  3.62486532543254
 1 -1.47279539103910 -5.95526479967997  2.66175012791279
 1  2.73794309840984 -1.72980481638164 -1.62029599459946
 1  2.58937641524152 -0.16773249364936 -2.00041319351935
 1  4.15681658725873 -0.95292750795080  0.41873508950895
 1  4.14184314781478  0.75705441584158 -3.02408077777778
 1  5.20066547824782  2.18098835773577 -2.39312578077808
 1  5.64148145574557  0.67508861636164 -3.03137186818682
 1  6.43040510341034  1.66777077707771 -0.48443580078008
 1  6.50103422282228 -0.21698973637364  0.51545126182618
 1  7.46850423512351 -1.15567480268027 -1.40354167776778
 1  7.75837827372737  0.23186639473947 -2.25533845744574
 1  9.32775482708271  0.98698658365837 -0.19824219201920
 1  8.92412090079008 -0.30088559475948  0.67417528122812
 1  10.35645319671967  0.08080061776178 -2.14019890939094
 1  8.96451143664366 -2.10378835533553 -1.69607553235324
 1  10.82630518621862 -2.26989377327733 -2.06749099299930
 1  9.93288617461746 -2.55756769876988 -0.45294473417342
 1  11.67903558445845  1.00537276747675  0.05465695319532
 1  11.31527458085809 -0.66700266156616  0.95821644324432
 1  13.08624194309431 -1.76345450665067 -0.55286295389539
 1  12.83356710921092 -0.08547785678568 -1.69942330363036
 1  13.66066750345034  1.10553310931093  0.16176351935194
 1  13.88120087318732 -0.46015562026203  1.14779129562956
 1  15.53209649814982  0.14112359735974 -1.28858321632163
 1  15.18822626552655 -2.22810310241024  0.11805035113511
 1  14.92955600630063 -2.10419279487949 -1.71405882098210
 1  16.69054868426843 -2.22100762566257 -0.84680615011501
 1  16.03662886358636  1.38871670537054  0.74297084138414
 1  16.74655910311031 -0.07672684778478  1.45322808400840
 1  18.05732667136714 -0.52016856425643 -0.39599293969397
 1  17.78714577907791  0.95075239413941 -1.17254082988299
 1  18.33182397499750  2.00633479117912  1.15295330063006
 1  19.05390255055506  0.45645982698270  1.85179517981798
 1  20.56451136383638  0.27671381958196  0.31176824082408
 1  19.88139224582458  3.09112267416742 -0.86181977537754
 1  21.47507175927593  2.29967662046205 -1.12733409670967
 1  19.84388829322932  1.48627043784378 -1.66335330433043
 1  20.74841081628163  1.47151526062606  2.42679229642964
 1  22.06054776107610  2.11276250595060  1.26838180448045
 1  20.75172490239024  3.17393747704770  1.54206464696470

