%nproc=4
%Mem=3GB
# td=(NStates=1) iop(3/107=0140000000,3/108=0140000000) CAM-B3LYP/6-31G(d,p) 

TD

0 1
12 -7.06140083178318  0.62184056755676  0.01832820282028
 6 -4.88242705920592 -1.98129536013601  0.40831623402340
 6 -4.84359038963896  2.87993671157116  1.10588069326933
 6 -9.40472723722372  3.15400295329533 -0.41793426872687
 6 -9.47301339933994 -1.71232299799980 -0.77551435633563
 7 -5.13616064726473  0.38503459405941  0.62934075807581
 6 -4.32699494679468 -0.72065320852085  0.68173606830683
 6 -2.94320054065407 -0.38156655465547  1.13673934303430
 6 -3.00740396729673  1.03609231083108  1.55328160746075
 6 -4.38587882258226  1.56586123722372  1.07420181408141
 6 -2.97921410221022  1.20735355465547  3.12328764336434
 6 -1.90297602730273 -0.55180116931693 -0.02088827852785
 6 -0.47218292749275 -0.40480372837284  0.42593597589759
 6  0.45731765496550 -0.63622024392439 -0.71208099819982
 8  0.18777899469947 -1.02568634633463 -1.80675806890689
 8  1.74115271367137 -0.36070600900090 -0.35144053165317
 7 -7.08396604000400  2.71190440034003  0.32835375947595
 6 -6.06973711751175  3.42167593499350  0.71999787588759
 6 -6.37999290769077  4.87019388298830  0.80515877457746
 6 -7.73209799509951  4.89553135833583  0.38150427682768
 6 -8.15735526302630  3.55911285008501  0.06058405700570
 6 -5.48745077897790  5.88521799549955  1.29424958015802
 6 -8.62496250425042  6.05536580618062  0.28402901540154
 6 -8.32920133013301  7.25107425712571  0.94380844014401
 7 -9.17443648474847  0.70983797819782 -0.46781335523552
 6 -9.85252273857386  1.88604192849285 -0.56119893339334
 6 -11.29125307800780  1.38917836233623 -1.01086594629463
 6 -11.22014150135013  0.05374292009201 -1.14549457775778
 6 -9.85155275887589 -0.29707990139014 -0.85629783108311
 6 -12.40265120282028  2.33527876927693 -1.22384183688369
 6 -12.35190898379838 -0.82820894469447 -1.71252058265827
 6 -12.31040294919492 -1.19056924922492 -3.14245489668967
 7 -7.12528549094909 -1.35101993769377 -0.16338901400140
 6 -8.27232155845585 -2.25251379687969 -0.51790337023702
 6 -7.85437747754775 -3.62439299069907 -0.51495179497950
 6 -6.56399418991899 -3.54302728482848 -0.13390547224722
 6 -6.21947567926793 -2.20333828962896 -0.01336950155015
 6 -8.67205954545455 -4.76796289468947 -0.81495487858786
 6 -5.36833229612961 -4.33423698709871  0.12821779587959
 8 -5.29546053835384 -5.58426528352835  0.24680062866287
 6 -4.19679418201820 -3.41503895129513  0.44587290889089
 6 -3.61200537733773 -3.65396333903390  1.80904687318732
 8 -3.81891467486749 -3.09144650255025  2.91812517071707
 8 -2.74628998179818 -4.67197581608161  1.79361839933993
 6 -2.29416837383738 -5.09424463036304  3.19047644804480
 6  2.82564888528853 -0.79089737863786 -1.30116363356336
 6  4.17275816101610 -0.45456072397240 -0.55892845564556
 6  5.14785027632763  0.35238176617662 -1.02387526452645
 6  5.14193791939194  1.17216489178918 -2.22367650265027
 6  6.48587486618662  0.46766738273827 -0.22455297969797
 6  7.65908736133613 -0.24948349634963 -0.95785611431143
 6  8.95416312791279 -0.26688850495050 -0.21552765516552
 6  10.20790625122512 -0.75631729492949 -0.89775549554955
 6  10.13706698329833 -2.22015989588959 -1.28522548854885
 6  11.49441410521052 -0.53759865096510 -0.07670563306331
 6  12.84433216871687 -0.72448248174817 -0.75799330443044
 6  14.00339161096110 -0.28836455075508  0.16779319091909
 6  15.39811580258026 -0.18111719531953 -0.46908256075608
 6  15.94196046704671 -1.47977636593659 -0.93850567686769
 6  16.39471646434643  0.46850336763676  0.51949668436844
 6  17.81641922962296  0.61645537513751 -0.02923945094509
 6  18.74737515611561  1.44627270577058  0.90575383208321
 6  20.23150595499550  1.44137356985699  0.33296000200020
 6  20.18965181098110  2.15341264636464 -1.03043773967397
 6  21.27046211321132  2.06094779467947  1.34240818081808
 1 -4.15477584108411  3.54403765516552  1.52864896069607
 1 -10.08995111841184  3.90865313981398 -0.49482400860086
 1 -10.19166359045905 -2.38879441454145 -1.10539835923592
 1 -2.38940622782278 -1.23458366106611  1.84419090979098
 1 -2.43136660296030  1.69859192029203  1.03988763776378
 1 -2.00903398979898  0.80767987438744  3.42706304370437
 1 -2.78641575067507  2.31074029682968  3.42064008620862
 1 -3.69903270377038  0.77143229752975  3.62156384158416
 1 -1.99163428242824 -1.59010968176818 -0.42977098419842
 1 -2.22323869286929  0.22351997179718 -0.73534026862686
 1 -0.19609503820382  0.72269185648565  0.79937380038004
 1 -0.26277469776978 -0.98314908150815  1.11329478777878
 1 -5.82855703340334  6.91656916891689  0.75524535583558
 1 -5.61571304260426  6.04452733413341  2.41807381988199
 1 -4.36028087268727  5.67086135413541  0.84892562516252
 1 -9.45187544734473  6.01913529552955 -0.51786313901390
 1 -9.11342040574057  8.04288400940094  0.63785356105611
 1 -7.30936886898690  7.51582841924192  1.46505546584658
 1 -12.18955942894289  3.03576272337234 -2.20565639713971
 1 -13.45897319501950  1.85694443684368 -1.29779550775078
 1 -12.44943597629763  3.05472280638064 -0.33740417991799
 1 -12.37937990289029 -1.71393231603160 -0.99252275317532
 1 -13.38563086218622 -0.20599330983098 -1.46766252065207
 1 -13.29331453065307 -1.89936359845985 -3.39316027412741
 1 -12.45307571327133 -0.17650612191219 -3.69225820422042
 1 -11.36898173757376 -1.58350937813781 -3.20826910511051
 1 -8.84678929752975 -4.86068256905691 -1.96512257525753
 1 -8.20193457865787 -5.71715766906691 -0.50536049114911
 1 -9.66259043804381 -4.70955940434043 -0.29390165886589
 1 -3.52335985448545 -3.81068767436744 -0.50937867596760
 1 -1.73222661026103 -4.45771798519852  3.61595331293129
 1 -3.08392482978298 -5.37869739463946  3.80115115281528
 1 -1.65949647014701 -6.07940872567257  2.86471983308331
 1  2.68183623842384 -1.79565618841884 -1.65405685438544
 1  2.70775721702170 -0.07120903610361 -2.03668472597260
 1  4.39863034973497 -1.19914832863286  0.26169756995700
 1  4.19342465396540  1.19617516021602 -2.85353583928393
 1  5.40821775397540  2.13583400730073 -2.03764120252025
 1  5.84447401590159  0.95500669156916 -3.02597885478548
 1  6.76349453335334  1.47017699829983  0.13407302120212
 1  6.32147001910191 -0.28149548624862  0.83942013751375
 1  7.51092321512151 -1.29255992899290 -1.28370312751275
 1  7.86997955645565  0.26904600760076 -1.95792661556156
 1  9.17228327262726  0.61005050255025  0.28617104520452
 1  8.80590371117112 -0.82336068876888  0.85280140354035
 1  10.52653728552855 -0.00835468766877 -1.72127728572857
 1  9.13354296339634 -2.85472375587559 -1.88151653355336
 1  10.92330147074708 -2.75390879017902 -1.88263362146215
 1  9.97809000610061 -2.82191630633063 -0.37495488918892
 1  11.40791243284328  0.46337277067707  0.11506927772777
 1  11.53647124262426 -1.07621891949195  0.90940726082608
 1  13.01186913941394 -1.80394781408141 -0.83460573207321
 1  12.73104893479348 -0.18409347334733 -1.65205953965397
 1  13.61389280958096  0.67671303460346  0.68336316501650
 1  13.83185149574958 -1.00760713961396  0.93224559855986
 1  15.40470087148715  0.46626002300230 -1.20347161596160
 1  16.04671846864687 -2.07293663486349  0.08182004650465
 1  15.33207485188519 -2.03940846084608 -1.64425579907991
 1  16.87336561616162 -1.37054795179518 -1.48447496079608
 1  16.09143241674167  1.58144647834784  0.98368428472847
 1  16.45023910171017 -0.32401868666867  1.43582207690769
 1  18.14279101680168 -0.54225073907391 -0.27210740634063
 1  17.64492180178018  1.06555544964496 -1.14085982958296
 1  18.35064412131213  2.58014928292829  0.95357730453045
 1  18.56466242874287  0.88453329282928  2.01592483798380
 1  20.66424625692569  0.53371436903690  0.11896778897890
 1  19.74834165266527  3.17229800630063 -0.98095027972797
 1  21.39399320012001  2.38174931703170 -1.51695967716772
 1  19.76521491909191  1.61793208340834 -1.84424280868087
 1  21.03049690319032  1.30201584248425  2.18754242304230
 1  22.21791968476848  1.76155662636264  1.01139779337934
 1  21.10217029552955  3.15222133933393  1.54773190989099

