%nproc=4
%Mem=2GB
# td=(NStates=1) CAM-B3LYP/6-31G(d,p) 

TD

0 1
12 -7.05237581058106  0.64726347444744  0.08567625502550
 6 -4.83350796879688 -1.90589176757676  0.52075860856086
 6 -4.74710463936394  2.90900934823482  1.14370073497350
 6 -9.37335207070707  3.06320181568157 -0.44537739743974
 6 -9.52117243094309 -1.73688919991999 -0.90933736283628
 7 -5.11492491709171  0.51357117521752  0.78438885718572
 6 -4.33955366146615 -0.70915073707371  0.77772579577958
 6 -2.96390539593959 -0.40451987768777  1.33776413061306
 6 -3.00562400080008  1.14655732403240  1.74705543624362
 6 -4.39814680958096  1.59414016281628  1.12425945584558
 6 -3.00373545564557  1.22112440054005  3.22588399729973
 6 -1.90526398739874 -0.72596785818582  0.25933989228923
 6 -0.45513293589359 -0.37862220942094  0.53738786808681
 6  0.56369750695070 -0.67806131903190 -0.51545692619262
 8  0.19239047914791 -0.84176958455846 -1.65857218891889
 8  1.68963077357736 -0.52557995439544 -0.14495128402840
 7 -7.04178462636264  2.56986257605761  0.32255095059506
 6 -6.08392767176718  3.41585256105611  0.69844337793779
 6 -6.38489574267427  4.77407169656966  0.74250493769377
 6 -7.72271497849785  4.87725835733573  0.31397978927893
 6 -8.17959223082308  3.46665586088609  0.02906545284528
 6 -5.54881283798380  5.95896836273627  1.06884164466447
 6 -8.56658445604560  6.03721475517552  0.09270625602560
 6 -8.34137802910291  7.24989110771077  0.74062031183118
 7 -9.13002527512751  0.64506736783678 -0.49574360806081
 6 -9.84674093379338  1.71153110621062 -0.69822614671467
 6 -11.15862495909591  1.43752209130913 -1.18552027152715
 6 -11.25169757365737  0.12851821592159 -1.27925663966397
 6 -9.95754143484348 -0.40963293759376 -0.89108412451245
 6 -12.13728255195520  2.45626619761976 -1.42463923872387
 6 -12.40593513981398 -0.74602201230123 -1.73698450695070
 6 -12.26389387778778 -0.95358776997700 -3.27620273887389
 7 -7.27653712201220 -1.40177979157916 -0.05064974197420
 6 -8.27605784558456 -2.24809998209821 -0.56723167836784
 6 -7.82910905650565 -3.57999626712671 -0.56161343864386
 6 -6.48159204330433 -3.49654399139914 -0.15517724962496
 6 -6.19774237063706 -2.18494677597760  0.14415721992199
 6 -8.54301176857686 -4.99218206060606 -0.87940641904190
 6 -5.38711318161816 -4.38209209270927  0.12090496309631
 8 -5.27203604150415 -5.56335081848185  0.10630766146615
 6 -4.14061764116412 -3.25380116991699  0.51447131243124
 6 -3.65758638953895 -3.79289451075108  1.83040341324132
 8 -3.92188378897890 -3.24443117931793  2.93498617971797
 8 -2.86433762746275 -4.83941866426643  1.72993157405741
 6 -2.20975156305631 -5.27297152625262  2.95307024252425
 6  2.76336884858486 -0.76747454205421 -1.16373757415742
 6  4.16829891889189 -0.39843802010201 -0.47096724572457
 6  5.14839832423242  0.33389965536554 -0.87998777147715
 6  5.15237366036604  1.13956660596060 -2.13744791009101
 6  6.42823715651565  0.47626947714771 -0.06476296149615
 6  7.70223776167617 -0.16077642454245 -0.80557750825083
 6  8.97993986658666 -0.16342147254725  0.05906409360936
 6  10.23437406190619 -0.62130920262026 -0.88349932043204
 6  10.18909560976098 -2.00022095819582 -1.37230069506951
 6  11.39738261516152 -0.39923370417042  0.05688655725573
 6  12.85414032173217 -0.43554760586059 -0.67550757365737
 6  14.01580104850485 -0.13073427622762  0.15047211471147
 6  15.34558068296830 -0.23635736483648 -0.45616385618562
 6  15.68710037893789 -1.71556919071907 -0.74560417811781
 6  16.40163426932693  0.38692305230523  0.29376388358836
 6  17.79191378077808  0.61023242164216 -0.26521233583358
 6  18.74905527502750  1.31335955295530  0.69534996799680
 6  20.20934960416042  1.49240957445745  0.13994875807581
 6  20.30101145494550  2.12044034123412 -1.25086607930793
 6  21.11434236503650  2.15567850415042  1.14843020642064
 1 -4.04184566906691  3.48874439583958  1.69951453835384
 1 -10.05621601430143  3.99046988198820 -0.68291368286829
 1 -10.30010329972997 -2.52290163096310 -1.20583723592359
 1 -2.66819327622762 -0.95432374627463  2.16224691589159
 1 -2.03562716791679  1.63782736533653  1.21800245064507
 1 -2.16254071157116  0.89601005390539  3.70660437393739
 1 -3.02614767476748  2.29425348284828  3.56033819921992
 1 -3.94583802650265  0.58152283628363  3.58044045684569
 1 -2.01482396729673 -1.91944190459046 -0.02307621682168
 1 -2.17450912341234 -0.19792254185419 -0.92691273087309
 1 -0.42820633803380  0.68411302520252  0.80019041814181
 1 -0.22224002600260 -0.83621813701370  1.53652760796080
 1 -5.78654743014301  6.70506915101510  0.25093080228023
 1 -5.78363535293529  6.19934329742974  2.10603690079008
 1 -4.25097905390539  5.68994016041604  1.04461763736374
 1 -9.32415446794679  5.92993914201420 -0.65285551375138
 1 -8.86959817571757  8.11438217711771  0.61990161196120
 1 -7.35744521032103  7.49245564506451  1.31328971447145
 1 -12.14395850095010  3.10515084108411 -2.15678868356836
 1 -13.05382505170517  1.90854474567457 -1.38087927942794
 1 -12.25228695979598  3.12309096379638 -0.54339558355836
 1 -12.26304108250825 -1.65667511261126 -1.14480943584358
 1 -13.32366108500850 -0.43790052685269 -1.25555108260826
 1 -13.12432878547855 -1.80278496469647 -3.62914279877988
 1 -12.33521708590859 -0.15319985758576 -3.75853934963496
 1 -11.41158743804380 -1.64872974007401 -3.63720234023402
 1 -9.02137174017402 -5.04430517341734 -1.98704196829683
 1 -7.78891825662566 -5.97382738693869 -0.72572218521852
 1 -9.53381326622662 -5.21116613791379 -0.23979580218022
 1 -3.31231192709271 -3.51616486718672 -0.19187445894589
 1 -1.35339350585058 -4.53253969366937  2.96556947224722
 1 -3.02226183478348 -5.26621823942394  3.96862970187019
 1 -2.11485959745975 -6.53702297549755  2.56191014391439
 1  2.66361566566657 -1.85909774567457 -1.49382334733473
 1  2.54037151475147 -0.11896761716172 -1.93219637183718
 1  4.26945785138514 -1.04102631783178  0.44274749074907
 1  4.09362832633263  1.39566827722772 -2.43493186288629
 1  5.65881129282928  2.17601786068607 -1.99747621582158
 1  5.89604691229123  0.65462657015701 -2.78954768576858
 1  6.57213927682768  1.51716571657166  0.00103274607461
 1  6.37215133453345 -0.01709974737474  0.85548526522652
 1  7.48867625232523 -1.25439467466747 -1.14599592319232
 1  8.06329876577658  0.49610281838184 -1.78480140374037
 1  9.01112316391639  0.59784766976698  0.47517514971497
 1  8.79193768246825 -0.87880338653865  0.90131799549955
 1  10.27552510391039  0.10376291399140 -1.72718760826083
 1  9.33315830133013 -2.22877085358536 -2.08438436323632
 1  10.97531008670867 -2.35467225112511 -1.98157240114011
 1  10.13033591959196 -2.83471541354135 -0.45734517421742
 1  11.26457413831383  0.57430966116612  0.43566505400540
 1  11.04329738313831 -0.91771773307331  0.96924754635464
 1  12.84670798969897 -1.65466362756276 -1.05278294589459
 1  12.90863461596160  0.01555224622462 -1.62470583188319
 1  13.94734617131713  1.11400395639564  0.29400674367437
 1  14.03959671277128 -0.77282688738874  1.13824034053405
 1  15.24531782028203  0.25057454245425 -1.23347770577058
 1  16.04667211011101 -2.31646193829383  0.18995754185419
 1  14.98266131683168 -2.41577395299530 -1.11619903500350
 1  16.44018364776478 -1.49902542744274 -1.56189765926593
 1  16.03205840654065  1.23938177187719  0.70685723002300
 1  16.65132958015801 -0.22581175627563  1.25916867806781
 1  18.02034297299730 -0.26442298969897 -0.78504184458446
 1  17.70342740724072  1.30643796269627 -1.20680425622562
 1  18.26320711331133  2.35822998069807  0.66401440674067
 1  18.68572573287329  0.99966414741474  1.79520952125213
 1  20.53286819951995  0.40508665686569  0.03686075007501
 1  19.57511161776177  3.17479104100410 -1.34459805320532
 1  21.43154740684069  2.08413506630663 -1.53374473777378
 1  19.78278218261826  1.33261507230723 -2.06162313131313
 1  21.12486846204621  1.59698780788079  2.07982759996000
 1  22.16136784308431  2.06712794249425  0.80799576587659
 1  20.94530426032603  3.17225730903090  1.32079251975198

