%nproc=4
%Mem=2GB
# td=(NStates=1) CAM-B3LYP/6-31G(d,p) 

TD

0 1
12 -7.12910348334833  0.62975172327233  0.02378006540654
 6 -4.79753437143714 -1.88475965436544  0.40483701640164
 6 -4.92521245014501  2.86391483878388  1.16362272717272
 6 -9.50054478997900  2.98758425392539 -0.37319017871787
 6 -9.49053936763676 -1.79270478147815 -0.90951738083808
 7 -5.08512193679368  0.50748056615662  0.70323074137414
 6 -4.30112981908191 -0.62068189018902  0.71457948114811
 6 -2.92514151955195 -0.34748417411741  1.15817617181718
 6 -3.00513395179518  1.15373804210421  1.58602933363336
 6 -4.35334232913291  1.58609935873587  1.10502753265327
 6 -2.97959304140414  1.29045133323332  3.18826023492349
 6 -1.83805726672667 -0.58046330773077  0.09366332463246
 6 -0.43297071967197 -0.25400974817482  0.54348847814781
 6  0.53463460066007 -0.62487600050005 -0.46778215871587
 8  0.24321556165617 -1.15157056465647 -1.52215854755476
 8  1.82486429692969 -0.43639103550355 -0.05169195809581
 7 -7.17154760266027  2.62660825062506  0.35438413391339
 6 -6.14357363636364  3.37133810961096  0.76639017261726
 6 -6.52874012711271  4.74780907030703  0.78474916211621
 6 -7.84714742174217  4.76576720822082  0.39083747504750
 6 -8.21720599219922  3.40309950525053  0.05228777507751
 6 -5.65336329302930  5.87263972987299  1.27038179867987
 6 -8.70174797239724  5.97044807850785  0.15594257965797
 6 -8.57332122342234  7.10688680728073  0.72183843364336
 7 -9.12107438003800  0.61030389148915 -0.62566660036004
 6 -9.96007226692669  1.74258421152115 -0.65319164326433
 6 -11.29914901150115  1.35341368046805 -1.12748446794679
 6 -11.25993839773977 -0.00218485438544 -1.22640135413541
 6 -9.96383206390639 -0.46720869516952 -0.83219823592359
 6 -12.27840666436644  2.34176474747475 -1.35479225402540
 6 -12.38502304860486 -0.82242965306531 -1.68164897339734
 6 -12.41366885528553 -1.03912632383238 -3.14465958455846
 7 -7.24203367166717 -1.31721133473347 -0.20968564556456
 6 -8.22036227602760 -2.16449162126213 -0.52222717791779
 6 -7.83192933853385 -3.60393866136614 -0.37757503480348
 6 -6.46126001010101 -3.50248458545855 -0.10449218111811
 6 -6.15976857325733 -2.15139342064206  0.09392219641964
 6 -8.58473594099410 -4.82429527192719 -0.86036451485149
 6 -5.18810328062806 -4.32275615911591  0.13337621022102
 8 -5.00610944884488 -5.58224270767077  0.03884091479148
 6 -4.21214479387939 -3.18005379517952  0.53290315561556
 6 -3.52497312821282 -3.58379360066007  1.76522689558956
 8 -3.74010561116112 -2.97167390359036  2.89924260536054
 8 -2.69849104280428 -4.68248297069707  1.70410899179918
 6 -2.16944753265327 -5.17513174227423  2.93896883238324
 6  2.81536404810481 -0.72871066566657 -1.12167336773677
 6  4.16173826282628 -0.36420459675968 -0.50662081108111
 6  5.15798928332833  0.31715798119812 -1.13724349704970
 6  5.12296071907191  1.14265691499150 -2.27176134143414
 6  6.45563989678968  0.43330518071807 -0.23469995519552
 6  7.73948148604861 -0.09695004190419 -0.93867081758176
 6  8.96740861346135  0.03835870547055 -0.02940475327533
 6  10.26107673217322 -0.49442651435144 -0.77391836233623
 6  10.25773247344734 -1.98489942604260 -1.08653211821182
 6  11.41918479537954 -0.14149793059306  0.04674554315432
 6  12.78338324602460 -0.48102215331533 -0.60299032193219
 6  14.05582505090509 -0.06337754055406  0.15371243874387
 6  15.35501162606261 -0.25538926802680 -0.46563480328033
 6  15.59102077097710 -1.77357499129913 -0.86930654835484
 6  16.44869897579758  0.24975933593359  0.47722222942294
 6  17.77817240664066  0.37638903730373 -0.26740255485549
 6  18.85217558705871  1.15533375037504  0.69332976597660
 6  20.30413908310831  1.17749808330833  0.13362812601260
 6  20.36769812361236  2.21821011821182 -1.12834382708271
 6  21.09166009680968  1.73036597289729  1.13745910931093
 1 -4.33431491599160  3.66985250665067  1.59870445734573
 1 -10.29738013071307  3.73157399239924 -0.44257964946495
 1 -10.36230952035204 -2.46027536833683 -1.44502115431543
 1 -2.70315677257726 -1.01100941484148  2.12123281448145
 1 -2.34737834303430  1.66590017261726  1.07538818921892
 1 -2.05577003450345  0.82711316421642  3.45473918741874
 1 -2.97436249624963  2.45203926142614  3.33975614101410
 1 -3.94601804450445  0.88959364336434  3.84304671747175
 1 -1.99435192009201 -1.62462242264226 -0.34521843104310
 1 -2.09766143864386  0.10133738413841 -0.69231927152715
 1 -0.38701221862186  0.63075768966897  1.01423182228223
 1 -0.25988379037904 -0.79423393859386  1.38856281148115
 1 -6.22944171957196  6.60235887998800  0.89976568576858
 1 -5.61808879827983  5.83079644274427  2.25031132823282
 1 -4.72811676767677  5.83944511091109  0.80435361096110
 1 -9.37936998949895  5.76390253835384 -0.69266949514951
 1 -9.41332254815481  8.03112385128513  0.78588821062106
 1 -8.03488295409541  7.26579297879788  1.53576196169617
 1 -11.94046815191519  2.93644397039704 -2.35475848054806
 1 -13.31039070827083  2.02048593979398 -1.82610380188019
 1 -12.66051778287829  2.99617827252725 -0.50112135613561
 1 -12.38218299669967 -2.01268071317132 -1.24641959685969
 1 -13.29369808870887 -0.37506424322432 -1.36868239573957
 1 -13.26967331993199 -1.68517320352035 -3.43068295279528
 1 -12.21594515871587 -0.15739027662766 -3.78922241794179
 1 -11.70083636293630 -1.81870673777378 -3.32175079507951
 1 -8.66655625862586 -4.61128187108711 -1.93640690479048
 1 -7.95776514131413 -5.59054905910591 -0.87599721272127
 1 -9.45912579747975 -5.01804682598260 -0.32252407500750
 1 -3.24384508040804 -3.30958420912091 -0.12289756125613
 1 -1.38280644714472 -4.39468590829083  3.40009292459246
 1 -3.06542615121512 -5.29045066266627  3.56023886278628
 1 -1.82961107260726 -6.19085835903590  2.86917086998700
 1  2.74857416151615 -1.90998283418342 -1.48562252725272
 1  2.61329880748075 -0.16245196559656 -1.95357851005101
 1  4.07905881148115 -0.90713292849285  0.50130334633463
 1  4.16654561806181  1.07097580798080 -2.79568793849385
 1  5.46959237093709  2.16566682558256 -1.90992746094610
 1  5.92102941054105  0.62472357985799 -2.85590432143214
 1  6.46025808870887  1.53568756875688 -0.10517787498750
 1  6.41880600000000  0.00183214581458  0.80564028072807
 1  7.37640502520252 -1.03143237843784 -1.15402672627263
 1  8.15584802070207  0.61558476657666 -1.75536846044604
 1  8.96069812141214  1.09464734973497  0.41377901010101
 1  8.85088357705771 -0.38599410561056  0.92395025872587
 1  10.22702025342534  0.12847538523852 -1.63469835933593
 1  9.28568355385539 -2.21005898239824 -1.65118104290429
 1  10.92718527422742 -2.18120490439044 -1.73001724562456
 1  10.40972385838584 -2.48653059505951 -0.19945938563856
 1  11.48655633653365  1.00730296049605  0.09151063856386
 1  11.20108316171617 -0.48770473177318  1.17248787038704
 1  12.93686700560056 -1.52833099429943 -0.94370203780378
 1  12.79049280178018 -0.09428873787379 -1.68517187848785
 1  13.80016145284528  0.92898545454545  0.61991933493349
 1  14.04354710781078 -0.74294389908991  1.20063658015802
 1  15.37923121162116  0.43972345734573 -1.40440479847985
 1  15.86561400430043 -2.38833912601260  0.08953749984999
 1  14.70858390909091 -2.38390076567657 -1.31148856395640
 1  16.33816344574458 -1.87063258815882 -1.60378184768477
 1  16.26191139183918  1.28445627932793  0.71779832413241
 1  16.29327377457746 -0.32208138323832  1.39694245544554
 1  18.40421135983598 -0.49080562796280 -0.75426876727673
 1  17.72098916341634  1.08753607250725 -1.14327790359036
 1  18.37384817741774  2.20321447914792  1.14291229652965
 1  18.73161032133213  0.58552273327333  1.67205720602060
 1  20.67148206090609  0.04607075527553 -0.30230316631663
 1  20.20800490709071  3.30424398629863 -0.79211280468047
 1  21.45294954705471  2.22008866166617 -1.51291265456546
 1  19.84368827322733  1.98559036983698 -1.95870283928393
 1  21.11369734493449  1.03971208030803  2.11023064026403
 1  22.15344705100510  1.89738096779678  0.60186515281528
 1  20.85740547044704  2.74008409170917  1.19981042154215

