%nproc=4
%Mem=2GB
# td=(NStates=1) CAM-B3LYP/6-31G(d,p) 

TD

0 1
<<<<<<< HEAD
12 -7.25581615461546  0.61838058615862  0.04240192759276
 6 -4.83675829382938 -1.96872805120512  0.50090662336234
 6 -4.90889081798180  2.88007645494549  1.10628699359936
 6 -9.37789252475248  3.11625712121212 -0.41338419811981
 6 -9.50461077477748 -1.71943745474547 -0.74721115021502
 7 -5.19781320592059  0.45259507760776  0.78632905120512
 6 -4.37725743184318 -0.65534535653565  0.80630865406541
 6 -2.97547655305531 -0.33095252095210  1.22968332253225
 6 -3.06234967336734  1.15487815611561  1.57626835753575
 6 -4.49937693259326  1.54107485628563  1.23129015891589
 6 -2.90834591669167  1.34219650775078  3.12005341424142
 6 -1.98475193619362 -0.59772503390339  0.12913687198720
 6 -0.50732815541554 -0.34646899409941  0.56315044434443
 6  0.44444558175818 -0.57912142504250 -0.58265364586459
 8  0.21315255535554 -0.99266467406741 -1.67218355005501
 8  1.77111892239224 -0.29249664606461 -0.28513530243024
 7 -7.08860930883088  2.67227281708171  0.31069976547655
 6 -6.07376665566557  3.43033400920092  0.71513504710471
 6 -6.40502775587559  4.82803709310931  0.64322500970097
 6 -7.70979368636864  4.82503313481348  0.12113050435044
 6 -8.10053432503250  3.49989918521852  0.06984953125313
 6 -5.55425338203820  5.98784125002500  1.04859962046205
 6 -8.44884268186819  6.00243127682768 -0.01164417901790
 6 -8.48654254555456  7.04597071567157  0.85177142694269
 7 -9.09814208680868  0.57987084818482 -0.42121615531553
 6 -9.84280053975398  1.79303925702570 -0.59894621872187
 6 -11.22799189578958  1.48054639373937 -1.04901662116212
 6 -11.28496089999000  0.05754111821182 -1.13505221922192
 6 -9.97598327902790 -0.44933690799080 -0.75668068416842
 6 -12.36972579627963  2.40616118711871 -1.24903167796780
 6 -12.40950549684968 -0.73220063016302 -1.63036384488449
 6 -12.25149263766377 -1.06376878807881 -3.21164628322832
 7 -7.18216768506851 -1.43486309990999 -0.12243692069207
 6 -8.30437067686769 -2.25559073117312 -0.42051700690069
 6 -7.81799794539454 -3.61334960246025 -0.45046232353235
 6 -6.57049093319332 -3.53400773777378 -0.13926565846585
 6 -6.21615421182118 -2.22894117541754  0.13454625882588
 6 -8.67007447484748 -4.85459830223022 -0.69624810321032
 6 -5.35165963626363 -4.40234411791179  0.09576244884488
 8 -5.12084092199220 -5.58819330273027  0.18942597329733
 6 -4.15187876727673 -3.34226001580158  0.51676154145415
 6 -3.42231286218622 -3.63567878917892  1.82195256815682
 8 -3.58933053365337 -3.15895263146315  2.93959664076408
 8 -2.61890308400840 -4.75691041344134  1.64325290619062
 6 -1.97991857975798 -5.26083031213121  2.85334026952695
 6  2.76342885458546 -0.68225602020202 -1.27192839323932
 6  4.08663075207521 -0.45000317661766 -0.61987213621362
 6  5.12972645704570  0.23491975737574 -1.07555732843284
 6  5.12373079607961  1.03398604790479 -2.36062022732273
 6  6.35409974277428  0.31618346854685 -0.25818230343034
 6  7.63627116501650 -0.17982832973297 -1.01538848934894
 6  8.93687556015602 -0.26299142954295 -0.19476128892889
 6  10.21639226372637 -0.61961903360336 -0.85903687418742
 6  10.16176287648765 -2.04633556965697 -1.33516698169817
 6  11.47746062296230 -0.26440022082208  0.03622449104911
 6  12.80632554025403 -0.49101315241524 -0.60738076097610
 6  13.98534800320032 -0.28372957575758  0.28106517401740
 6  15.34867099199920 -0.20963469256926 -0.48050629042904
 6  15.77048871777178 -1.57734536833683 -0.99201881958196
 6  16.42036614251425  0.47868222822282  0.48121262846285
 6  17.78478306770677  0.60979237763776 -0.07098291289129
 6  18.84991536103610  1.26534475147515  0.91531196419642
 6  20.30702937213721  1.29821015451545  0.19883464666467
 6  20.19837119091909  2.30464876207621 -0.93845483818382
 6  21.28859979077908  1.86288922522252  1.33769913331333
 1 -3.88534001850185  3.48375389678968  1.36516110301030
 1 -10.16412680538054  4.04213504850485 -0.88296368786879
 1 -10.25279856925693 -2.56017535833583 -1.01874852705271
 1 -2.49413587048705 -1.04197251115112  2.06137682888289
 1 -2.38932253745375  1.88328191079108  1.08162881328133
 1 -1.91570602810281  1.02579303220322  3.51205491899190
 1 -2.88285334533453  2.44618867636764  3.39627179257926
 1 -3.52977642034203  0.53556824082408  3.60527294009401
 1 -2.19502198709871 -1.46949691009101 -0.33642755195520
 1 -2.23147481998200  0.19069632003200 -0.88716875647565
 1 -0.24538805620562  0.77440205410541  0.99968036713671
 1 -0.22793059505951 -1.01678619381938  1.52550650585059
 1 -5.61922069746975  6.98040668476848  0.46777248644865
 1 -5.81103809320932  6.32343570667067  2.17290358745875
 1 -4.49663361936194  5.67579874627463  0.79246242184218
 1 -9.40590264276428  5.85475162326233 -0.78522875107511
 1 -9.21835305120512  7.96468720762076  0.67061668346835
 1 -7.60970043584358  7.23245964546455  1.71894027952795
 1 -12.31627573267327  3.09933025902590 -2.18419142384238
 1 -13.44751442064206  1.92408629982998 -1.43469466096610
 1 -12.40765249634964  3.26007466216622 -0.39714095809581
 1 -12.46341111951195 -1.53935338043804 -1.13447840274027
 1 -13.39311803070307 -0.10671740854085 -1.39531505900590
 1 -13.19099545214521 -1.56501118731873 -3.61082096659666
 1 -12.26587015121512 -0.23983852145215 -3.84235773147315
 1 -11.51113739303931 -1.77080194729473 -3.37900652065206
 1 -8.63394299729973 -4.96091683458346 -1.89610287438744
 1 -8.05668503330333 -5.70464046824682 -0.41832144514452
 1 -9.78717860276028 -4.77033205450545 -0.26057788038804
 1 -3.28757945384538 -3.22379563026303 -0.21089636113611
 1 -1.68588675517552 -4.38985542524252  3.36929984528453
 1 -2.72985259385939 -5.89328094569457  3.39720255915592
 1 -1.18770688218822 -6.16662593579358  2.39694364726473
 1  2.60592989708971 -1.38940077597760 -1.65202916791679
 1  2.29189666726673 -0.06850257065707 -2.16630978317832
 1  4.09520042564256 -0.87671988718872  0.40392360836084
 1  4.15448441194119  0.94423313371337 -2.93236160586059
 1  5.27646305800580  2.15612587148715 -2.18465493369337
 1  6.13775108270827  0.81113222072207 -3.06691542254225
 1  6.57477954085409  1.45058905890589  0.15429807260726
 1  6.25163928332833 -0.13191122852285  0.64863458015802
 1  7.29195658035804 -1.16710594579458 -1.35301662526253
 1  7.89204164006401  0.46282949104910 -1.90517344094409
 1  9.07162921452145  0.81181906690669  0.20104773697370
 1  8.77163565226523 -1.06262176837684  0.75889375307531
 1  10.07594514591459  0.17236977467747 -1.57971286078608
 1  9.13437842334233 -2.15116309280928 -1.95540146494650
 1  11.05615817151715 -2.28468525242524 -2.09279352325233
 1  10.48205109110911 -2.58020996299630 -0.31616105580558
 1  11.42980066096610  0.68446067626763  0.37703919141914
 1  11.31799485288529 -0.97306326762676  0.89496011761176
 1  12.85184850375038 -1.44475263646365 -0.82766043364336
 1  13.12788654115412  0.08268895989599 -1.57542090339034
 1  13.74131556825683  0.66967952395240  0.83237058005801
 1  13.67654040714071 -1.08579818451845  1.06943345984598
 1  15.31845513401340  0.50039952495250 -1.41166552455246
 1  15.84371181408141 -2.41043133523352 -0.16972842674267
 1  14.85323837453745 -2.07103947954795 -1.68737615271527
 1  16.79047867726773 -1.39127465236524 -1.53435490499050
 1  16.04991019171917  1.40450828452845  0.66899344364436
 1  16.41083553075307 -0.09395857095710  1.37057981918192
 1  17.87011795049505 -0.36796334373437 -0.39378271867187
 1  17.61732879737974  1.16510382928293 -0.95264884068407
 1  18.39989078167817  2.23292745044504  1.11367937323732
 1  18.81452861316132  0.72433661466147  1.80403040334033
 1  20.42007692039204  0.14724087228723 -0.04481741774177
 1  20.03588769536954  3.27184074597460 -0.75949954335434
 1  21.22544679677968  2.45890254305431 -1.50998236153615
 1  19.52798670307031  1.99317112791279 -1.64682165116512
 1  21.27428340354036  1.07810591969197  2.10521013821382
 1  22.26303801010101  1.94130536023602  0.86165113141314
 1  20.92397212711271  2.94777486078608  1.69785022552255
=======
12 -7.14777535053505  0.54079282738274  0.17105479287929
 6 -4.84276889488949 -1.97145832423242  0.53780031273127
 6 -4.80900082898290  2.82021046834683  1.20320668556856
 6 -9.39532426792679  3.13761925742574 -0.35711857155716
 6 -9.50609092279228 -1.80367587858786 -0.89510593969397
 7 -5.17678110271027  0.39465928402840  0.74718513681368
 6 -4.42285199129913 -0.72252207420742  0.82585060826083
 6 -2.92410141554155 -0.39946937263726  1.19791014521452
 6 -3.06891032943294  1.03027569586959  1.68606933763376
 6 -4.38869586448645  1.51505225402540  1.12839986988699
 6 -3.05679076117612  1.12389467756776  3.31233264216422
 6 -1.92989645064506 -0.51016627802780  0.06982094039404
 6 -0.50551797439744 -0.44472882008201  0.36630075937594
 6  0.40538167536754 -0.63467698059806 -0.81413679417942
 8  0.19578081818182 -1.08294370197020 -1.91846817851785
 8  1.63476528702870 -0.47822521892189 -0.26848363726373
 7 -7.11585203310331  2.57362295209521  0.36459515501550
 6 -6.01550082908291  3.28407938373837  0.74989852345234
 6 -6.38504575767577  4.73199748914891  0.81340202740274
 6 -7.68305101210121  4.79739037053705  0.28414680598060
 6 -8.21081535313531  3.44606380168017  0.02641518781878
 6 -5.39177713441344  5.83180564646465  1.11232599309931
 6 -8.48949674727473  5.84692572627263 -0.01992500710071
 6 -8.40931482278228  7.10368648724872  0.71244749454946
 7 -9.06940921352135  0.66659952105211 -0.57942197589759
 6 -9.79611587128713  1.82727268036804 -0.68558488258826
 6 -11.13771286788679  1.44856319541954 -1.14000572007201
 6 -11.17150955485548  0.13086845094509 -1.26329504350435
 6 -9.87899358005800 -0.38464043834383 -0.90896591269127
 6 -12.39908873257326  2.43336390739074 -1.31184795959596
 6 -12.32809735603560 -0.65948335843584 -1.77353816231623
 6 -12.22145963436344 -1.15778819001900 -3.35104022262226
 7 -7.27924739303930 -1.40251986558656 -0.19130380738074
 6 -8.31200143994399 -2.26347151925193 -0.52830778597860
 6 -7.79920606620662 -3.55562382988299 -0.48908618591859
 6 -6.47470135423542 -3.61400573757376 -0.03966569846985
 6 -6.25321791819182 -2.17769605090509  0.10403320752075
 6 -8.62595006240624 -4.86683952635264 -0.77253573197320
 6 -5.35224969526953 -4.38127201070107  0.19542241484148
 8 -5.09790862876288 -5.59479396279628  0.26332336303630
 6 -4.15139871927193 -3.28171396119612  0.57587745304530
 6 -3.61508213911391 -3.66908212951295  1.94871524442444
 8 -3.76990859145915 -3.05264200040004  2.97345002610261
 8 -2.69256044974497 -4.69018374077408  1.92756133703370
 6 -2.15600618851885 -5.09906413551355  3.15549048454846
 6  2.70479299099910 -0.57326512111211 -1.22012321272127
 6  4.09506159515952 -0.36538471477148 -0.58197834683468
 6  5.11150463486349  0.40192645804580 -0.93933370607061
 6  5.14818324132413  1.34232688198820 -2.15923008830883
 6  6.40606493929393  0.50979282948295 -0.12601908710871
 6  7.58762630053005  0.01257091019102 -0.91111806230623
 6  8.84132600520052  0.11811668126813 -0.08383019581958
 6  10.11730235473547 -0.37958503020302 -0.85660663116312
 6  10.09367606780678 -1.82663359945995 -1.43642710771077
 6  11.44158703560356 -0.14016779757976 -0.08958809020902
 6  12.77227213491349 -0.47686173727373 -0.58252827572757
 6  13.94653412181218 -0.01346254905491  0.13900096759676
 6  15.28477460236024 -0.15249897899790 -0.57927616741674
 6  15.63575524442444 -1.59024665846585 -1.02882249995000
 6  16.41837594349435  0.39253361336134  0.43689819701970
 6  17.81354594399440  0.53869526792679 -0.15212102670267
 6  18.88128849834984  1.08437665466547  0.74813524652465
 6  20.37687635683568  1.12816314981498  0.23540830403040
 6  20.38842019581958  2.06431472867287 -1.07804879757976
 6  21.32471340214022  1.56088902520252  1.36428179157916
 1 -4.08169965446545  3.53035855725573  1.49296388328833
 1 -10.21304169686969  3.96126696169617 -0.47961335283528
 1 -10.42793608300830 -2.49901924272427 -1.16160281248125
 1 -2.54474093099310 -0.87399571347135  1.96491718291829
 1 -2.13315692089209  1.79513309590959  1.47921857225723
 1 -2.09968442594259  0.83345379827983  3.75570928442844
 1 -3.31533659365937  2.20267432493249  3.72301446684668
 1 -3.64219766246625  0.49949463346335  3.71146355915592
 1 -2.29191167606761 -1.60821078147815 -0.56725063426343
 1 -2.05348702120212  0.14594184458446 -0.75532557215722
 1 -0.36546006340634  0.47785239913991  0.92808320742074
 1 -0.22717051905191 -1.41504601980198  1.06168012321232
 1 -5.47734651005101  6.68783742784278  0.38140384958496
 1 -5.56918390779078  6.35643900700070  2.10603690079008
 1 -4.24549850585058  5.45948711511151  1.05607878347835
 1 -9.48903095559556  5.60544669276928 -0.53732396059606
 1 -9.12537375327533  7.86765750465046  0.37327694949495
 1 -7.65712517831783  7.45412181168117  1.43070145564556
 1 -12.09459356445645  2.94458478447845 -2.27251025572557
 1 -13.23653332253225  1.71034492569257 -1.27732892439244
 1 -12.39738146924693  3.16779543424342 -0.51566281028103
 1 -12.54666944534453 -1.71660110521052 -1.22649760466047
 1 -13.28813753265326 -0.21295803260326 -1.80048557605761
 1 -12.90799715231523 -1.74350903710371 -3.51833171767177
 1 -12.37238080228023 -0.31681621922192 -4.00436393209321
 1 -11.23933021232123 -1.53628849594960 -3.72065068506851
 1 -9.13047265026503 -4.72984372727273 -1.77471073517352
 1 -8.04672403720372 -5.82074207840784 -0.65139475247525
 1 -9.63541342624262 -4.99358437973797 -0.04628645124513
 1 -3.20745144104410 -3.55128837953795 -0.15661093259326
 1 -1.51632979947995 -4.44965140484048  3.70087300260026
 1 -3.03823343194319 -5.73920553815381  3.64932777167717
 1 -1.32316042754275 -5.97881715491549  2.71882583548355
 1  2.87734703880388 -1.69091092699270 -1.49797376237624
 1  2.70732821042104  0.10094437403740 -2.12084523672367
 1  4.30580148574857 -0.71603381858186  0.56790000600060
 1  4.06443540704070  1.48437714811481 -2.64359272897290
 1  5.36143155485549  2.47527778667867 -2.19617608580858
 1  5.75173248084808  0.85511661916192 -2.98889762076208
 1  6.67314937783778  1.54004800480048  0.23069571237124
 1  6.44559867926793 -0.19754779217922  0.65690540724072
 1  7.48057544224422 -1.02035127032703 -1.22932425602560
 1  7.87795023092309  0.66221943004300 -1.58260118371837
 1  9.25191724332433  1.10303818881888  0.24841247344735
 1  8.91007949664967 -0.31390689688969  1.00332819651965
 1  10.03682123352335  0.29848238593859 -1.79805469496950
 1  9.27835282078208 -2.07790576707671 -2.06742266706671
 1  11.01606416211621 -2.26058284218422 -1.55802004590459
 1  9.71929481548155 -2.57335927792779 -0.47354679437944
 1  11.35403308420842  0.80480271047105  0.21603309080908
 1  11.26174922832283 -0.76040200150015  1.03468409000900
 1  12.98686200510051 -1.50649881108111 -1.05970363796380
 1  12.90847459996000 -0.06357566656666 -1.59349271057106
 1  13.91697313401340  0.98654121012101  0.50790813381338
 1  14.14773752685269 -0.47624722942294  1.14325084158416
 1  15.39750303880388  0.68835832083208 -1.49822418041804
 1  15.56404384728473 -2.02234252635263  0.01833037913791
 1  15.05925897659766 -2.02819519511951 -1.72444986008601
 1  16.64543417281728 -1.53438896379638 -1.30462193169317
 1  15.95367056775678  1.36258409210921  0.79200574487449
 1  16.43983843104310 -0.20834000910091  1.52929569076908
 1  18.02147308600860 -0.27723427082708 -0.52430577097710
 1  17.72973003750375  1.08913623252325 -1.08977255305531
 1  18.82580337293729  2.21672583028303  0.89235724102410
 1  18.86673383368337  0.76374055505551  1.81355135543554
 1  20.53643855655566  0.06250239843984 -0.09260219621962
 1  20.08381248784878  3.08772233413341 -0.81433502690269
 1  21.32817706980698  2.33150980378038 -1.37920928422842
 1  19.75044894929493  1.67450926172617 -1.89875684468447
 1  21.21783775897590  1.04573268236824  2.33943356055606
 1  22.36125783208321  1.57747897759776  0.94206917321732
 1  21.03816354625463  2.58907899119912  1.80732117261726
>>>>>>> 8e03b5b5abfc0030b3aa597dc0de36371bfbd096

