%nproc=4
%Mem=2GB
# td=(NStates=1) CAM-B3LYP/6-31G(d,p) 

TD

0 1
12 -7.19956052905291  0.58884763286329  0.11727941534153
 6 -4.89268388638864 -2.02153333173317  0.55312184488449
 6 -4.79602953185319  2.74569301660166  1.12462882778278
 6 -9.34513924942494  3.21676717221722 -0.46528938863886
 6 -9.62937325102510 -1.64966047704771 -0.90132656175618
 7 -5.07839126372637  0.37633745184518  0.73886430473047
 6 -4.38753845994600 -0.75418524052405  0.76125414861486
 6 -2.91308031343134 -0.44529395509551  1.20032038623862
 6 -3.11198463686369  1.03828649694970  1.55406613731373
 6 -4.35008200310031  1.49004975377538  1.11329835973597
 6 -2.99509459155916  1.29688197629763  3.11323273217322
 6 -1.93963742474247 -0.74618988038804 -0.04083012471247
 6 -0.50135755835584 -0.62065641284128  0.50987511681168
 6  0.51355249244925 -0.90078359125913 -0.62201758225823
 8  0.27924916501650 -1.22386779437944 -1.70542687438744
 8  1.78175998649865 -0.59156655305531 -0.17124391329133
 7 -7.13533398129813  2.58728431823182  0.44549324482448
 6 -6.05199447844784  3.30139111491149  0.82750628422842
 6 -6.35561281438144  4.82408669806981  0.81940262746275
 6 -7.66432913991399  4.93514414591459  0.41862025332533
 6 -8.08389266086609  3.44009320462046  0.16631917821782
 6 -5.31449940664066  5.81302376827683  1.20423518401840
 6 -8.43037083468347  6.11644267796780  0.07902488788879
 6 -8.27382127342734  7.26906302490249  0.80917716751675
 7 -9.07880015261526  0.73719658075808 -0.51227526122612
 6 -9.88934519421942  1.91789174227423 -0.67384370847085
 6 -11.11374047064706  1.56576491559156 -1.29527124662466
 6 -11.16028843274327  0.20645600970097 -1.40951966596660
 6 -9.94228990969097 -0.27736971127113 -0.95511052715272
 6 -12.22955177887789  2.55730630163016 -1.63583035783578
 6 -12.25752029832983 -0.70284769486949 -1.89379018751875
 6 -12.24748223662366 -0.97835024622462 -3.32168728732873
 7 -7.25752522082208 -1.43093270687069 -0.10550522752275
 6 -8.32477271707171 -2.28141331343134 -0.54907986318632
 6 -7.83410955655566 -3.65538380588059 -0.52272955025503
 6 -6.51763564766477 -3.59440377737774 -0.09964169606961
 6 -6.16570916731673 -2.29865814711471  0.20797360156016
 6 -8.67895536293629 -4.91657449984999 -0.78815729412941
 6 -5.32180665096510 -4.47800168366837  0.18822169476948
 8 -5.17068590649065 -5.65130961436144  0.37851488218822
 6 -4.23123670307031 -3.41199698949895  0.68693855915592
 6 -3.53951458235824 -3.77488270957096  1.98803917681768
 8 -3.78205980658066 -3.12904964116412  3.03812649374937
 8 -2.83174436813681 -4.89028375077508  1.82439102000200
 6 -2.21537212511251 -5.30485471457146  3.00210514601460
 6  2.77921043274327 -0.73311110571057 -1.16710791119112
 6  4.07166925592559 -0.54235241154115 -0.41997214621462
 6  5.04417790219022  0.40973723912391 -0.82398217091709
 6  4.89751817481748  1.02841549084909 -2.22154631993199
 6  6.36312064486449  0.50664251445145 -0.14746123132313
 6  7.63411094899490  0.08200785388539 -0.93546049654966
 6  8.92735460806081  0.07810267986799 -0.16260807360736
 6  10.18277890239024 -0.41001807350735 -0.87503847434743
 6  10.07396409660966 -1.91341227732773 -1.16215968096810
 6  11.42533541044105 -0.06887066786679 -0.00460959235924
 6  12.72317722542254 -0.24022807390739 -0.71368139103910
 6  13.99500896929693 -0.07997920072007  0.25533260076008
 6  15.26396252115211 -0.15128885798580 -0.52533077287729
 6  15.57222889178918 -1.55028266206621 -1.14472409010901
 6  16.43628773467347  0.36255061506151  0.40751525872587
 6  17.89310389978998  0.43375477387739 -0.16290210481048
 6  18.85821619111911  1.24879309630963  0.64925535853585
 6  20.33487215641564  1.28540887438744  0.18221298449845
 6  20.31341269506951  2.10143844104410 -1.13764475717572
 6  21.16630756155616  2.09453238953895  1.28294365776578
 1 -3.89880136463646  3.36560208160816  1.42056664356436
 1 -9.91133152585259  4.26546738173817 -0.54963035453545
 1 -10.34486777617762 -2.31797113791379 -0.98676532873287
 1 -2.55016147304731 -0.81866017991799  1.98599929112911
 1 -2.24794840004000  1.50765434803480  0.86978762916292
 1 -1.96826128362836  1.34072452535253  3.58351206470647
 1 -3.37065212521252  2.26078013551355  3.29847201260126
 1 -3.68081152385238  0.54577926192619  3.49667208000800
 1 -2.16898938383838 -1.80289024942494 -0.28388229742974
 1 -2.02834450695069  0.03215046544654 -0.93776381598160
 1 -0.37934145154515  0.48054266816682  1.12830322942294
 1 -0.24238204020402 -1.29801431663166  1.30271422662266
 1 -5.56288506390639  6.73692233633363  0.59572528172817
 1 -5.36881387078708  6.35367873097310  2.23043934103410
 1 -4.43294725072507  5.55896706310631  0.67687086268627
 1 -9.08048010051005  6.21217736583658 -0.82368259645965
 1 -8.74213542944294  8.23674441334133  0.73402302410241
 1 -7.69331879767977  7.30288668816882  1.67068545404540
 1 -11.76057016211621  3.14092441844184 -2.44746775147515
 1 -13.23039270847085  2.07664155535554 -2.02451364286429
 1 -12.38616034713471  3.33782243694369 -0.76868811281128
 1 -12.32072685108511 -1.52501194629463 -1.13944889978998
 1 -13.12636135503550 -0.03351008780878 -1.87030255775578
 1 -12.94789114171417 -1.50667535373537 -3.78092797729773
 1 -12.22859642384238 -0.16425096269627 -3.96663015871587
 1 -11.12403868316832 -1.39457432453245 -3.75173379337934
 1 -8.94632423542354 -4.87213795669567 -1.84031729582958
 1 -8.28376774157416 -5.85172517671767 -0.62262187518752
 1 -9.46271615651565 -4.76703172447245 -0.19445126772677
 1 -3.57475817171717 -3.59804305500550 -0.18833410491049
 1 -1.66566473297330 -4.51765820552055  3.35716863216322
 1 -2.92094170277028 -5.59467108470847  3.77500033893389
 1 -1.70946905840584 -6.24369364256426  2.83681763466347
 1  2.83018232233223 -1.73860569646965 -1.50128409340934
 1  2.57609508710871 -0.12585830623062 -1.93927707990799
 1  3.98507941354135 -1.21304351955196  0.26625984198420
 1  3.80151911541154  1.20306901730173 -2.45206357605761
 1  5.28339375107511  2.15498575747575 -2.08062453065307
 1  5.64193150075007  0.44270537803780 -2.77243597459746
 1  6.54319638253825  1.53557755775578  0.30582322512251
 1  6.34517863726373 -0.21420945834583  0.81870158685869
 1  7.41610899559956 -0.87693692889289 -1.44631595519552
 1  7.69605204110411  0.77232044014401 -1.56884980858086
 1  9.10348239983998  0.94256214121412  0.29074670687069
 1  8.84050253895390 -0.56949245544554  0.67155501920192
 1  10.33205075647565  0.15373791149115 -1.80035492499250
 1  9.48064304980498 -2.14568254475448 -2.00377630243024
 1  11.05597815351535 -2.06034281818182 -1.62017626152615
 1  10.05335822182218 -2.48393033503350 -0.20937037673767
 1  11.51954963586359  0.94948717891789  0.28615010251025
 1  11.46985003840384 -0.77958391969197  0.74251487308731
 1  12.68376169506951 -1.06905506670667 -1.41610927852785
 1  12.68300205270527  0.49546023702370 -1.57274063536354
 1  13.64357579427943  0.77544010001000  0.79439678267827
 1  13.96634938803880 -0.80782038673867  0.94803131963196
 1  15.25566885538554  0.51423090809081 -1.30002436043604
 1  15.67262470537054 -2.27719801190119 -0.47957941184118
 1  14.93027607830783 -1.72459483508351 -2.02668008310831
 1  16.47134676407641 -1.50931645654565 -1.59334080358036
 1  15.99711491219122  1.27760559425943  0.78351489578958
 1  16.59101354855486 -0.12498167326733  1.23102586378638
 1  18.36273721242124 -0.73113966136614 -0.23359670007001
 1  17.89672673717372  1.02224954385439 -1.09369294509451
 1  18.43074386698670  2.41035519321932  0.81925993129313
 1  18.90652781308131  0.82624680568057  1.59941994229423
 1  20.56058097079708  0.31517766596660  0.01578864286429
 1  20.16897100370037  3.08533209510951 -0.78236182958296
 1  21.43213746584659  2.01412806560656 -1.63866522982298
 1  19.65294919931993  1.66844865566557 -1.72929989898990
 1  20.96358233343334  1.68134624372437  2.30106972417242
 1  22.20300200650065  1.99881111081108  1.02633760006001
 1  20.80445017491749  3.13567365066507  1.41758219871987

