%nproc=4
%Mem=2GB
# td=(NStates=1) CAM-B3LYP/6-31G(d,p) 

TD

0 1
12 -7.14870544354435  0.61422017011701  0.23217090449045
 6 -4.79077369536954 -1.90733191159116  0.54811134383438
 6 -4.90143007190719  2.76270471777178  1.14117048194819
 6 -9.46410114561456  3.12999849534953 -0.45881874157416
 6 -9.50221053475348 -1.76962247324732 -0.94937136623662
 7 -5.13739716431643  0.39049886798680  0.71463188148815
 6 -4.21563126922692 -0.63669349134913  0.78754677787779
 6 -2.83695270067007 -0.33142256795680  1.27856821102110
 6 -2.99455289368937  1.22442511081108  1.62984371507151
 6 -4.41851884678468  1.48356910571057  1.10523755365537
 6 -2.96640172227223  1.30132242034203  3.12347375627563
 6 -1.90740420142014 -0.65104036543654  0.06842080038004
 6 -0.38294571717172 -0.40539488668867  0.47527165646565
 6  0.55494663186319 -0.64847836073607 -0.64052943344334
 8  0.33118435853585 -0.95064047164716 -1.79685601730173
 8  1.81999380988099 -0.52944034043404 -0.17727451635164
 7 -7.15973642154215  2.68798438823882  0.35076377187719
 6 -6.09515879487949  3.43041401720172  0.72958649224922
 6 -6.44926217931793  4.75380967036704  0.77176786398640
 6 -7.76280898789879  4.84723535503550  0.25308369966997
 6 -8.18786305790579  3.47936713201320  0.00350289658966
 6 -5.51382933963396  5.89851231713171  1.02891765226523
 6 -8.41607940554055  6.09688072177218  0.12789977537754
 6 -8.36477036833683  7.18990510911091  0.85851210101010
 7 -9.18129040164016  0.69474233533353 -0.56492052575258
 6 -9.92447870757076  1.85568552165217 -0.75507183128313
 6 -11.23569266586659  1.40806914601460 -1.02599431893189
 6 -11.27923032693269  0.01204656875688 -1.18032674667467
 6 -9.96150183088309 -0.40285225952595 -0.87259227532753
 6 -12.41283010671067  2.33323389438944 -1.29411618641864
 6 -12.39118366466647 -0.84237164726473 -1.82260306880688
 6 -12.20245773417342 -1.00657306850685 -3.30864598319832
 7 -7.17600706900690 -1.34345395899590 -0.20830550755076
 6 -8.25773601340134 -2.17509268136814 -0.62353730893089
 6 -7.77484362996300 -3.65892415991599 -0.45207248454846
 6 -6.49561344544454 -3.52314665166517 -0.03254498639864
 6 -6.09942253865387 -2.13443172447245  0.04670747494749
 6 -8.59061652905290 -4.86627947034703 -0.73991246964696
 6 -5.25809027932793 -4.35963984748475  0.17461033363336
 8 -5.17942678057806 -5.56443092649265  0.14707173787379
 6 -4.09850342974297 -3.43259904970497  0.53308317361736
 6 -3.47819845074507 -3.71506672797280  1.90888126102610
 8 -3.75389699029903 -3.15454219041904  3.00257293839384
 8 -2.61730292399240 -4.69501422382238  1.82693127402740
 6 -1.92343293119312 -5.20375460456046  3.09287422292229
 6  2.90760327202720 -0.74658245284528 -1.15539674007401
 6  4.12199428842884 -0.45515369166917 -0.42065221422142
 6  5.13158664306431  0.31133739913991 -0.86886665936594
 6  5.03585200820082  1.17753040234023 -2.17358152345235
 6  6.45257959075908  0.58914076427643 -0.18656514171417
 6  7.56217375527553 -0.21161150805081 -0.96361331183118
 6  8.93205507810781 -0.11830696109611 -0.17315912871287
 6  10.16047667216722 -0.45682275397540 -0.95531650215021
 6  10.01014771497150 -2.03738467456746 -1.40860432543254
 6  11.35758863576358 -0.25428920972097 -0.03916304770477
 6  12.69996490419042 -0.54625867696770 -0.85410543344334
 6  13.86692616101610 -0.16913811661166  0.10643771127113
 6  15.30173629852985 -0.22407613671367 -0.60245848564856
 6  15.72363403230323 -1.63692132593259 -0.98430804850485
 6  16.39264337023702  0.25699005900590  0.39954446164616
 6  17.69830441984198  0.44685608400840 -0.09814562916292
 6  18.71265163466347  1.16606482348235  0.82577301030103
 6  20.15153382258226  1.35390572407241  0.26740150335034
 6  20.25550690449045  2.18314661186119 -0.94447544024402
 6  21.00302123292329  2.01458439473947  1.37386274967497
 1 -4.22689417391739  3.59244476587659  1.72333692059206
 1 -10.20514090679068  3.94548538353835 -0.49058444994499
 1 -10.39907319671967 -2.58266760756076 -1.21730838303830
 1 -2.62647910481048 -1.08848716261626  2.10634132533253
 1 -2.15075868106811  1.76480006260626  1.08487913831383
 1 -2.09933439093909  0.75126557945795  3.49698341184118
 1 -2.82345740574057  2.29077313481348  3.44227639303930
 1 -3.80047349004900  0.69486417041704  3.74592700550055
 1 -1.98754123902390 -1.74806476687669 -0.25943985318532
 1 -2.06944861736174 -0.13109585918592 -0.92404244384438
 1 -0.10442395979598  0.65591020492049  0.95966636573657
 1 -0.07992579457946 -1.06828134333433  1.38513246844684
 1 -5.83678245364536  6.96748539263926  0.72269797899790
 1 -5.07855484488449  6.18663202630263  2.20817711481148
 1 -4.49608356435644  5.62872403880388  0.71487466306631
 1 -9.17388944144415  6.15169131723172 -0.63755398359836
 1 -9.08846006190619  8.11969270817082  0.59813943574357
 1 -7.67742720852085  7.45267166666667  1.60285867136714
 1 -12.10453455855586  3.29290961696170 -1.92136514121412
 1 -13.40453012221222  1.94878877007701 -1.85466665816582
 1 -12.59464119521952  2.77108576327633 -0.38678992299230
 1 -12.23825860426043 -1.89764921002100 -1.13154810971097
 1 -13.49095781468147 -0.51815855265527 -1.50151567906791
 1 -13.02725907850785 -1.67834252045205 -3.58174805930593
 1 -12.34415797999800  0.06891235363536 -3.84420791649165
 1 -11.51186746604660 -1.67581244834484 -3.75383400340034
 1 -8.79919952295230 -4.76430717361736 -1.84904816891689
 1 -7.87559692449245 -5.72171217541754 -0.64692430543054
 1 -9.62801268616862 -4.87654267556756 -0.11267308990899
 1 -3.25969666556656 -3.19987323802380 -0.23707897939794
 1 -1.46774494099410 -4.26398283798380  3.57562047734774
 1 -2.57759736833683 -5.68705032263226  3.76024886378638
 1 -1.21758987048705 -5.84266353955396  2.59688364126413
 1  2.71197050115011 -1.85287712361236 -1.31444540954095
 1  2.60487796539654 -0.18637435783578 -1.98575172737274
 1  4.32860376597660 -1.07639985518552  0.35356857285729
 1  4.07666663016302  1.23464217461746 -2.74184255395540
 1  5.38700411211121  2.08027828672867 -1.98915538373837
 1  5.88798610621062  0.84887599509951 -2.87966669766977
 1  6.69884194709471  1.64697869786979 -0.10951830903090
 1  6.40712483188319 -0.01524956235624  0.87652736943694
 1  7.35508289298930 -1.35167440264026 -0.95995731933193
 1  7.82891532743274  0.23468667676768 -1.95720864446445
 1  8.95326737833783  0.91984986998700  0.38392602480248
 1  8.81914040274028 -0.71647715391539  0.87907577127713
 1  10.28331588298830  0.08610114781478 -1.84336922642264
 1  9.21451643714371 -2.09897787428743 -2.15060098489849
 1  10.93999655535554 -2.49350613451345 -1.77225146904690
 1  9.49893277927793 -2.46069801180118 -0.65634507420742
 1  11.17663534443444  0.74310654085409  0.13755524302430
 1  11.23256631003100 -0.59500546184618  0.90320094169417
 1  12.81148446734674 -1.62323048424842 -1.32166983458346
 1  12.72640639313931 -0.13746305530553 -1.69687304860486
 1  13.77912934963496  0.74865742174217  0.61711905490549
 1  13.95965871897190 -0.93376298099810  1.07388390489049
 1  15.26244953345335  0.40216970197020 -1.61475583358336
 1  15.61727917081708 -2.40481077317732 -0.24145559945995
 1  14.98322137283728 -1.88671104670467 -1.72435985108511
 1  16.63356298569857 -1.76643216811681 -1.53937540704070
 1  16.10568576927693  1.22512034573457  0.78705524982498
 1  16.27265171237124 -0.35880505560556  1.19932269346935
 1  18.04612555125513 -0.44228077547755 -0.24919826022602
 1  17.71706877137714  0.92747006590659 -1.15822939873987
 1  18.51846263886389  2.27769192689269  1.18969697499750
 1  18.86132329262927  0.65605978697870  1.82637263756376
 1  20.57899281198120  0.29802595079508  0.09533659765977
 1  19.91222532913291  3.24770833273327 -0.78369196259626
 1  21.28803305540554  2.42915956875688 -1.14274563786379
 1  19.69928383278328  1.75780759155916 -1.70351732073207
 1  21.06342231743174  1.33941205030503  2.25786540374037
 1  22.08344005030503  2.33798502820282  1.07516248254826
 1  20.56478620852085  2.93828391169117  1.68146858735874

