%nproc=4
%Mem=2GB
# td=(NStates=1) CAM-B3LYP/6-31G(d,p) 

TD

0 1
12 -6.97935850885088  0.64168291639164  0.04616230363036
 6 -4.90910552855286 -1.97976915531553  0.58723525622562
 6 -4.81778170707071  2.82152059935994  1.17326369126913
 6 -9.38946368186819  3.06306180168017 -0.42496535623562
 6 -9.53770408410841 -1.72057756875688 -0.77680410951095
 7 -5.08810223482348  0.49603942204220  0.60372079037904
 6 -4.36703640974097 -0.72827264926493  0.73739176237624
 6 -2.89391839723972 -0.38948837453745  1.22612296649665
 6 -3.05163860226023  1.04816748504850  1.69636036673667
 6 -4.35281227612761  1.53262401120112  1.12519954985499
 6 -2.94871995409541  1.19222151025103  3.21200260916092
 6 -1.91906536753675 -0.62651791319132  0.04174813311331
 6 -0.39773719631963 -0.30407475467547  0.44050818011801
 6  0.59312044924492 -0.48698221112111 -0.76412179267927
 8  0.23989522962296 -0.91260666826683 -1.83667999969997
 8  1.82443425392539 -0.24539193559356 -0.23982077097710
 7 -7.19617006490649  2.62080767056706  0.35639433493349
 6 -6.12234151315132  3.33499447524752  0.77854138773877
 6 -6.50653790689069  4.80480476987699  0.88269895709571
 6 -7.79325203220322  4.87096772827283  0.48850724202420
 6 -8.16627089868987  3.41669086438644  0.11945449174917
 6 -5.51516947364737  5.91981444734474  1.31117587808781
 6 -8.59700749834983  5.92336337003700  0.24571155655566
 6 -8.52493638493849  7.09501562016202  0.97473372317232
 7 -9.11206347894790  0.61668452955296 -0.62825685938594
 6 -9.76300255995599  1.83159311241124 -0.88334465856586
 6 -11.18603770037004  1.37163550265027 -1.23328504800480
 6 -11.16281868576858  0.00198556265627 -1.29950866486649
 6 -9.90497617831783 -0.43523549784979 -0.87183219931993
 6 -12.21283010671067  2.44996556755676 -1.51084785958596
 6 -12.23701824812481 -0.84918232833283 -1.71751255975598
 6 -12.17301478987899 -1.26908932013201 -3.23034815341534
 7 -7.19679914821482 -1.42282189578958 -0.09724440144014
 6 -8.27987822762276 -2.28895406750675 -0.40667562276228
 6 -7.81235738133813 -3.62113038053805 -0.47698497579758
 6 -6.45026891099110 -3.60231456845685 -0.11946367826783
 6 -6.14738733513351 -2.19962824412441  0.00796360056006
 6 -8.53439090649065 -4.86913975637564 -0.78050652905291
 6 -5.28159262956296 -4.33706759025903  0.24873774637464
 8 -5.19619845774577 -5.54945942934293  0.27273430413041
 6 -4.10935451485149 -3.36701249104910  0.57123698899890
 6 -3.63145377627763 -3.62050727202720  1.95058543144314
 8 -3.85251685228523 -2.95096183238324  2.97535021612161
 8 -2.74822601630163 -4.64605932833283  1.97971655255526
 6 -2.16492708060806 -5.11193542264226  3.18055299079908
 6  2.79383189488949 -0.55011280588059 -1.29464066446645
 6  4.11214330333033 -0.41138931523152 -0.65829597859786
 6  5.12712619701970  0.40490675607561 -1.12373214591459
 6  5.02463088608861  1.27010966026603 -2.37180134543454
 6  6.34585891869187  0.41071292149215 -0.32009849504950
 6  7.65756329422942 -0.03374372127213 -1.13948089858986
 6  8.94070594319432 -0.16379150955095 -0.18249006180618
 6  10.13947457195720 -0.46247331903190 -0.97548851935194
 6  10.11327802800280 -1.96159709580958 -1.49880334533453
 6  11.34915779267927 -0.14381816261626 -0.12795192659266
 6  12.76187109480948 -0.58598264936494 -0.72383240614061
 6  13.91395086348635 -0.22724392719272  0.23711077857786
 6  15.31385751065107 -0.34106783588359 -0.37416565636564
 6  15.74388605750575 -1.70687832163216 -0.65923554125413
 6  16.35030913681368  0.41584594459446  0.52864737193719
 6  17.71264585398540  0.50566196459646 -0.14988080268027
 6  18.74399476897690  1.20624884188419  0.88199863286329
 6  20.20002867206721  1.24466479998000  0.27714247744774
 6  20.23565491929193  2.17555585278528 -1.08915990869087
 6  21.20033096389639  1.75265820212021  1.29811517491749
 1 -4.14619610411041  3.69322484388439  1.23332791969197
 1 -10.05521591429143  3.98049888488849 -0.47453284478448
 1 -10.25662895229523 -2.46899624042404 -1.13206985918592
 1 -2.73065952285228 -1.17170548444844  2.03226391759176
 1 -2.14656826202620  1.65271885448545  1.37162781318132
 1 -1.83370782828283  0.92332278517852  3.37042075557556
 1 -3.42043710371037  2.22439649714972  3.50277244264426
 1 -3.69366280898090  0.43759844384438  3.45159757255726
 1 -1.94120660556056 -1.70975093549355 -0.25093900310031
 1 -2.22750442294229 -0.08536128572857 -0.69510955055506
 1 -0.26948046544654  0.75456006990699  0.62245264436444
 1 -0.03747154915492 -0.85505002020202  1.26923087828783
 1 -5.71816059145915  6.83967261136114  0.80662637183718
 1 -5.38939592899290  5.94840820392039  2.50396669376938
 1 -4.45459941594159  5.77234840124012  0.88434160976098
 1 -9.45398745124512  5.88231437953795 -0.49297952615261
 1 -9.24758597449745  7.89953069196920  0.93822344414442
 1 -7.87188665446545  7.21119751925193  1.77087547304730
 1 -11.79887399249925  3.27554788078808 -2.23589659435944
 1 -13.09492916211621  2.00544443564356 -1.92035322682268
 1 -12.52258398949895  3.05123377807781 -0.57096834083408
 1 -12.25768054645465 -1.72446189128913 -1.12468742364236
 1 -13.19334805370537 -0.44050078687869 -1.45612113961396
 1 -13.06428278087809 -1.86865155135514 -3.63778366286629
 1 -12.02414597879788 -0.47803234083408 -3.83821731743174
 1 -11.27054333363336 -2.06640150725072 -3.40421904190419
 1 -8.54382398539854 -5.08334907780778 -1.87791105520552
 1 -7.97926729152915 -5.81980198439844 -0.58259787278728
 1 -9.59417930283028 -4.69730475177518 -0.24080590319032
 1 -3.20252094799480 -3.66835008570857  0.09041376987699
 1 -1.53229139563956 -4.26104254395440  3.57884079937994
 1 -2.95299490809081 -5.46747836543654  4.00403324222422
 1 -1.51753986548655 -5.97909718291829  2.82044599749975
 1  2.57578688278828 -1.62399423532353 -1.65553951895189
 1  2.65520299789979  0.11614589418942 -2.14287743994399
 1  4.29841074667467 -1.02953516871687  0.18919213521352
 1  4.04067303080308  1.25707441784178 -2.78891726142614
 1  5.41607701940194  2.21553181208121 -2.00412688088809
 1  5.67502481008101  0.79828093559356 -2.88832756375638
 1  6.56332839573957  1.43155715571557 -0.21399875707571
 1  6.35106922632263 -0.12792082948295  0.70969068576858
 1  7.28783616831683 -1.01272050725073 -1.60470179377938
 1  7.64045648154815  0.64451765986599 -1.95598852245224
 1  9.09999205080508  0.74469235423542  0.27583521572157
 1  8.78626711541154 -0.88456396259626  0.60876874057406
 1  10.28807635903590  0.16251878957896 -1.89347423692369
 1  9.33926891239124 -2.37034501100110 -2.03014893969397
 1  11.12276483218322 -1.97591437533753 -1.96578082198220
 1  10.22149503550355 -2.65208715071507 -0.58948838853885
 1  11.38606628752875  0.88776100630063  0.15645713321332
 1  11.19048210161016 -0.65400136143614  0.69687030863086
 1  12.81723504240424 -1.74133229442944 -0.83953162076208
 1  12.75389914241424  0.12284297529753 -1.70998435973597
 1  13.89398083478348  0.72722527852785  0.48814615761576
 1  13.77279003210321 -0.59511911661166  1.24817133363336
 1  15.25525881438144  0.41887137213721 -1.32586694469447
 1  15.75962340524052 -2.42931322342234  0.18871741784178
 1  14.85500855155516 -2.18662103770377 -1.29363677877788
 1  16.55396502590259 -1.92533805870587 -1.09565103460346
 1  16.07497269796980  1.35121295499550  0.86708325262526
 1  16.31127557475747 -0.15208438353835  1.44789755095510
 1  18.31404234293429 -0.47155370277028 -0.39525286568657
 1  17.56854391889189  0.91346866576658 -1.15663923972397
 1  18.49237002960296  2.32471662936294  1.13153115841584
 1  18.83722088238824  0.51366554755476  1.75371537183718
 1  20.69411432413241  0.36060220842084 -0.17343027902790
 1  19.67175128172817  3.08095165706571 -0.91350494389439
 1  21.33896814891489  2.29226587938794 -1.38250961426143
 1  19.83542744714472  1.44042585338534 -1.81197816681668
 1  21.17187316251625  1.10659876897690  2.22246186338634
 1  22.28294000030003  1.96608783848385  0.76756172247225
 1  20.83076280618062  2.68635871917192  1.69475991649165

