%nproc=4
%Mem=2GB
# td=(NStates=1) CAM-B3LYP/6-31G(d,p) 

TD

0 1
<<<<<<< HEAD
12 -7.07726829982998  0.51291003910391  0.10866855425543
 6 -4.88623324132413 -1.92538371677168  0.39680621332133
 6 -4.70427035593559  2.83944239153915  1.04660102500250
 6 -9.48340307580758  3.01959745524552 -0.30270313001300
 6 -9.51105141884189 -1.82137764876488 -0.91688811791179
 7 -5.12518594319432  0.47384720282028  0.63324374267427
 6 -4.31567127322732 -0.66511633363336  0.65727375057506
 6 -2.92226123152315 -0.30650007570757  1.26668702290229
 6 -3.02522596099610  1.15258792709271  1.55532626332633
 6 -4.34118111301130  1.53742449124913  0.99637666756676
 6 -2.88440352245225  1.37069935803580  3.10352176107611
 6 -1.93914737573757 -0.65010027142714  0.05254921322132
 6 -0.51757918051805 -0.54085843304330  0.47762189148915
 6  0.46191732893289 -0.75638915181518 -0.55235061556156
 8  0.29614085418542 -1.05487089468947 -1.73213954565457
 8  1.76200801130113 -0.55859325572557 -0.10321711061106
 7 -7.04827527542754  2.61241683148315  0.28431712721272
 6 -6.04625390439044  3.39125010081008  0.71220475407541
 6 -6.45175242834283  4.82734702410241  0.76767745494549
 6 -7.73078578557856  4.82154278577858  0.37339573087309
 6 -8.19843411501150  3.49063825912591  0.09275182148215
 6 -5.58855681238124  5.94307677357736  1.37560232073207
 6 -8.61231902950295  6.04635566926693  0.14180116551655
 6 -8.61471536283628  7.24071018961896  0.92679892969297
 7 -9.18029030163016  0.52566542764276 -0.49484351805181
 6 -9.87698395809581  1.73557351045105 -0.53376970107011
 6 -11.25984508110811  1.51226956605661 -1.12612433193319
 6 -11.27126953085308  0.10002536663666 -1.19262797679768
 6 -9.89488516921692 -0.46276825112511 -0.94029904600460
 6 -12.40660948464846  2.49577014801480 -1.56603337813781
 6 -12.36801134743474 -0.75170258035804 -1.73337414591459
 6 -12.19807729612961 -0.97951036223622 -3.30823594219422
 7 -7.25034450275028 -1.44933454705471 -0.13782845984598
 6 -8.28502874267427 -2.23649882198220 -0.51739669486949
 6 -7.87230337593759 -3.64483275077508 -0.41319859715972
 6 -6.57662154625463 -3.62323666066607 -0.10253198509851
 6 -6.16866946334633 -2.12124040534053  0.09480228442844
 6 -8.64259172657266 -4.92208505090509 -0.67616609500950
 6 -5.31863633393339 -4.36031991549155  0.24613748634863
 8 -5.19606844474447 -5.57306178957896  0.16543357405741
 6 -4.16648022742274 -3.28759454925493  0.50626049134914
 6 -3.69144977587759 -3.69978519981998  1.98711908480848
 8 -3.88403000360036 -3.05705244144414  3.03634631573157
 8 -2.75715690939094 -4.70704542694269  1.87318589948995
 6 -2.15742633053305 -5.18596282538254  3.14692962846285
 6  2.81640415211521 -0.55972376697670 -1.11210241064106
 6  4.15234732373237 -0.37463563986399 -0.50472062106211
 6  5.20604408880888  0.38974523992399 -0.97633740644064
 6  5.04583300630063  1.14223687298730 -2.26655082038204
 6  6.48231256405641  0.52661451165117 -0.25053153835384
 6  7.65593313121312 -0.06289663656366 -0.90972792329233
 6  8.97967984058406 -0.00219534993499 -0.22347416021602
 6  10.22019264376438 -0.51128820052005 -1.12341331183118
 6  10.17712441264126 -2.07630856695670 -1.42553601860186
 6  11.47077995489549 -0.22686646744674 -0.18575770717072
 6  12.81973688138814 -0.56453050415041 -0.87568759165917
 6  13.98298776717672 -0.23015421822182  0.01349841734173
 6  15.38611473637364 -0.29032276137614 -0.60011825162516
 6  15.89910157905791 -1.73849148294829 -0.96394601230123
 6  16.46461056695670  0.39460382038204  0.48187269446945
 6  17.80153474287428  0.59259065746575 -0.03810962556256
 6  18.80366073557356  1.26518473547355  0.91756218921892
 6  20.29987865706570  1.34063439693969  0.36091085428543
 6  20.39323067686769  2.09836813401340 -0.97663865656566
 6  21.18952988378838  1.97177011331133  1.38789415281528
 1 -3.96129761426143  3.61728725012501  1.27367195409541
 1 -10.16536692939294  3.85979681468147 -0.40821621312131
 1 -10.24030732013201 -2.57714705550555 -1.35743239543954
 1 -2.75739219611961 -1.09813812771277  2.18448914011401
 1 -2.25152875807581  1.88477205980598  0.99709035943594
 1 -1.90856531403140  1.02575302820282  3.36464017751775
 1 -3.03204826482648  2.42895695319532  3.41315348074807
 1 -3.68802224492449  0.76783146714671  3.67397981078108
 1 -1.90862334723472 -1.64038399879988 -0.39424333353335
 1 -2.22062373487349  0.03878112851285 -0.81270130973097
 1 -0.46059957735774  0.46274088798880  1.08108850795080
 1 -0.27151495349535 -1.26701121632163  1.27321127632763
 1 -5.95154392979298  6.87086573067307  0.86944265346535
 1 -5.95682267166717  6.13439680278028  2.38828512561256
 1 -4.56281023702370  5.74766593299330  1.31402457805781
 1 -9.19714176667667  5.92123827192719 -0.82113234143414
 1 -9.05328654455445  8.07706844574457  0.45472509430943
 1 -7.97260672647265  7.22574897439744  1.73244162966297
 1 -11.94990909600960  3.10037036303630 -2.36276928162816
 1 -13.19874954415442  1.88747263846385 -2.08189938143814
 1 -12.89925165626563  3.17246590129013 -0.78286953095310
 1 -12.47446222462246 -1.75411485658566 -1.15036999189919
 1 -13.31329004790479 -0.35670240704070 -1.58342386988699
 1 -13.03490984358436 -1.75603028922892 -3.73054293879388
 1 -12.48454201840184 -0.07729226682668 -3.82099559525953
 1 -11.17762404170417 -1.27247211431143 -3.54847346734674
 1 -9.02659226222622 -5.28393913681368 -1.75940920502050
 1 -7.93374273907391 -5.71089109330933 -0.49980959395940
 1 -9.46537642254225 -4.86796181748175 -0.02268409100910
 1 -3.44983567946795 -3.41543479417942 -0.12313758525853
 1 -1.56324449094910 -4.45586202590259  3.61562447774778
 1 -2.95018462706271 -5.36738835643564  3.98352119101910
 1 -1.65197330883088 -6.09474874807481  2.75685963886389
 1  2.58632793689369 -1.64829666556656 -1.45996996199620
 1  2.58632611021102  0.05233951355135 -1.92489564176418
 1  4.41782268786879 -1.01789400460046  0.43987720372037
 1  3.96757572107211  1.35621433183318 -2.58875724542454
 1  5.45810122182218  2.26269652855286 -2.10533700190019
 1  5.84280158775877  1.03045415291529 -2.92925165616562
 1  6.77429949284928  1.64732873287329 -0.08088544574457
 1  6.24994911431143  0.02905486808681  0.64287400410041
 1  7.50788817351735 -1.08420765596560 -1.01266258985899
 1  7.94424686058606  0.55474868296830 -1.81529445304530
 1  9.21401345294529  0.89406729172917  0.07823545574557
 1  8.80991948064807 -0.54484999119912  0.67054491819182
 1  10.11730928232823  0.11043358105811 -1.96873176267627
 1  9.33435842134213 -2.33149112561256 -2.03463938873887
 1  11.16163871957196 -2.51652843674367 -1.97885212911291
 1  9.94586747274728 -2.70008195019502 -0.63262270197020
 1  11.54024170507051  0.80769299949995  0.26406789428943
 1  11.41422447584759 -1.04999096039604  0.63202382398240
 1  12.86979029792979 -1.56602476367637 -1.23465113271327
 1  12.98967271977198  0.01240193119312 -1.86825018631863
 1  13.81294273097310  0.88969152515252  0.28471581458146
 1  14.07711046414641 -0.86737634233423  0.98097461396140
 1  15.43017630613061  0.53428291329133 -1.47781213921392
 1  15.86777422032203 -2.27149744184418 -0.04553600750075
 1  15.10500355105511 -2.13884626022602 -1.58805622072207
 1  16.83633326272627 -1.67591311621162 -1.26201767126713
 1  16.08353355405540  1.32622045574557  0.77432397669767
 1  16.31871631883188 -0.18400757585759  1.40341310251025
 1  18.22861380008001 -0.32305885328533 -0.52589592999300
 1  17.72981004550455  1.29687700660066 -0.88143171897190
 1  18.37323811641164  2.20615477317732  1.05533353865386
 1  18.72514967526753  0.92066624762476  1.96734673497350
 1  20.50995590829083  0.19161530973097  0.11265832983298
 1  20.03508761536153  3.11050461236124 -0.79510310371037
 1  21.28424267636764  2.25941259405941 -1.46505786908691
 1  19.53765767016702  1.65787759855986 -1.65765273427343
 1  21.33439941514152  1.36222433153315  2.36099571677168
 1  22.40553225952595  1.97703893359336  1.00981594789479
 1  20.66505623552355  2.97570765406541  1.51813225372537
=======
12 -7.08311888488849  0.60688943704370  0.07220490789079
 6 -4.85574019201920 -1.91876305470547  0.49040557325733
 6 -4.71020094899490  2.90021846914691  1.04510087498750
 6 -9.30863559905991  3.11003649914991 -0.43419627932793
 6 -9.50123043674368 -1.80853636463646 -0.94884131323132
 7 -5.18224164876488  0.40628044614461  0.78686910521052
 6 -4.40859056515652 -0.68957877987799  0.84503252645265
 6 -2.93487249264926 -0.36139556525653  1.35228558275828
 6 -3.09694313271327  1.13122579087909  1.73535426612661
 6 -4.39405640054005  1.46637738653865  1.24813184308431
 6 -2.88171325342534  1.29251153925393  3.26947835673567
 6 -1.90305376637664 -0.67751301270127  0.19860381868187
 6 -0.50760818341834 -0.32773712091209  0.63823795309531
 6  0.54184532173217 -0.60813432633263 -0.48745412591259
 8  0.20680192029203 -1.03340874847485 -1.59999633133313
 8  1.67452926342634 -0.42807020342034 -0.07991478037804
 7 -7.01774222212221  2.58162375217522  0.29190788628863
 6 -5.97406668566857  3.36845782158216  0.72167570117012
 6 -6.40405765886589  4.82631692109211  0.64044473167317
 6 -7.66779948694869  4.82914354585458  0.29872826412641
 6 -8.18294256585659  3.47290648594859 -0.04153160686069
 6 -5.51149910661066  5.88315078097810  1.08021278177818
 6 -8.59940773837384  5.99527056075608  0.04330131553155
 6 -8.56000989228923  7.12926904550455  0.79400565036504
 7 -9.00757302990299  0.64615747684768 -0.55409944364436
 6 -9.79865612531253  1.81458141124112 -0.62880920502050
 6 -11.10566966356636  1.47790612971297 -1.06573829332933
 6 -11.13481588548855  0.03482884698470 -1.25129384338434
 6 -9.81196687738774 -0.38129010331033 -0.98767378347835
 6 -12.23815263896390  2.51191176217622 -1.45849262406241
 6 -12.34306885318532 -0.81388879897990 -1.76907771627163
 6 -12.13812130053005 -1.18947135833583 -3.31987710631063
 7 -7.25481494979498 -1.39809942354235 -0.09988466546655
 6 -8.21330156995699 -2.26088126022602 -0.50440539573957
 6 -7.89056520212021 -3.63831209870987 -0.44788206550655
 6 -6.56071995609561 -3.49438377537754 -0.16984871677168
 6 -6.16853945034504 -2.18488676997700  0.08122092629263
 6 -8.68984645204520 -4.81505434783478 -0.87405588398840
 6 -5.33341781208121 -4.36931081458146  0.18357122972297
 8 -5.25388422632263 -5.56456093949395  0.21002803350335
 6 -4.24024760416042 -3.24702049184918  0.59214908020802
 6 -3.55474610551055 -3.69155437673767  1.78270864376438
 8 -3.80065166576658 -3.26334307050705  2.93245592669267
 8 -2.65655684938494 -4.71734645704570  1.56753533443344
 6 -2.09009959785979 -5.24919914901490  2.87843277877788
 6  2.70205271697170 -0.53543133773377 -1.11439263966397
 6  4.11748383738374 -0.37007518381838 -0.42169231823182
 6  5.09612309670967  0.38662492789279 -0.87996776947695
 6  5.03808223122312  1.27355000430043 -2.12987715301530
 6  6.31110544334433  0.36853870407041 -0.02779926512651
 6  7.59123666156616 -0.28539888678868 -0.80657760826083
 6  8.86117799039904 -0.17747287768777  0.01845003220322
 6  10.14327495199520 -0.57675474717472 -0.79584055455546
 6  10.03410011021102 -2.10225116121612 -1.20711417641764
 6  11.35062793969397 -0.37082086288629  0.08929979857986
 6  12.68916382408241 -0.47288133923392 -0.71825184808481
 6  13.91214068246825 -0.06225742854285  0.11957902540254
 6  15.28269439433943 -0.20075380448045 -0.63975221502150
 6  15.50850251915191 -1.65354298809881 -1.01183080078008
 6  16.40678478437844  0.39908426842684  0.34653916111611
 6  17.88199278867887  0.50525192359236 -0.22106792139214
 6  18.79991036053605  1.28654687168717  0.59492992599260
 6  20.34541321052105  1.34599493299330  0.05196996019602
 6  20.45143649744974  2.17054535173517 -1.09305029772977
 6  21.25956688748875  2.02518545484548  1.20780614401440
 1 -3.98257974247425  3.61505702710271  1.30236482338234
 1 -9.93775416811681  4.06927776277628 -0.50153554505451
 1 -9.99644293369337 -2.63741308210821 -1.30406705890589
 1 -2.72709916681668 -0.94094240814081  2.16019671087109
 1 -2.34676828202820  1.90251383398340  1.31711236163616
 1 -1.83212767026703  0.99270972387239  3.33290700420042
 1 -2.90913597359736  2.30868492599260  3.63554571997200
 1 -3.53383682638264  0.66107079107911  3.93647606040604
 1 -2.10937342224222 -1.75224518491849 -0.19583349254926
 1 -2.18919059155916 -0.31550430003000 -0.80576061566157
 1 -0.30209372677268  0.79192380628063  0.88234863396340
 1 -0.03636143814381 -0.95623013821382  1.50068402360236
 1 -5.85650442584258  6.83809245334534  0.83418912811281
 1 -5.42403939333933  5.78233159625963  2.25737203430343
 1 -4.29466342234223  5.79959112551255  0.75176835243524
 1 -9.32008406090609  5.93304945304530 -0.83535376357636
 1 -9.13900511641164  8.04205494439444  0.56648627042704
 1 -8.04245371117112  7.18022442194219  1.63052143764376
 1 -12.19387349244925  3.12254258025803 -2.44108711341134
 1 -13.27455712491249  2.01202509370937 -1.22545373687369
 1 -12.33018474957496  3.51673032773277 -0.92983422742274
 1 -12.35990076847685 -1.56432587768777 -1.07926288118812
 1 -13.37217593649365 -0.19732646944694 -1.59644517201720
 1 -12.95727207980798 -1.78606329252925 -3.75921580608061
 1 -12.06369993419342 -0.40196473407341 -4.02344584028403
 1 -11.09129540884088 -1.73751861896190 -3.44774339433943
 1 -9.23097270027003 -4.68760950385039 -1.77197046114611
 1 -8.05296466126613 -5.53287329152915 -0.91903151615161
 1 -9.20678056295630 -5.07115213651365  0.05183336073607
 1 -3.51127182308231 -3.26625987668767 -0.20172544404440
 1 -1.75499366586659 -4.38699513921392  3.60508342364236
 1 -2.99231884048405 -5.86002762036204  3.30824366326633
 1 -1.36622473397340 -5.93016228942894  2.53937789068907
 1  2.46727603170317 -1.44936677257726 -1.50712467746775
 1  2.76870434803480  0.18926320592059 -2.04213736593659
 1  4.35124603020302 -0.92347456265627  0.30638385438544
 1  4.14412337583758  1.76048475887589 -2.35353372307231
 1  5.52192760446045  2.16330658955896 -1.79395586378638
 1  5.62166947454745  0.64450555805581 -2.73410214121412
 1  6.48120018291829  1.36094009400940  0.16337898069807
 1  6.18478259765977 -0.09971800920092  0.93013272997300
 1  7.27198458315832 -1.41701093629363 -1.00199152275228
 1  7.68519095499550  0.26651986008601 -1.71541446504650
 1  9.12579463106310  0.72874075907591  0.48653628582858
 1  8.86927541624163 -0.84518002420242  0.88926679037904
 1  10.40671822322232 -0.06072353465346 -1.79808469796980
 1  9.18762374787479 -2.29300727722772 -1.81906783158316
 1  10.92202475817582 -2.35554233813381 -1.91366561046105
 1  10.01221410741074 -2.57634957695770 -0.22442188188819
 1  11.32923060396040  0.81715394559456  0.58795028252825
 1  11.43006606000600 -0.78789475077508  0.90704132573257
 1  12.75320863976398 -1.47903606480648 -1.07966563416342
 1  12.81142489498950  0.23020371137114 -1.55982934423442
 1  13.60517195389539  0.85847840384038  0.45951329432943
 1  14.07115986908691 -0.85459506420642  0.92886940344034
 1  15.27808109660966  0.46476596159616 -1.51849620762076
 1  15.47250469336934 -2.28471876397640 -0.12568402230223
 1  14.63821687238724 -2.13698607420742 -1.33567098219822
 1  16.36099572897290 -1.70176570147015 -1.58879034853485
 1  16.04847004770477  1.46489432313231  0.67880442474247
 1  16.33028747594759 -0.15803497859786  1.26508927012701
 1  18.20858179687969 -0.58365491289129 -0.32587592799280
 1  17.79326639113912  0.85333265216522 -1.21672524832483
 1  18.44839563216322  2.24585874357436  0.77499550485049
 1  18.71175833613362  0.76716089708971  1.60053005330533
 1  20.74404931763176  0.23024917311731 -0.02306524252425
 1  19.84613872047204  3.30819438133813 -0.64770836423642
 1  21.38033228532853  2.63970062286229 -1.34499586288629
 1  20.04243814821482  1.87366917771777 -1.95345231423142
 1  21.22214819001900  1.35965407450745  2.17003662086209
 1  22.08813051935194  2.19155038473847  0.73477844414441
 1  20.86331606150615  3.12744282758276  1.21549198969897
>>>>>>> 8e03b5b5abfc0030b3aa597dc0de36371bfbd096

