%nproc=4
%Mem=2GB
# td=(NStates=1) CAM-B3LYP/6-31G(d,p) 

TD

0 1
<<<<<<< HEAD
12 -7.16147672067207  0.63806255435544  0.01260894829483
 6 -4.87642226022602 -1.98960013841384  0.52169870257026
 6 -4.72507243614361  2.74250269756976  0.98764512941294
 6 -9.33500823632363  3.13877937343734 -0.55098795849585
 6 -9.54222453615362 -1.75537104810481 -0.78700512961296
 7 -5.05642906750675  0.40499031713171  0.73830424872487
 6 -4.34924463056306 -0.78536835883588  0.83176119931993
 6 -2.88709771517152 -0.42363178887889  1.18749910411041
 6 -2.98406184458446  1.05263793209321  1.68673940464046
 6 -4.36843383828383  1.40284103290329  1.13558058795880
 6 -2.89079416151615  1.24804709280928  3.14680608950895
 6 -1.89365282628263 -0.74552981438144  0.10531448974897
 6 -0.51908933153315 -0.65968031523152  0.56976110541054
 6  0.50016115331533 -0.64415792869287 -0.61979736023602
 8  0.22527376747675 -1.05064047164716 -1.78609494119412
 8  1.72078388888889 -0.45298269466947 -0.20801759065907
 7 -7.14272472037204  2.64628021782178  0.40896959245925
 6 -6.03920319931993  3.28962993879388  0.76926045964596
 6 -6.29383663676368  4.75281957135714  0.72038272547255
 6 -7.63677638463846  4.86809744124412  0.30428882018202
 6 -8.11076534813481  3.51923111841184  0.01536408270827
 6 -5.42877083378338  5.78520098599860  1.18745350585059
 6 -8.49463726132613  6.08910994469447  0.13215020042004
 6 -8.36228011931193  7.17618373697370  0.93753000280028
 7 -9.08535080768077  0.65606846794679 -0.53895792949295
 6 -9.84391065076507  1.82236218931893 -0.64464078817882
 6 -11.14172326892689  1.55712405150515 -1.06102782228223
 6 -11.30574297819782  0.13404876897690 -1.06896561056106
 6 -9.94523020372037 -0.32907488178818 -0.82671768786879
 6 -12.28560738443844  2.46604717571757 -1.48377515231523
 6 -12.42794734103410 -0.68652606270627 -1.64177498599860
 6 -12.27454494289429 -0.90025243644364 -3.19840495909591
 7 -7.29792926122612 -1.38051766536654 -0.18052272927293
 6 -8.38098833863386 -2.24663983608361 -0.55951090629063
 6 -7.87529367496750 -3.67313558105811 -0.46958423572357
 6 -6.55046893099310 -3.55315965296530 -0.05418715061506
 6 -6.25770836723672 -2.21114939623962  0.02977578177818
 6 -8.74589205660566 -4.89236207860786 -0.75999447784779
 6 -5.50754522482248 -4.40380426392639  0.20540341294129
 8 -5.42013085098510 -5.55982046544654  0.29035606630663
 6 -4.33250683008301 -3.41995778557856  0.56281614691469
 6 -3.61332196309631 -3.66569179047905  1.86569694259426
 8 -3.82137373797380 -3.17559429562956  2.90700338143814
 8 -2.77116831053105 -4.79375409780978  1.68878745964596
 6 -2.22461304920492 -5.20272450155016  2.90182511801180
 6  2.74964747644764 -0.72972076667667 -1.27715891629163
 6  4.07643973297330 -0.44972314861486 -0.56943709270927
 6  5.09975345974597  0.32346861226123 -1.02794256695670
 6  5.24289271227123  1.00427307660766 -2.42629679497950
 6  6.39971430423042  0.41801365156516 -0.30708719391939
 6  7.66945448334833 -0.01841218811881 -1.05275222572257
 6  8.94741661426143  0.00264513411341 -0.07415922872287
 6  10.22702332683268 -0.44179125082508 -0.96070704120412
 6  10.03057975817582 -1.86374731083108 -1.27530099509951
 6  11.44335721262126 -0.27282106290629 -0.03015214661466
 6  12.90435534323432 -0.56518056915692 -0.58744876777678
 6  14.00140960936094 -0.05188639143914  0.30818788628863
 6  15.35702182708271 -0.29585331443144 -0.37747598739874
 6  15.74438610751075 -1.75401303510351 -0.55838545624562
 6  16.49582368826883  0.45643000300030  0.55358986618662
 6  17.89023361276127  0.54551594999500 -0.09909572417242
 6  18.88512888238824  1.42512072907291  0.66249668266827
 6  20.29994866406641  1.47413774727473  0.14237900110011
 6  20.34929628342834  2.28101639883988 -1.17342833553355
 6  21.23931486228623  2.05973891019102  1.19251461486149
 1 -4.04183566806681  3.37979350075007  1.34147873477348
 1 -10.17671806450645  4.00334116911691 -0.68982437393739
 1 -10.47263055245524 -2.46407574837484 -0.93427007920792
 1 -2.49156561346135 -1.00164847874787  2.05863655485549
 1 -2.22273587878788  1.62689627222722  1.17646829722972
 1 -1.82011646914691  0.86803725662566  3.39480319381938
 1 -2.95727078707871  2.16481053855386  3.36500866626663
 1 -3.69494293699370  0.80538522252225  3.64866727952795
 1 -1.80433291819182 -1.90667062746275 -0.05102901210121
 1 -2.08114978747875 -0.26218896849685 -1.03257329692969
 1 -0.64671818921892  0.24635924982498  1.24677507660766
 1 -0.13893169516952 -1.48621313651365  1.28051200640064
 1 -5.45708448384839  6.65363400750075  0.51907761696170
 1 -5.65909289868987  6.07345070817082  2.10094639173917
 1 -4.28304226022602  5.46328749514951  1.24611778737874
 1 -9.13214526702670  5.77607375547555 -0.79328955715572
 1 -9.08430964686469  8.13019375827583  0.85336495829583
 1 -7.73558302410241  7.28165456495650  1.75543392889289
 1 -11.97468157325733  3.04133445944594 -2.45218822352235
 1 -13.18838850805080  1.92417630883088 -1.67729892139214
 1 -12.25464719581958  3.31134978967897 -0.76623786778678
 1 -12.47698247664766 -1.66731617671767 -1.25913086798680
 1 -13.44523324222422 -0.23964070087009 -1.35031055855586
 1 -13.09710606320632 -1.59948463466347 -3.55067495199520
 1 -12.51041460566057  0.06268173057306 -3.64397789348935
 1 -11.29649592889289 -1.42598746584658 -3.10136875687569
 1 -9.15348495149515 -4.70328107100710 -1.74266753085309
 1 -8.25126449124912 -5.86203620782078 -0.76052566556656
 1 -9.70855073997400 -4.83065808710871 -0.05763758635864
 1 -3.48761945784578 -3.60355360606061 -0.21800707220722
 1 -1.70613878037804 -4.26038247794780  3.48448136343634
 1 -3.08750835943594 -5.40608222582258  3.62360519941994
 1 -1.46093420492049 -6.02664193739374  2.76238019091909
 1  2.73919322342234 -1.78239007490749 -1.60781474647465
 1  2.64804228182818 -0.03731945234523 -2.02296544874487
 1  4.21958286388639 -0.97481969716972  0.55698891489149
 1  4.26129509300930  0.94682339273927 -3.11202957265727
 1  5.49962537423742  2.12886314521452 -2.12144861306131
 1  6.03039034663466  0.72330343784378 -3.37138586958696
 1  6.61050311321132  1.55263926392639 -0.11834919211921
 1  6.22550667006701 -0.08343638103810  0.64551426812681
 1  7.30135752045205 -0.99585882108211 -1.31871319491949
 1  7.95994843074307  0.64941814991499 -1.66462938653865
 1  9.07010906250625  0.89220710571057  0.35615324752475
 1  8.82394088278828 -0.80058556475648  0.51285914961496
 1  10.41150870227023  0.29763230093009 -1.80516540604060
 1  9.11257624312431 -2.01208918541854 -2.17451337613761
 1  10.93465602130213 -2.17257404130413 -1.65400964486449
 1  10.04630751675168 -2.34655659765977 -0.22431187088709
 1  11.31205888678868  0.75921815201520  0.47959944744474
 1  11.37142019541954 -1.01514747604760  0.75911653325333
 1  13.01580489938994 -1.77101526272627 -0.50695836343634
 1  13.08473222572257 -0.29565887488749 -1.52685604690469
 1  14.00213164986499  0.99514207020702  0.65478282128213
 1  13.89841259435944 -0.62393199789979  1.37563407990799
 1  15.31892518101810  0.37922740774077 -1.28483284128413
 1  15.78037548044805 -2.10565085718572  0.47153569966997
 1  14.87350040074007 -2.21245362096210 -1.28217563266327
 1  16.69865949534953 -1.82746827172717 -1.18857032653265
 1  15.99908510921092  1.55412324602460  0.81146769106911
 1  16.50297474467446 -0.05696487158716  1.50158291949195
 1  18.17500843954396 -0.45003155055506 -0.35027836823682
 1  17.84454151865187  0.87936525542554 -1.09929350515052
 1  18.66187698029803  2.31740589828983  0.99710771607161
 1  18.85536269656966  0.88637281828183  1.84932493279328
 1  20.64231914461446  0.43118926712671 -0.03869680568057
 1  19.89810391699170  3.24823838573857 -1.04577817121712
 1  21.42834708680868  2.51940859365937 -1.63985534883488
 1  19.85447935233524  1.51424323512351 -1.92657962696270
 1  21.14459043424343  1.38685679477948  2.10896051325132
 1  22.14070577687769  2.03937516721672  0.69395436173617
 1  20.78790852075208  3.11586166946695  1.38859930043004
=======
12 -7.10850142314231  0.61823057115712 -0.00614292689269
 6 -4.84292891089109 -2.02188336673667  0.40337687038704
 6 -4.82760268916892  2.88147659495950  1.08174453935394
 6 -9.35841057655766  3.13363885938594 -0.47118997869787
 6 -9.56637695139514 -1.77089260026003 -0.83318974807481
 7 -5.07435085968597  0.37136695479548  0.69330974927493
 6 -4.31858156425643 -0.79571939393939  0.84335235843584
 6 -2.92482148754875 -0.48605803150315  1.27485783998400
 6 -3.00683412181218  0.95647831613161  1.68278900960096
 6 -4.39606660156016  1.46258700750075  1.08228525842584
 6 -2.93537861996200  1.22874516261626  3.21493290219022
 6 -1.85672913391339 -0.72456771817182  0.09567352565257
 6 -0.45782320492049 -0.58639298649865  0.54794892419242
 6  0.47366850405041 -0.79051256415642 -0.50657603810381
 8  0.28484972507251 -1.24081948954896 -1.59479581128113
 8  1.79229103960396 -0.65167256365637 -0.09348613751375
 7 -7.06354680258026  2.55339092889289  0.17313600910091
 6 -6.00316959595960  3.36511748754875  0.58592212581258
 6 -6.40052730583058  4.77684197359736  0.69365005220522
 6 -7.73586629362936  4.87774840634063  0.29848824012401
 6 -8.13920819241924  3.46705590089009  0.02059460576058
 6 -5.55028298499850  5.79874234013401  1.16931169166917
 6 -8.56409420702070  6.02922395609561  0.10223720912091
 6 -8.44460835213521  7.16204232283228  0.85743199299930
 7 -9.11920419301930  0.75339820092009 -0.64065809950995
 6 -9.89955621532153  1.82958291139114 -0.71773809790979
 6 -11.28502759935994  1.54120245934593 -1.13548526802680
 6 -11.28472087598760  0.10936630073007 -1.21497021102110
 6 -9.89707538823882 -0.41172314661466 -1.01562657875788
 6 -12.38982780648065  2.54075464646465 -1.29412618741874
 6 -12.49146369266927 -0.71532894299430 -1.54705551405141
 6 -12.52929041744174 -1.08745115631563 -3.09937505610561
 7 -7.20909037733773 -1.32369198279828 -0.25151982898290
 6 -8.29952019181918 -2.24200937303730 -0.42286724192419
 6 -7.89588573417342 -3.55699396689669 -0.38297557485749
 6 -6.51398528262826 -3.52180651765177 -0.12124385628563
 6 -6.15716831323132 -2.17458573987399  0.04164696889689
 6 -8.83570103750375 -4.72944578697870 -0.73662214061406
 6 -5.44681915221522 -4.34972885638564  0.17814068666867
 8 -5.30658949684968 -5.55178966236624  0.17763479417942
 6 -4.15954953435344 -3.36136192599260  0.56537640294029
 6 -3.59663029392939 -3.60838605990599  1.94066443934393
 8 -3.69974157475748 -3.02021875807581  2.94800748184818
 8 -2.91014220792079 -4.76742146454645  1.86626520742074
 6 -2.29715030293029 -5.19240346944694  3.01966690219022
 6  2.71779429112911 -0.79518731333133 -1.07979918031803
 6  4.10979306830683 -0.49055723202320 -0.53086323532353
 6  5.16133961836184  0.38773503890389 -0.93123289598960
 6  4.98085650865086  1.12878552785279 -2.22790695599560
 6  6.46260059285929  0.51528337853785 -0.21610809600960
 6  7.74701223912391 -0.09348969586959 -1.07350430093009
 6  8.97956982958296  0.01035590519052 -0.21671348414841
 6  10.22852347684768 -0.44234130583058 -0.94592556305631
 6  10.16166286648665 -1.86006694279428 -1.51018448344834
 6  11.51682455935594 -0.16146992779278 -0.03672280368037
 6  12.86775168286829 -0.31608565966597 -0.83468349124912
 6  14.07994746314631 -0.05494669746975  0.06367343484348
 6  15.43545967086709 -0.13895762486249 -0.59574781458146
 6  15.73684535343534 -1.59305693949395 -1.04002362006201
 6  16.47006111201120  0.46011037103710  0.39139364656466
 6  17.89954454385438  0.58639003740374 -0.08851466606661
 6  18.88670904040404  1.16597481448145  0.85793622662266
 6  20.36585525472547  1.33346367986799  0.33221798499850
 6  20.47762911671167  2.22174047124712 -0.93449444214421
 6  21.27804873567357  1.85350828712871  1.41192655605561
 1 -4.16460794529453  3.69187470887089  1.70239482638264
 1 -10.02527291999200  3.81766260126013 -0.62222761426143
 1 -10.30704399379938 -2.57508684948495 -1.01696834903490
 1 -2.72312876977698 -1.13862217611761  1.91649234043404
 1 -2.37623122832283  1.43576715931593  1.03376402680268
 1 -1.89782423992399  0.94948540144014  3.52079579307931
 1 -3.40077513751375  2.19532358985899  3.34873703910391
 1 -3.62631607430743  0.60234491849185  3.61509392219222
 1 -1.94200668556856 -1.82920288068807 -0.14929883908391
 1 -2.11248292079208 -0.17361011061106 -0.87578761836184
 1 -0.39202271967197  0.30142475637564  0.90315071417142
 1 -0.39425722772277 -1.40304481968197  1.32226618181818
 1 -5.75736451185118  6.76448509260926  0.83007871707171
 1 -5.68801579097910  6.06841020412041  2.17255355245525
 1 -4.50736469246925  5.57012817921792  1.00946412201220
 1 -9.19217126962696  6.02738888698870 -0.81906213441344
 1 -9.12557377327733  8.30588132703270  0.99603922572257
 1 -7.70903036883688  7.31936833633363  1.64180256575658
 1 -12.11028513361336  3.04285461146115 -2.23048605330533
 1 -13.25559522872287  1.74640853205321 -1.55408660016002
 1 -12.62660439153916  3.28676733143314 -0.59570081408141
 1 -12.37029180758076 -1.68681812691269 -1.24607956285629
 1 -13.44895361426143 -0.23794053085309 -1.25426095359536
 1 -13.34376072867287 -1.77216190239024 -3.28652853735374
 1 -12.73977754195420 -0.20761529912991 -3.85097859355936
 1 -11.58402468176818 -1.56549141624162 -3.33224184418442
 1 -9.13078268126813 -4.71822256515652 -1.77579084318432
 1 -8.37569693449345 -5.75515551975198 -0.81539115211521
 1 -9.48759864476448 -4.88714373567357 -0.14679650225023
 1 -3.31155185108511 -3.50369362006201 -0.14374964646465
 1 -2.00393856035604 -4.35319175887589  3.47989090439044
 1 -2.94857446604660 -5.77957957555756  3.77776061496150
 1 -1.36441455295530 -5.79070834403440  2.69323327622762
 1  2.68902820692069 -2.02420425632563 -1.35906987198720
 1  2.31730920852085 -0.22578829922992 -2.00084323652365
 1  4.53605451105111 -1.04735695089509  0.29806302230223
 1  3.97731669516952  1.05329403980398 -2.56889525922592
 1  5.35063047474747  2.23277353625363 -2.07357382558256
 1  5.57439474707471  0.69196030353035 -3.05436416741674
 1  6.64772683558356  1.52987698769877  0.15788843164316
 1  6.50455457485749 -0.13287132453245  0.69080879757976
 1  7.34564194889489 -1.07465670087009 -1.36500782438244
 1  8.14870730663066  0.18333154125413 -1.85690861446145
 1  9.22303435503550  1.05919380438044  0.13985161736174
 1  8.95970445914592 -0.61335684188419  0.76747461116112
 1  10.41599915131513  0.40127266496650 -1.73637852735274
 1  9.41141612711271 -1.91807978447845 -2.11801772657266
 1  11.07615017071707 -2.06740352425243 -2.00864510841084
 1  10.22348523452345 -2.73418536053605 -0.58397783748375
 1  11.45113279417942  0.90488271847185  0.18160964846485
 1  11.67822087548755 -0.73214917621762  0.92323294489449
 1  12.52574589348935 -1.44427258845885 -1.30166783438344
 1  12.74593834633463  0.31458214921492 -1.63599696099610
 1  13.79155059175918  0.99840239623962  0.56024336733673
 1  14.00837359045905 -0.72255185988599  0.90624714121412
 1  15.35504879337934  0.48937842284228 -1.33579793779378
 1  15.95885332823282 -2.25744603670367 -0.12802425632563
 1  15.07778082878288 -2.30641301690169 -1.55484289938994
 1  16.88833846324633 -1.54914043894389 -1.43948541804180
 1  16.05730093079308  1.30194802850285  0.96816336063606
 1  16.41820626782678 -0.20655983108311  1.21000376157616
 1  18.12497343604360 -0.48981552895290 -0.55204854525453
 1  17.83080014451445  1.26957427632763 -0.92931650745075
 1  18.44185497809781  2.04877903560356  1.12558056335634
 1  19.00477763806381  0.57513169416942  1.82802280258026
 1  20.76046095879588  0.28763491169117  0.04241130513051
 1  20.12836694329433  3.17753131503150 -0.63074666806681
 1  21.39856410851085  2.08785543834383 -1.32008337163716
 1  19.72464636903690  1.99515132593259 -1.63993096209621
 1  21.30323629882988  1.34676278537854  2.49819943714371
 1  22.29455116141614  1.83528475817582  1.17070203650365
 1  21.03421315121512  2.88879896319632  1.79081952245224
>>>>>>> 8e03b5b5abfc0030b3aa597dc0de36371bfbd096

