%nproc=4
%Mem=2GB
# td=(NStates=1) CAM-B3LYP/6-31G(d,p) 

TD

0 1
12 -7.14112468546855  0.62644139223922  0.15399308670867
 6 -4.84723934193419 -1.96434761316132  0.64917144984498
 6 -4.76539646854686  2.79481792909291  1.25395176007601
 6 -9.38026276177618  3.11763725922592 -0.41448430813081
 6 -9.47422773647365 -1.72704821582158 -0.98353478257826
 7 -5.14192761736174  0.42889270737074  0.82557297559756
 6 -4.37592729882988 -0.69277909990999  0.86648467166717
 6 -2.89437844324432 -0.35414484018402  1.27171752595260
 6 -3.02380581898190  1.15291796009601  1.67986871757176
 6 -4.37179417431743  1.47941869066907  1.17395442534253
 6 -2.76361144324432  1.32328461656166  3.16359776867687
 6 -2.03149661066107 -0.62125738713871  0.13725768406841
 6 -0.45637305990599 -0.43818816601660  0.54330846014601
 6  0.45906704390439 -0.63582709560956 -0.58583396389639
 8  0.05016625672567 -1.03071847944794 -1.69617594929493
 8  1.73757556805681 -0.61043844024402 -0.23195998489849
 7 -7.13930437833783  2.60366595639564  0.44002269776978
 6 -6.03146242524253  3.43076405220522  0.80110364396440
 6 -6.44055130823082  4.79200348974897  0.73510419761976
 6 -7.70364307130713  4.87458809030903  0.37762615391539
 6 -8.14583885548555  3.47488668396840  0.14864741104110
 6 -5.40274823152315  5.92289475537554  1.15889064956496
 6 -8.52271006860686  6.02630366406641  0.16205319071907
 6 -8.42013590489049  7.21603772237224  0.74345059485949
 7 -8.98795106770677  0.73139600070007 -0.54094812851285
 6 -9.73955021472147  1.81807176027603 -0.65133145724572
 6 -11.06668576517652  1.50767910701070 -1.21691341084108
 6 -11.17724012791279  0.17775313941394 -1.39157787178718
 6 -9.88145382608261 -0.30088206250625 -0.95782079817982
 6 -12.26290511421142  2.55561613261326 -1.51712848764876
 6 -12.32596714301430 -0.68216562666267 -1.82920372887289
 6 -12.12723021142114 -0.96297870907091 -3.32646776537654
 7 -7.20366983528353 -1.45043465706571 -0.16441111811181
 6 -8.25148538833883 -2.19586475857586 -0.67359231443144
 6 -7.84895104070407 -3.63150141764176 -0.62553983128313
 6 -6.48137202130213 -3.66113045004500 -0.25423715561556
 6 -6.18260085648565 -2.31477975927593  0.10642344654465
 6 -8.63663113051305 -4.87146998939894 -0.99276775517552
 6 -5.35123959425943 -4.46174005750575  0.31062393499350
 8 -5.20842968086809 -5.64206869026903  0.32902993369337
 6 -4.14180776017602 -3.35549133893389  0.63911377667767
 6 -3.51447207810781 -3.71498671997200  1.97965833873387
 8 -3.76441804240424 -3.13812054825483  2.99493217431743
 8 -2.74284547824782 -4.82871759415942  1.87686626752675
 6 -2.17015760366037 -5.28663289238924  3.13452838833883
 6  2.71257376907691 -0.76288408300830 -1.25308650905091
 6  4.05558764776478 -0.38918709500950 -0.53000314931493
 6  5.14662814721472  0.30327659305931 -1.02265203790379
 6  5.10281870487049  1.09586223552355 -2.34727889318932
 6  6.33911824462446  0.50657250745075 -0.18518500370037
 6  7.57793533143314 -0.17018736563656 -0.96733368386839
 6  8.85436730933093 -0.24866999739974 -0.14289610241024
 6  10.15928655315532 -0.61187825952595 -0.87414838533853
 6  10.00996769696970 -2.07768870497050 -1.46603006800680
 6  11.39404228112811 -0.46916069686969  0.08366923552355
 6  12.79057396509651 -0.68933298439844 -0.62970299319932
 6  13.88549801820182 -0.16689789258926  0.23606067356736
 6  15.36850297519752 -0.14125785488549 -0.53064130393039
 6  15.76707837673767 -1.68475610941094 -0.81007062476248
 6  16.43736784268427  0.44187854785479  0.40463497069707
 6  17.86264085348535  0.62778417681768 -0.23351916651665
 6  18.79841021052105  1.31555977297730  0.76444687768777
 6  20.16981565076507  1.51164149764976  0.14206897009701
 6  20.13787514131413  2.47239553675368 -1.08250924362436
 6  21.10750168096810  2.01758469476948  1.24237960136014
 1 -4.03684516901690  3.55004052545255  1.63698828572857
 1 -10.15571596429643  3.81803263826383 -0.66013140464046
 1 -10.14823811321132 -2.35399474027403 -1.27756440864086
 1 -2.50004646154615 -0.86016433033303  2.12919361056106
 1 -2.24292789798980  1.77862144474448  1.17018766916692
 1 -1.87633209070907  1.05431588448845  3.50973468696870
 1 -2.91696675667567  2.39541359885989  3.52407457285728
 1 -3.59540298299830  0.84076876087609  3.69222163496350
 1 -2.01591407630763 -1.62012197259726 -0.45945985518552
 1 -2.03995566806681  0.06455370577058 -0.69450949054906
 1 -0.44417793519352  0.60077469136914  0.82452285138514
 1 -0.11218902090209 -0.95947046224623  1.46615057025703
 1 -5.74080285568557  6.71099974407441  0.74108981818182
 1 -5.56003299269927  6.21126448954896  2.26278257535754
 1 -4.48384234023402  5.59783094949495  0.81191436703670
 1 -9.16530858335834  5.92018816691669 -0.83091331953195
 1 -9.00035125102510  8.14355509440944  0.59249887168717
 1 -7.69062852865287  7.44096049554955  1.64453283878388
 1 -11.91878598369837  3.03722404840484 -2.49549255395540
 1 -13.07809747894789  2.03019691089109 -1.83852504400440
 1 -12.52706443754376  3.16830548524852 -0.70080132413241
 1 -12.23651843024303 -1.70821026612661 -1.13441839673967
 1 -13.35847456635664 -0.17421415821582 -1.46983251075107
 1 -13.06063241584159 -1.56496118231823 -3.53059294379438
 1 -12.08837240144014  0.07204266666667 -3.83716721242124
 1 -11.17187346664667 -1.55048991609161 -3.66150477047705
 1 -8.95794539753975 -4.60249099199920 -1.90607387148715
 1 -7.87532689748975 -5.74140414461446 -0.97014662766277
 1 -9.42709259415942 -5.13549857115712 -0.25230705330533
 1 -3.29678037393739 -3.54027727842784 -0.05093036453645
 1 -1.27457562406241 -4.53731017071707  3.48534144944494
 1 -3.09139874847485 -5.50322193979398  3.93379621852185
 1 -1.84201231273127 -6.25793506670667  2.86547049994999
 1  2.59240854495450 -1.81870370627063 -1.52708667366737
 1  2.41297877547755 -0.15597131753175 -2.16289944214421
 1  4.21718262386239 -1.10145236043604  0.44845806180618
 1  4.07572653615362  1.22405111551155 -2.74534290399040
 1  5.69563497519752  2.23751401030103 -2.40478694689469
 1  5.58105541314131  0.45402651015102 -3.07800653165317
 1  6.54079614251425  1.47132113211321 -0.17917527472747
 1  6.15541966136614  0.00920288288829  0.89405912261226
 1  7.36338372307231 -1.27652688788879 -1.13424474807481
 1  7.58527096299630  0.24027723582358 -1.90022294589459
 1  9.16935898749875  0.70555844084408  0.34219185138514
 1  8.53203169186919 -0.89276478267827  0.66466433013301
 1  10.30377792919292  0.08633117081708 -1.71980687018702
 1  9.31208619411941 -2.03996197269727 -2.35984190899090
 1  10.90818337403740 -2.36374315821582 -2.00051429532953
 1  9.65617850385039 -3.08149009100910 -0.85386482618262
 1  11.39250693159316  0.61879410961096  0.42571405890589
 1  11.44078713211321 -1.20803676497650  1.12503312491249
 1  13.15790910981098 -1.74424258545855 -1.07934560216022
 1  12.46577032953295 -0.05381469046905 -1.59697305860586
 1  13.82681411811181  0.88678123412341  0.50401774477448
 1  13.91446419951995 -0.67947755245525  0.97418393489349
 1  15.14051734023402  0.21084056905691 -1.29709406740674
 1  15.84467191009101 -2.06126641874187  0.25140368646865
 1  15.20214326502650 -2.29729210481048 -1.45890330543054
 1  16.93554318371837 -1.81975750065006 -1.24039550905091
 1  16.23310851155115  1.65451328502850  0.66731327562756
 1  16.55120956815681 -0.02894206930693  1.41966472767277
 1  18.61736267496750 -0.34056060346035 -0.57125046544654
 1  17.59556662116212  1.13848116701670 -1.27707128292829
 1  18.62358315091509  2.50350450815081  0.77303530883088
 1  18.75736289658966  0.82892707370737  1.59291929222922
 1  20.54732964566457  0.64981112931293 -0.18631156715672
 1  19.51192529912991  3.33630719261926 -0.88415200860086
 1  20.98520277237724  2.70202685548555 -1.46129749304930
 1  19.50033393779378  2.09779158995900 -1.90036700570057
 1  20.97047302250225  1.41693980308031  2.11778139533953
 1  22.11118282458246  2.15567679737974  0.94153912021202
 1  20.54088381828183  2.91954203750375  1.54058449894990

