%nproc=4
%Mem=2GB
# td=(NStates=1) CAM-B3LYP/6-31G(d,p) 

TD

0 1
12 -7.08847942094209  0.59712846094609  0.02465015241524
 6 -4.91057567556756 -1.97112829122912  0.60022655535554
 6 -4.78605853475348  2.83893234053405  1.09498586348635
 6 -9.41436617211721  3.05900139563956 -0.44835769546955
 6 -9.58711902560256 -1.71972748374837 -0.91000742984298
 7 -5.17908133273327  0.44749456755676  0.65644606290629
 6 -4.38761846794679 -0.65816563856386  0.76277430063006
 6 -2.92216122152215 -0.32705213091309  1.29297965216522
 6 -3.06387982638264  1.04594726302630  1.71637236793679
 6 -4.40661765666567  1.50132088088809  1.18420545044504
 6 -2.82876795889589  1.31524381248125  3.26956836573657
 6 -1.91780524152415 -0.53666892829283  0.17763172147215
 6 -0.42421984458446 -0.39402374957496  0.69434356365637
 6  0.50107124432443 -0.72986649954995 -0.46894227472747
 8  0.22042328242824 -1.09834524212421 -1.58131446314631
 8  1.80502231273127 -0.56191358775878 -0.21241803070307
 7 -7.11478192609261  2.59754534433443  0.29517821332133
 6 -6.09096837583758  3.38586956275628  0.71172470607061
 6 -6.51356860996100  4.76313060246025  0.77709839703970
 6 -7.72750545754575  4.78075870737074  0.37847623892389
 6 -8.20943521512151  3.46681587688769  0.03061560786079
 6 -5.59367732443244  5.89002146804680  1.18908366886689
 6 -8.56932473007301  6.10773180688069  0.12522950835084
 6 -8.56462035333533  7.16627274587459  0.95759200900090
 7 -9.18413068566857  0.64388724982498 -0.66395042874287
 6 -9.90981724142414  1.76300625372537 -0.76651297539754
 6 -11.21290038663866  1.43538187728773 -1.22163388288829
 6 -11.25692809670967  0.15315067916792 -1.29097781178118
 6 -9.92054773547355 -0.35634760906091 -1.04134915101510
 6 -12.20858968266827  2.52297286828683 -1.58448522332233
 6 -12.45629017531753 -0.72648005810581 -1.69955076357636
 6 -12.34715220362036 -1.13260567176718 -3.18312343094309
 7 -7.23003247154715 -1.32870248384838 -0.12236691369137
 6 -8.33210345014501 -2.15269044114411 -0.48733368856886
 6 -7.88978512411241 -3.53222148964897 -0.47748502580258
 6 -6.56253013711371 -3.54595893289329 -0.01992372427243
 6 -6.20589318571857 -2.24722300360036  0.13933673787379
 6 -8.72403987138714 -4.83430627302730 -0.81804028242824
 6 -5.28075254555455 -4.31693557705771  0.22424529712971
 8 -5.08990782868287 -5.55415989938994  0.09167619831983
 6 -4.23366694609461 -3.23449923972397  0.58468833413341
 6 -3.59732036293629 -3.76156137743774  1.89929030193019
 8 -3.74171577217722 -3.08538527472747  2.96849953105311
 8 -2.65110630433043 -4.69829455185519  1.73098167906791
 6 -2.04982557045705 -5.20202443154315  2.88236317181718
 6  2.80232274397440 -0.74899269386939 -1.18950015041504
 6  4.16515860486049 -0.62661083738374 -0.61846199519952
 6  5.09021250565057  0.26290255565557 -1.05266503920392
 6  5.09018744174417  1.19971262056206 -2.16429059435944
 6  6.40956528932893  0.25979782998300 -0.21943842904290
 6  7.66389392729273 -0.13171351825183 -0.87994494499450
 6  8.94377625022502 -0.21673680408041 -0.05194700750075
 6  10.24263488798880 -0.55474254595460 -0.71228219871987
 6  10.20047674787479 -2.05743667976798 -1.29081254625463
 6  11.57492036893689 -0.37507128792879  0.15382625122512
 6  12.80681558925893 -0.50387443854385 -0.66697672057206
 6  14.03923339173917 -0.10784198699870  0.22913998149815
 6  15.40752687758776 -0.16412014111411 -0.43532177197720
 6  15.83695536443644 -1.55866350015002 -1.05502512021202
 6  16.46221032693269  0.41835619561956  0.51559606680668
 6  17.78044263366337  0.50004140254025 -0.16808262286229
 6  18.81071144064407  1.31254947194719  0.71370180318032
 6  20.27877654685468  1.38807914141414  0.16913167636764
 6  20.19773112691269  2.11292959015902 -1.23329432213221
 6  21.13666459725973  2.09794273057306  1.06713207660766
 1 -4.07113859835984  3.53743926532653  1.53298788568857
 1 -10.11934232693269  3.84859569456946 -0.51285667716772
 1 -10.30469375877588 -2.41862120292029 -1.40353700590059
 1 -2.69731618851885 -0.98509682358236  2.09576026722672
 1 -2.41320492569257  1.75163874647465  1.20217086748675
 1 -1.74925938343834  1.29858031093109  3.67803151665167
 1 -3.12721778177818  2.28848290579058  3.72370453585359
 1 -3.52373581628163  0.48227291129113  3.68760117291729
 1 -2.08835132003200 -1.64431439183918 -0.18060196939694
 1 -2.29178085058506  0.16698394879488 -0.80539057865787
 1 -0.12432594999500  0.76528114201420  1.03867426652665
 1 -0.16281408340834 -1.02248676387639  1.56450040524052
 1 -5.97931670707071  6.84304294839484  0.92178788798880
 1 -5.73560054945494  5.88789215231523  2.24580087718772
 1 -4.38372232823282  5.82692385878588  1.03312648824882
 1 -9.14758681118112  6.20879702780278 -0.81019124732473
 1 -9.22217343324332  7.96564730363036  0.45187480928093
 1 -7.90327979377938  7.33766016551655  1.71562994849485
 1 -11.75105921102110  3.35733605960596 -2.17026003070307
 1 -13.19695936513651  2.05017890909091 -2.13626481798180
 1 -12.56478820992099  3.10445910061006 -0.50397164116412
 1 -12.55654043244325 -1.68665811091109 -1.12410736563656
 1 -13.43206192509251 -0.10766750355036 -1.80258578607861
 1 -13.43661001360136 -1.51603628982898 -3.65167505200520
 1 -12.33977754195420 -0.27505204280428 -3.92508600430043
 1 -11.51051733103311 -1.70198506560656 -3.38015663566357
 1 -8.84064366736674 -4.90930167306731 -1.88907217131713
 1 -8.08302766756676 -5.69135914011401 -0.48903851685168
 1 -9.53124300920092 -4.86854187548755 -0.23365518811881
 1 -3.41159185508551 -3.44657790849085 -0.08032330383038
 1 -1.48085625212521 -4.42519895959596  3.43108602390239
 1 -2.78056766536654 -5.63153477107711  3.54959779867987
 1 -1.29850796229623 -6.03739301250125  2.56577052995300
 1  2.64910421452145 -1.68385022092209 -1.46436040104010
 1  2.71201867946795 -0.21104682508251 -2.16459961216122
 1  4.28533943954395 -1.23473568876888  0.25948916491649
 1  4.16491545504550  1.34467317771777 -2.72907127682768
 1  5.32963837553755  2.14012427132713 -1.85077154535453
 1  5.83824113171317  0.71303241074107 -2.84166289728973
 1  6.66011807470747  1.21980598059806  0.34019666246625
 1  6.15623974337434 -0.38825686308631  0.72081179787979
 1  7.48328571327133 -1.27528676387639 -1.37832915651565
 1  8.06781921782178  0.57744095219522 -1.77723064666467
 1  9.12013406500650  0.67700558555856  0.48274590679068
 1  8.66137462616262 -0.97747325352535  0.68555641934193
 1  10.48402595399540  0.08384092179218 -1.54268915841584
 1  9.43913889938994 -1.97700567706771 -1.96663258805881
 1  11.10042259795980 -2.36696348024803 -1.76888113201320
 1  10.07447033303330 -2.86336827882788 -0.48250769046905
 1  11.53227090799080  0.73274550475047  0.64637612511251
 1  11.62519557295730 -0.94524048534854  1.08942956455646
 1  12.90855417431743 -1.56520468166817 -1.22785045264526
 1  12.86791054355436  0.31557224822482 -1.49741310261026
 1  13.75972740944094  0.97439999599960  0.73838118111811
 1  14.09060181328133 -0.91283088778878  1.11921843834383
 1  15.33125641414141  0.61082056705671 -1.19480383838384
 1  16.02331977487749 -2.49104939703970 -0.16756821072107
 1  14.89289233993399 -1.77957033263326 -1.71343875897590
 1  16.66291592099210 -1.53550907580758 -1.86013748324833
 1  16.10292549324932  1.33125095879588  0.80444698899890
 1  16.50401484868487 -0.24404357945795  1.32016477767777
 1  18.40967190589059 -0.51266781418142 -0.30516385678568
 1  17.80126719121913  1.04744206310631 -1.10149372517252
 1  18.52191298389839  2.36996115381538  0.86050405570557
 1  18.73494065436544  1.00773495449545  1.78611861216122
 1  20.76604151685169  0.28287443564356  0.00710777477748
 1  19.44125823242324  3.05421898379838 -1.15201879527953
 1  21.33362761486149  2.71755840864086 -1.52965432873287
 1  19.85277918231823  1.42775458625863 -2.11137810681068
 1  20.83919989518952  1.67448555765577  2.05568518571857
 1  22.19005071137114  2.04604583428343  0.78212317861786
 1  20.96826655655566  3.10979106240624  1.36052649314931

