%nproc=4
%Mem=3GB
# td=(NStates=1) iop(3/107=0140000000,3/108=0140000000) CAM-B3LYP/6-31G(d,p) 

TD

0 1
12 -7.11905659735974  0.61108949244924  0.04395076507651
 6 -4.90535935243524 -1.94360159075908  0.49595499789979
 6 -4.82981901250125  2.88815753365336  1.14822492769277
 6 -9.45816258075808  3.08370592359236 -0.26612908820882
 6 -9.64397049504950 -1.75012677837784 -0.74475128002800
 7 -5.07642467366737  0.41921801240124  0.66349417341734
 6 -4.31511375867587 -0.72300344354435  0.72822071677168
 6 -2.84772099269927 -0.40982938093809  1.05560122922292
 6 -2.94023725062506  1.10070877247725  1.66846312561256
 6 -4.39487972267227  1.51335598669867  1.08115250915092
 6 -2.89044522532253  1.13394621392139  3.15954126872687
 6 -1.97994372407241 -0.64425041424142 -0.16569275897590
 6 -0.47206291549155 -0.53903715171517  0.28695207750775
 6  0.49645156835684 -0.71096771867187 -0.93192298239824
 8  0.24685490229023 -0.99009278697870 -2.01525891899190
 8  1.75580417881788 -0.39278921732173 -0.46531191879188
 7 -7.08010565396540  2.63960717061706  0.37469839393939
 6 -6.10998114191419  3.41126489388939  0.85076095219522
 6 -6.44094900330033  4.78575543914391  0.84143240194019
 6 -7.80855564086409  4.87743954915492  0.42192831923192
 6 -8.14139366686669  3.51313825262526  0.21789978857886
 6 -5.49426146004600  5.83506297999800  1.24602475767577
 6 -8.52861286928693  6.05719598919892  0.08791940444044
 6 -8.46462487248725  7.28071722142214  0.67575163446345
 7 -9.08056709780978  0.69436643104310 -0.51214778867887
 6 -9.87978546484648  1.76232955725573 -0.54066688018802
 6 -11.26220017271727  1.47694713921392 -1.02437729742974
 6 -11.26996648384838  0.14686223202320 -1.05862589088909
 6 -9.98869647324732 -0.36944713811381 -0.83114531583158
 6 -12.25108604630463  2.45279052045205 -1.33699315201520
 6 -12.48442223512351 -0.72565868966897 -1.60412974357436
 6 -12.35427733663366 -1.20411060336034 -3.11541219241924
 7 -7.19536249864986 -1.46736157185719 -0.25614828992899
 6 -8.36976130243024 -2.22245079057906 -0.53315489538954
 6 -7.94184622442244 -3.60797134853485 -0.42816311611161
 6 -6.56841463196320 -3.55183816591659 -0.05128721042104
 6 -6.20251398309831 -2.15495345114511  0.05897773317332
 6 -8.81639397889789 -4.70098619701970 -0.74454783788379
 6 -5.40180564346435 -4.39969353275328  0.27884285838584
 8 -5.34572556485649 -5.59691654865487  0.18315426402640
 6 -4.34387889048905 -3.28935638303830  0.55526384798480
 6 -3.63519769656966 -3.65300324302430  1.96366233473347
 8 -3.92574535793579 -3.06666402430243  2.98861221942194
 8 -2.87543289608961 -4.64981359985999  1.83330236773677
 6 -2.44513347034703 -5.32207741364136  3.07493489388939
 6  2.81890821122112 -0.67485577447745 -1.38670218741874
 6  4.24215510071007 -0.39563483138314 -0.66503906670667
 6  5.20471596289629  0.33167969596960 -1.05109798679868
 6  5.34371809740974  1.19935761106111 -2.26458059305931
 6  6.55725200390039  0.34006462246225 -0.20354087848785
 6  7.77063851645164 -0.16069461746175 -1.06199652835284
 6  9.06629434103410 -0.09748156425643 -0.21806790919092
 6  10.35990145074508 -0.56107777097710 -0.91723744374437
 6  10.21457473407341 -2.13412129202920 -1.37344431043104
 6  11.56629129292929 -0.42479737083708 -0.01158912141214
 6  12.86914464996500 -0.48584861836184 -0.73851135623562
 6  14.02889416121612 -0.14851056535654  0.21407781938194
 6  15.37631362236224 -0.26494557815782 -0.32005765826583
 6  15.63947021802180 -1.66037442574257 -0.79343116941694
 6  16.47588458115812  0.35459197649765  0.56301103580358
 6  17.86023361106111  0.65057878747875 -0.04804133113311
 6  18.93203362196219  1.28901698019802  0.91250450715072
 6  20.25275808020802  1.42934236673667  0.28835554155416
 6  20.38790163596360  2.36843414851485 -0.98769346524652
 6  21.29415448244824  1.93605530543054  1.37351129112911
 1 -4.05969633313331  3.44868812021202  1.81108720452045
 1 -10.05302742604261  3.94668694319432 -0.47531205740574
 1 -10.45707013111311 -2.56793232833283 -0.91267908730873
 1 -2.50640792799280 -1.10576077877788  1.83037952865287
 1 -2.23345681198120  1.75698775987599  1.14669831883188
 1 -2.01367445384538  0.71374048044804  3.53879421682168
 1 -3.15285239433943  2.02204142694269  3.63969199139914
 1 -3.65895869636964  0.50185533983398  3.57943962916292
 1 -2.15768088708871 -1.55717638843884 -0.45518352545255
 1 -2.37807417641764  0.13464108390839 -0.98579531413141
 1 -0.20858628732873  0.42204179147915  0.74808867186719
 1 -0.27660608090809 -1.21203196979698  1.19490294859486
 1 -5.58638281598160  6.74415192719272  0.37168700000000
 1 -5.66410788208821  6.31162404380438  2.12559457195720
 1 -4.38238308290829  5.50468473647365  1.20881161376138
 1 -9.45063532333233  5.87636101810181 -0.63947530023002
 1 -9.18295735943594  8.07861758275828  0.48919869556956
 1 -7.69656758885889  7.52537937433743  1.46791575187519
 1 -11.85955642864286  3.08982812991299 -2.07112294379438
 1 -13.18099539723972  2.00358910131013 -1.47638336653665
 1 -12.58314934763476  3.00587792189219 -0.44760520002000
 1 -12.55461742664266 -1.64429535233523 -0.80948444934494
 1 -13.33930622972297 -0.17968067856786 -1.61893764816482
 1 -13.22387758695870 -1.80899456155615 -3.39250020812081
 1 -12.52766317201720 -0.36896536783678 -3.79627860626063
 1 -11.11227606700670 -1.55750677787779 -3.20421870007001
 1 -9.24301892049205 -4.49459596039604 -1.84838090109011
 1 -8.34473885908591 -5.63052900620062 -0.93243319841984
 1 -9.49791397039704 -4.88804725312531  0.08201593289329
 1 -3.76867438593859 -3.64747135273527 -0.30738847694770
 1 -1.59777316491649 -4.58845105850585  3.45059677727773
 1 -3.24397083438344 -5.38998852375238  3.81550258795880
 1 -2.19587010751075 -6.37088787358736  2.73454681578158
 1  2.85577363216322 -1.69971659445945 -1.71135258395839
 1  2.55497193849385 -0.00548246344635 -2.21586264376438
 1  4.47745823252325 -0.93728214201420  0.23459485968597
 1  4.41346665816582  1.43848939163916 -2.79371985768577
 1  5.89428636083608  2.07256768066807 -2.00511795019502
 1  5.83174274277428  0.84690588148815 -3.29887614451445
 1  6.82604078797880  1.30194017461746  0.02607222112211
 1  6.57188506060606 -0.20290762746275  0.69028522402240
 1  7.42674479727973 -1.11735240824082 -1.35808056525653
 1  7.78546110461046  0.41486058905891 -1.90298112101210
 1  9.32691873617362  0.97075657315732  0.15312774087409
 1  9.03261638243825 -0.75964431713171  0.65992211561156
 1  10.48262289408941 -0.09333318551855 -1.69261441944194
 1  9.41174078317832 -2.09901818531853 -2.04173255515552
 1  11.04723386398640 -2.52204560386039 -1.78741409950995
 1  10.20421261836184 -2.62030614531453 -0.49435682938294
 1  11.44686632823282  0.55939237263726  0.42470024082408
 1  11.55518311381138 -1.23707500510051  0.78665498559856
 1  12.98301625412541 -1.63110052935293 -1.11033330483048
 1  13.03728955885589  0.09434437043704 -1.47454178787879
 1  13.80154157445745  0.79775513881388  0.71200602930293
 1  13.97032534313431 -1.05179155805581  0.97361973597360
 1  15.37571797319732  0.41296469346935 -1.10816208500850
 1  15.70028382518252 -2.21798113931393  0.18194005850585
 1  14.71734337873787 -2.04381890189019 -1.28149952345235
 1  16.46606488608861 -1.98150904790479 -1.38057457075708
 1  16.17741101460146  1.31080941464146  1.01837775407541
 1  16.77263134093409 -0.34529081388139  1.39704819951995
 1  18.43830056775678 -0.28440495449545 -0.67768796439644
 1  17.91631894149415  1.32880177427743 -1.06730247384738
 1  18.61748080498050  2.36308757675768  1.12741468826883
 1  18.95936189868987  0.60401524102410  1.83154640014001
 1  20.69479931223123  0.39436043364336 -0.06505061286129
 1  20.14954177267727  3.53857463396340 -0.69099128382838
 1  21.54914871567157  2.23204434653465 -1.57115509670967
 1  19.62580097769777  2.18051834203420 -1.69568795319532
 1  21.11017487098710  1.31351699259926  2.02284595339534
 1  22.15936382918292  1.93019349004900  0.77563421702170
 1  21.11598167666767  3.08527464466447  1.61025816251625

