%nproc=4
%Mem=2GB
# td=(NStates=1) CAM-B3LYP/6-31G(d,p) 

TD

0 1
12 -7.15783635663566  0.59692844094409  0.05137282468247
 6 -4.84184880288029 -2.03660483888389  0.48894542724272
 6 -4.75492542144214  2.78805725302530  1.27998436333633
 6 -9.37409214471447  3.13901939743974 -0.47094995469547
 6 -9.51363167686769 -1.67466297729773 -0.89702613171317
 7 -5.09206263086309  0.46571638973897  0.64277469576958
 6 -4.38308801490149 -0.71456127812781  0.79743776697670
 6 -2.99004801020102 -0.41367079277928  1.28835919011901
 6 -3.09839327772777  1.07172984128413  1.72056278697870
 6 -4.45700269516952  1.42143289208921  1.22510954085409
 6 -2.90997607970797  1.23397568566857  3.21328273717372
 6 -1.90149361036104 -0.59025428682868  0.17354131243124
 6 -0.47065448804880 -0.46581092829283  0.54154828412841
 6  0.51154229142914 -0.66358987188719 -0.56725210571057
 8  0.25850709080908 -0.83582899049905 -1.74220055175518
 8  1.78920073057306 -0.37430482688269 -0.18358514741474
 7 -7.07738818671867  2.56956254605461  0.45121381688169
 6 -6.09207848684869  3.35689666546655  0.86530006360636
 6 -6.46209346244624  4.77569185858586  0.74756544374437
 6 -7.69667237423742  4.84492512401240  0.31471986328633
 6 -8.13856812841284  3.49132832813281  0.09969251555156
 6 -5.57616557325733  5.80825329122912  1.31360612111211
 6 -8.55391318891889  5.96925795949595  0.08294527992799
 6 -8.44959885118512  7.15012113071307  0.72270852065207
 7 -9.15927820042004  0.66520938203820 -0.53624765846585
 6 -9.87821408110811  1.85167512061206 -0.70613693779378
 6 -11.19172826942694  1.52263060216022 -1.11485320482048
 6 -11.21844424832483  0.08621398549855 -1.34536325032503
 6 -9.83194887558756 -0.38386036033603 -0.99216423252325
 6 -12.31333015671567  2.59435000600060 -1.52990976577658
 6 -12.31982652895289 -0.76456386648665 -1.81216202470247
 6 -12.30478796719672 -1.11327373857386 -3.41205632423242
 7 -7.10028949724973 -1.40867048064806 -0.07783246024602
 6 -8.29453969376938 -2.20625579767977 -0.56245120032003
 6 -7.75344148974897 -3.59907817531753 -0.54356163346335
 6 -6.48624250835084 -3.54498883588359 -0.05560729262926
 6 -6.12958555495550 -2.19886816811681  0.05626843104310
 6 -8.71266873427343 -4.82673551595160 -0.87965644404440
 6 -5.32171664196420 -4.33060694419442  0.17374024662466
 8 -5.13480231813181 -5.57348183158316  0.05706273697370
 6 -4.15586916631663 -3.35074086388639  0.65579544484448
 6 -3.59677030793079 -3.69217443874387  1.96444681758176
 8 -3.83369497009701 -3.03441017721772  2.99279196029603
 8 -2.84202539623962 -4.80490521292129  1.93070165106511
 6 -2.29796038393839 -5.33248747784778  3.14367930343034
 6  2.85690820252025 -0.51767956255626 -1.22896409680968
 6  4.17713980298030 -0.38450662696270 -0.59360950995100
 6  5.19983346774677  0.30928719411941 -1.08648842154215
 6  5.08368679167917  1.01320396969697 -2.33086725202520
 6  6.40533486628663  0.42873472367237 -0.22160864606461
 6  7.62653019091909 -0.21496184308431 -0.86905385588559
 6  8.96041791439144 -0.05133026342634 -0.00184199699970
 6  10.19670029452945 -0.76419349104910 -0.75532650315031
 6  10.09262596279628 -2.14347528362836 -1.03208667366737
 6  11.46194907180718 -0.31656543734373  0.07277814641464
 6  12.80105501320132 -0.54108815991599 -0.68461848474847
 6  13.99338880728073 -0.17875907870787  0.16094316181618
 6  15.41163728862886 -0.24673840294029 -0.59846808660866
 6  15.86544821372137 -1.67589522332233 -1.01066068376838
 6  16.40856496239624  0.39237359735974  0.32405691289129
 6  17.77067165656566  0.62062346074607 -0.21178699329933
 6  18.76072644214421  1.30644886188619  0.67420785378538
 6  20.18014668386839  1.49106944044404  0.17254201740174
 6  20.22226358015802  2.31577987518752 -1.10567155985599
 6  21.12123305410541  1.97984092039204  1.19455481888189
 1 -4.04055554005401  3.45079060046005  1.81384597149715
 1 -10.18371876457646  3.93901473647365 -0.36814220572057
 1 -10.26319960936094 -2.46726606740674 -1.03627027922792
 1 -2.52525898279828 -1.14425273917392  2.10612130333033
 1 -2.31014461966197  1.68587216981698  1.28847949834983
 1 -1.82633709120912  0.92520297319732  3.61486520002000
 1 -2.95617067706771  2.40540459795980  3.51202336773677
 1 -3.50886432913291  0.80731541554155  3.83771618441844
 1 -1.97396988188819 -1.60655061546155 -0.32218612781278
 1 -2.10005167766777  0.06362361276128 -0.79114915451545
 1 -0.09997351475148  0.55914052795280  1.08751915101510
 1 -0.41224902690269 -1.39744425962596  1.23338729392939
 1 -5.79159793519352  6.91258990309031  0.68985469466947
 1 -5.85639262866287  6.02453581668167  2.35675197229723
 1 -4.45354931093109  5.58568973537354  1.23238641424142
 1 -9.19779183168317  6.09681582968297 -0.84611483968397
 1 -9.09233044894489  8.04049478837884  0.60997061886189
 1 -7.78924839063906  7.45905230473047  1.39112749824982
 1 -12.42233633873387  2.93839416541654 -2.42825583028303
 1 -13.30313998319832  2.05805969716972 -1.25157634913491
 1 -12.16325805690569  3.37470612531253 -0.64036528052805
 1 -12.28451322972297 -1.70003944904490 -1.34085904080408
 1 -13.22902162106211 -0.24253098989899 -1.61191671917192
 1 -13.26541289388939 -1.56206089228923 -3.86783666816682
 1 -12.03608717291729 -0.12375691329133 -3.95870936663666
 1 -11.43142942224222 -1.67690255735574 -3.50350897089709
 1 -9.21831143414341 -4.92752349524952 -1.75101836593659
 1 -7.86294565936594 -5.66648665286529 -0.97206681968197
 1 -9.46876676157616 -4.92848787008701 -0.00128195079508
 1 -3.32255295119512 -3.57139038973897 -0.00106537803780
 1 -2.13272143864386 -4.52038847854786  3.83858677397740
 1 -3.19794940354035 -5.81016263386339  3.65035787468747
 1 -1.39915802730273 -5.96863613681368  3.00663461636164
 1  2.98609791389139 -1.70316215211521 -1.70791475647565
 1  2.88446592419242  0.12410669026903 -2.06882003420342
 1  4.34046495209521 -0.83737595279528  0.21763497949795
 1  4.06809577307731  1.39875858625863 -2.59385775547555
 1  5.77342275397540  2.07210746964696 -2.43345981418142
 1  5.49578688628863  0.28797990549055 -3.17241597259726
 1  6.68135019791979  1.51504550455046 -0.08691604880488
 1  6.29271339073907  0.10394235683568  0.76809652635264
 1  7.38490587528753 -1.37187642284228 -1.20922224582458
 1  8.10084252015202  0.18049125722572 -1.89568249184918
 1  9.25105715731573  1.05258314331433  0.20263789598960
 1  8.95985447414742 -0.52518802500250  0.74211207490749
 1  10.19147669906991 -0.14033149544954 -1.73349823932393
 1  9.39566455195519 -2.51616959345935 -1.84001992679268
 1  10.92750530623062 -2.46468325222522 -1.43793803770377
 1  9.94472735873588 -2.80102204420442 -0.19432887258726
 1  11.64057173807381  0.75538776897690  0.39593108060806
 1  11.46133918731873 -0.99548550985099  0.95911653325333
 1  12.83899721862186 -1.59393755495550 -1.15320298789879
 1  12.99822357485749  0.14318500950095 -1.62910627192719
 1  13.92203364006401  0.86892944894489  0.46609395239524
 1  14.01496424952495 -0.72558216291629  1.07644416091609
 1  15.34446773527353  0.39596908190819 -1.43903826182618
 1  16.06363380628063 -2.13914420652065  0.02312085818582
 1  15.30706375707571 -2.19863223882388 -1.56565398049805
 1  16.80091972137214 -1.60368589348935 -1.62963443294329
 1  15.71208640934093  1.42617045074507  0.52374891919192
 1  16.42685713291329 -0.20966014111411  1.35419818101810
 1  18.18952989168917 -0.46355290269027 -0.56331967236724
 1  17.68914597909791  1.27696501540154 -1.19773334913491
 1  18.15864665726573  2.23788794649465  0.91865987128713
 1  18.64907206750675  0.59433361436144  1.69011901220122
 1  20.34966987968797  0.52095824402440 -0.07230016601660
 1  19.74076818341834  3.23099666156616 -1.13869746314631
 1  21.30487473957396  2.38570522332233 -1.41741310461046
 1  19.90974487888789  1.87716952775277 -2.02069903890389
 1  21.15203117831783  1.41657976707671  2.02801241844184
 1  22.06427813411341  2.02407363706371  0.92664763106311
 1  20.81963169306931  3.06850693399340  1.21406184668467

