%nproc=4
%Mem=3GB
# td=(NStates=1) iop(3/107=0140000000,3/108=0140000000) CAM-B3LYP/6-31G(d,p) 

TD

0 1
12 -7.12809750145014  0.67329571307131  0.09053542354235
 6 -4.83463227972797 -1.91483871447145  0.58942434483448
 6 -4.84383041364136  2.83206192409241  1.23982408760876
 6 -9.41624838933893  3.04390194319432 -0.38836131143114
 6 -9.53677977597760 -1.69320108580858 -0.94397120202020
 7 -5.12023905510551  0.46899298989899  0.66087391139114
 6 -4.35314756205621 -0.73462460566057  0.89905780048005
 6 -2.85144136473647 -0.46245464346435  1.28641431053105
 6 -3.01623485038504  1.06849555115512  1.75785206450645
 6 -4.42804303900390  1.55884053515352  1.10714510841084
 6 -3.07151333213321  1.20601342064206  3.26534184878488
 6 -1.96023175287529 -0.63344933413341  0.11684549484949
 6 -0.43411912111211 -0.51798504650465  0.53332671497150
 6  0.52235415861586 -0.52209883178318 -0.58363815391539
 8  0.20097031383138 -0.83014679237924 -1.72219961306131
 8  1.76509510791079 -0.38454839323932 -0.07641302890289
 7 -7.08759640304030  2.60994420432043  0.38533945804580
 6 -6.07527767156716  3.32047581498150  0.84883075917592
 6 -6.34681959035904  4.71262812641264  0.73529178787879
 6 -7.71869665496550  4.81139294449445  0.17605373177318
 6 -8.16847637513751  3.45551249004900  0.09764776337634
 6 -5.46691872577258  5.77690716441644  1.26182633783378
 6 -8.48043805180518  5.94033430303030  0.00920153265327
 6 -8.29523793379338  7.20043919361936  0.63959801910191
 7 -9.10304934603460  0.60794778917892 -0.45848242214221
 6 -9.92875036133613  1.83906723102310 -0.57241005450545
 6 -11.27289124182418  1.51919136363636 -1.08039289898990
 6 -11.29273876107611  0.16330387618762 -1.27094712301230
 6 -9.93230083368337 -0.38525871927193 -0.84437663896390
 6 -12.28120905860586  2.53621886328633 -1.43731318401840
 6 -12.42922671557156 -0.67198332213221 -1.89025835643564
 6 -12.15281719061906 -1.06053624592459 -3.35121577277728
 7 -7.19187214961496 -1.42387722342234 -0.11416409150915
 6 -8.25413974027403 -2.22130067556756 -0.55740732063206
 6 -7.94581662146215 -3.58618917031703 -0.45846614641464
 6 -6.53876166666667 -3.65288827092709 -0.08414049574958
 6 -6.20983471517152 -2.24107206300630  0.17081891729173
 6 -8.73879621912191 -4.81890798919892 -0.73641702480248
 6 -5.47006246914691 -4.38318188158816  0.19342431653165
 8 -5.17974896719672 -5.61491834883488  0.15806175477548
 6 -4.20762526512651 -3.30006745414541  0.62917123872387
 6 -3.58375255205521 -3.64875281798180  1.86623259175918
 8 -3.60742352575258 -3.17164452235224  2.92555591379138
 8 -2.82296764956496 -4.76010462896290  1.75913495099510
 6 -2.25518447544755 -5.37155236113611  2.88508590899090
 6  2.77127344774477 -0.62634092299230 -1.07993151035103
 6  4.13202408760876 -0.32975824372437 -0.58193075587559
 6  5.06411190249025  0.46225275327533 -0.95590846784678
 6  4.91596532213221  1.25131280658066 -2.23743787878788
 6  6.40998727742774  0.54699531553155 -0.36239676407641
 6  7.65941739433943 -0.16581512951295 -0.98778910761076
 6  8.91811952355235 -0.18477029312931 -0.16676277867787
 6  10.22750821142114 -0.59947161036104 -0.88917463746375
 6  10.20944422102210 -2.12119999989999 -1.30924789078908
 6  11.45540020382038 -0.29996488758876 -0.07857582008201
 6  12.78383611911191 -0.44273430693069 -0.81825933103310
 6  13.95325659745975 -0.05441115541554  0.10777718931893
 6  15.39252524352435 -0.28965804940494 -0.53451910441044
 6  15.71154742574257 -1.74311269956996 -0.89992181848185
 6  16.50728772147215  0.28457497479748  0.43604833953395
 6  17.86653424112411  0.50192392199220 -0.14840136713671
 6  18.82929334793479  1.47098517701770  0.72647590429043
 6  20.33352615701570  1.34812424492449  0.28940564656466
 6  20.50608345414541  2.08918622372237 -1.01999669556956
 6  21.19894496149615  1.90105180508051  1.40232417241724
 1 -4.00624098759876  3.64295754715472  1.60944704050405
 1 -10.07263938723873  4.06680895539554 -0.51913643984398
 1 -10.09145356945695 -2.48926446154615 -1.32481030043004
 1 -2.37794508170817 -1.02608281098110  2.20026651735174
 1 -2.19247271357136  1.76688874997500  1.51189483848385
 1 -2.07772085848585  0.93323242964296  3.60477081448145
 1 -3.42525963506351  2.05164438723872  3.71608963116312
 1 -4.12812561306131  0.43708886318632  3.49873155835584
 1 -1.93230834983498 -1.71776244704470 -0.11122913001300
 1 -2.33868023702370  0.01948956875688 -0.86085281988199
 1 -0.27409283798380  0.35595518281828  1.07776163916392
 1 -0.13691211151115 -1.38590935753575  1.15058851715171
 1 -5.68836301400140  6.81374888688869  0.97215704700470
 1 -5.80940241154115  5.69196207760776  2.34856686918692
 1 -4.58845368996900  5.56990125812581  1.30513124572457
 1 -9.38925918571857  5.83731711371137 -0.65398675137514
 1 -8.94183324702470  8.09721944294429  0.25739551525152
 1 -7.40430836293629  7.43538037443744  1.19999896019602
 1 -12.01770224322432  2.81660080718072 -2.49372520402040
 1 -13.11413871157116  2.04662340474047 -1.60526625482548
 1 -12.24781581428143  3.51106844094409 -0.76896733623362
 1 -12.48615057995799 -1.62034295709571 -1.17630113101310
 1 -13.39067136623662 -0.10126283678368 -1.42116787118712
 1 -13.06526172537254 -1.66157982008201 -3.86218717681768
 1 -12.00997140284028 -0.01036950825083 -3.91758073647365
 1 -11.37758259765977 -1.91833286048605 -3.43380165836584
 1 -9.37225184378438 -4.73769026982698 -1.64076013901390
 1 -8.08136252145215 -5.59445539883988 -0.77648760386039
 1 -9.52231641064106 -4.96976542494249  0.05886361766177
 1 -3.49899741824182 -3.49510611621162 -0.24926266436644
 1 -1.49730311791179 -4.58073028642864  3.26334805240524
 1 -2.97171360866087 -5.50888041294129  3.71866290399040
 1 -1.68896941744174 -6.31899268406841  2.57257061816182
 1  2.65402345714571 -1.59390601340134 -1.48057950665067
 1  2.55504194549455 -0.01292320752075 -1.94689574707471
 1  4.38683917061706 -0.94857327112711  0.31654305450545
 1  3.94187949944994  1.12412795549555 -2.82433291899190
 1  5.05253218541854  2.34033445734573 -1.86133357175718
 1  5.80460002850285  1.23655484638464 -3.02325858275828
 1  6.76806499039904  1.64218419901990 -0.12113249934993
 1  6.27482535463546  0.00202286558656  0.69654585008501
 1  7.57225934873487 -1.33993466646665 -1.19173393059306
 1  7.74663722222222  0.49716881988199 -1.81666248914891
 1  8.91029707400740  0.83281277877788  0.18962139023902
 1  8.82232535333533 -0.91817016971697  0.62525864926493
 1  10.29257388918892  0.00469661746175 -1.83987914591459
 1  9.39830944004400 -2.54681296479648 -1.93144152605261
 1  11.17593673427343 -2.36940033933393 -1.74067942604260
 1  9.92255445254525 -2.92821693639364 -0.52460985468547
 1  11.43477511911191  0.83245967936794  0.05026279707971
 1  11.54090168566857 -0.95641693929393  0.76970329042904
 1  12.83220117261726 -1.51654907420742 -1.13631590309031
 1  12.65560139003900  0.26682161816182 -1.68246257995800
 1  14.07052847314731  0.92408777207721  0.42063689238924
 1  13.87465577617762 -0.80093647254725  0.75870824482448
 1  15.42233263466347  0.32091548854886 -1.44060532933293
 1  15.72560635743574 -2.39001834303430 -0.04048218371837
 1  14.97250889528953 -2.18295281528153 -1.49871124462446
 1  16.53121140074007 -1.76598749574957 -1.44407092039204
 1  16.23799707320732  1.29464779847985  0.60173608990899
 1  16.35828990679068 -0.21009729452945  1.50551904660466
 1  18.54842157985799 -0.47347386138614 -0.31252144774477
 1  17.63468077767777  0.90344923902390 -1.15781152475248
 1  18.58173723062306  2.43196446444644  0.50966291309131
 1  18.62674863736374  1.02139697919792  1.70573381888189
 1  20.47888772107211  0.37987898549855  0.14781067326733
 1  20.31877869636964  3.11327210371037 -0.91212339703970
 1  21.52621642244225  2.09929107120712 -1.34762274347435
 1  19.94116251385138  1.75734602480248 -2.08959734413441
 1  20.86465031853185  1.19366500740074  2.20926459525953
 1  22.28100599339934  1.93181365206521  1.01065771937194
 1  20.86917699619962  2.91482759996000  1.53756089278928

