%nproc=4
%Mem=3GB
# td=(NStates=1) iop(3/107=0140000000,3/108=0140000000) CAM-B3LYP/6-31G(d,p) 

TD

0 1
12 -7.11441613331333  0.55613399689969  0.10246661666167
 6 -4.83555237173717 -2.00408763936394  0.45218062046205
 6 -4.73817984858486  2.86935565346535  1.21657176237624
 6 -9.37119388388839  3.13679123212321 -0.37934040934093
 6 -9.59427552555256 -1.75578734443444 -0.74993179807981
 7 -5.06162319351935  0.39724581518152  0.70613843784378
 6 -4.36532878017802 -0.82850399359936  0.77047494219422
 6 -2.91902812341234 -0.45503390139014  1.16754242334233
 6 -3.08094132103210  1.03710241184118  1.67507378667867
 6 -4.36048628332833  1.51963661476148  1.12047644154415
 6 -2.94099027982798  1.12616543584358  3.20579589418942
 6 -1.94023975367537 -0.61442743194319  0.02802661296130
 6 -0.47769347854785 -0.60869411741174  0.49131251355136
 6  0.44931685488549 -0.69704632653265 -0.57531732183218
 8  0.16712692949295 -1.19421319901990 -1.71105849894989
 8  1.78930752915292 -0.25602554095410 -0.25162054965497
 7 -7.02576021942194  2.72876608650865  0.29014993909391
 6 -5.92031217501750  3.38829259665967  0.77855373147315
 6 -6.32256716511651  4.83028989258926  0.79010726942694
 6 -7.60469525482548  4.90397220242024  0.22280840724072
 6 -8.03358288578858  3.58805574437444 -0.02501450285028
 6 -5.44611664556456  5.93453292699270  1.18865902110211
 6 -8.31378138613861  5.99134940454045 -0.07877726522652
 6 -8.39407781778178  7.29050820052005  0.45887994729473
 7 -9.13214225532553  0.73716071047105 -0.52347892179218
 6 -9.76690417671767  1.86289961426143 -0.62173498699870
 6 -11.16963091579158  1.52896234073407 -0.97226208590859
 6 -11.24613410061006  0.19485703150315 -1.12033206150615
 6 -9.90187779137914 -0.38359855325533 -0.76408861016102
 6 -12.27486842454245  2.57160240164016 -1.13155260796080
 6 -12.39567336023602 -0.70203632743274 -1.61921125172517
 6 -12.35707761666167 -1.05583577587759 -3.12431308250825
 7 -7.23194615701570 -1.47833266896690 -0.19561223632363
 6 -8.25337966426643 -2.28174672017202 -0.57381896179618
 6 -7.88245028482848 -3.67242779417942 -0.49621992179218
 6 -6.50531832233223 -3.62167514961496 -0.24345642734273
 6 -6.14639837153715 -2.23719167496750 -0.11118928352835
 6 -8.66280862036204 -4.92659875827583 -0.69002238533853
 6 -5.36318178107811 -4.40888445184518  0.09943491759176
 8 -5.21226221852185 -5.61214807180718  0.09656560516052
 6 -4.13599810241024 -3.40785823322332  0.58684700630063
 6 -3.60147432423242 -3.75468341104110  1.82913888238824
 8 -3.81897468086809 -3.19286664456446  2.96352971117112
 8 -2.79986533933393 -4.74200281878188  1.75948498599860
 6 -2.21855081208121 -5.24454966086609  3.01284868526853
 6  2.76898321872187 -0.60986927582758 -1.26260977817782
 6  4.11904278947895 -0.32687795569557 -0.56074863766377
 6  5.03934942624262  0.49478600660066 -0.93170604760476
 6  5.09860358595860  1.11690936623662 -2.34073820882088
 6  6.41917819651965  0.51276189218922 -0.20336086048605
 6  7.62951440404040 -0.27450599859986 -1.03941427012701
 6  8.89121683328333 -0.01339315541554 -0.24741084348435
 6  10.14871033163316 -0.46649831303130 -0.92359807980798
 6  10.08718199479948 -1.89332721262126 -1.43388035403540
 6  11.38902356615661 -0.25814070517052 -0.04486244874487
 6  12.79189692519252 -0.36869690319032 -0.68621612671267
 6  13.93197446924692 -0.24404011831183  0.21387779937994
 6  15.29732572357236 -0.26934601820182 -0.48396404890489
 6  15.60235650665066 -1.61199958825883 -1.06562838913891
 6  16.44949194189419  0.36680319761976  0.53961869656966
 6  17.78529611731173  0.58780250985099 -0.15493202020202
 6  18.79670008860886  1.24025210371037  0.83229648634863
 6  20.21648445284529  1.36794622712271  0.31982868886889
 6  20.23423626942694  2.21886919201920 -0.98742343824382
 6  21.22948801580158  1.86566826672667  1.50745468546855
 1 -3.93305366886689  3.58346159755976  1.66451254705471
 1 -10.02006412971297  3.79427170167017 -0.65964049024903
 1 -10.44969939403940 -2.42879841494149 -1.02382020142014
 1 -2.58338562576258 -1.10204040674067  2.06136262696270
 1 -2.01417488378838  1.66045810691069  1.30611426042604
 1 -2.08093117951795  0.89430853725373  3.55594593199320
 1 -3.19997710681068  2.16778600140014  3.65775379757976
 1 -3.55890869136914  0.50796595089509  3.93289497469747
 1 -2.14697981698170 -1.58859953075308 -0.58564657175718
 1 -2.16096246524653  0.35850347014701 -0.53933066766677
 1 -0.23340876957696  0.22482206950695  1.30678454145415
 1 -0.34604302460246 -1.63602436903690  1.00525398369837
 1 -5.60888506620662  6.81838935093509  0.53216304760476
 1 -5.56152762406241  6.17553043444344  2.31544355685569
 1 -4.35193003760376  5.68983325132513  1.15282601520152
 1 -9.00658091789179  5.81065444744474 -0.80362171487149
 1 -9.13208227192719  8.03630335133513  0.25821559725973
 1 -7.95739367146715  7.57395423182318  1.54104306460646
 1 -12.05237571057106  3.01906105320532 -2.20699653115312
 1 -13.40824812251225  2.19408815121512 -1.03113884208421
 1 -12.14478551125113  3.36225355945595 -0.40590102960296
 1 -12.50538250315032 -1.68928985178518 -0.97861136203620
 1 -13.22902520162016  0.02983027252725 -1.47907366176618
 1 -13.36069126832683 -1.64920858295830 -3.17309826792679
 1 -12.63444385008501 -0.19205767706771 -3.75012399079908
 1 -11.60554539393939 -1.60790181738174 -3.52717099529953
 1 -9.02897751635163 -4.88665516631663 -1.64571063406341
 1 -8.19507389258926 -5.87760371367137 -0.15766572167217
 1 -9.60430460946095 -4.85401384978498 -0.01747401610161
 1 -3.17414493299330 -3.60330693629363 -0.10837857595760
 1 -1.90455384298430 -4.39376158955896  3.53888560616062
 1 -3.19090552785279 -5.76241576647665  3.54124516221622
 1 -1.40859137963796 -5.96539732453245  2.84949831093109
 1  2.89320737553755 -1.59534615741574 -1.66055750445044
 1  2.71189763106311 -0.00139205440544 -2.13596465396540
 1  4.28197868456846 -0.80440885468547  0.24812621282128
 1  3.96543185468547  1.35726126882688 -2.54269475517552
 1  5.69699663186319  1.99288971287129 -2.07836527492749
 1  5.64203377187719  0.62414360526053 -3.03444970187019
 1  6.85513369726973  1.52332231283128 -0.09484987108711
 1  6.57780565266527 -0.02944028072807  0.70460665616562
 1  7.28247036983698 -1.30849152215222 -0.82850760796080
 1  7.72021457995800  0.13879298229823 -2.09489031193119
 1  8.92494853915391  0.97052655015502  0.04797722582258
 1  8.85583870467047 -0.75325367806781  0.75019114251425
 1  10.26117074887489  0.06705285308531 -1.76482164016402
 1  9.26559616871687 -1.90230851435144 -2.20500888278828
 1  10.95996513711371 -1.96655005430543 -1.92686804490449
 1  9.79648184528453 -2.73469758445845 -0.56628402210221
 1  11.53086472807281  0.71588802220222  0.38466623742374
 1  11.28360595609561 -0.99559085668567  0.85035135523552
 1  12.88187614011401 -1.22870028932893 -1.22119439093909
 1  12.99783561346135  0.36152108810881 -1.71715604930493
 1  13.79170059035904  0.77757312061206  0.81005583428343
 1  14.03769207980798 -1.07090346924692  0.91053342734273
 1  15.24398479987999  0.48357175417542 -1.24456572537254
 1  15.93385718251825 -2.48288762996300 -0.08743687918792
 1  14.68539018341834 -1.90034455445545 -1.32775414891489
 1  16.55903418301830 -1.71690258725873 -1.88766527982798
 1  16.09713298679868  1.30788912261226  0.77983389968997
 1  16.55206928472847 -0.25399168396840  1.45176367106711
 1  18.01150788848885 -0.45362187618762 -0.30071026662666
 1  17.83152046164616  1.19232812691269 -0.94394013761376
 1  18.24914397129713  2.23199446744674  1.30281222802280
 1  18.86880284278428  0.45146998649865  1.75865911141114
 1  20.61066089838984  0.50026102370237 -0.03577768556856
 1  19.71701852035203  3.21512228872887 -0.93167535223522
 1  21.28592239303930  2.49790093219322 -1.46785476667667
 1  19.61137953555356  1.50088037823782 -1.63570195459546
 1  21.05891974547455  1.27519316021602  2.36137980678068
 1  22.21341923472347  1.94200467116712  1.15535218881888
 1  20.92415249374938  2.79315543274327  1.99989712641264

