%nproc=4
%Mem=2GB
# td=(NStates=1) CAM-B3LYP/6-31G(d,p) 

TD

0 1
12 -7.11439201220122  0.65437418551855  0.04247193459346
 6 -4.86965158315832 -1.96117729612961  0.59248578127813
 6 -4.78011794069407  2.83513196049605  1.12575894079408
 6 -9.42320705620562  3.06882237773777 -0.34443730343034
 6 -9.52254256795680 -1.79921543254325 -0.93059948904890
 7 -5.13979740434043  0.38045786388639  0.75378579687969
 6 -4.35268497459746 -0.78544836683668  0.81152917611761
 6 -2.95108411381138 -0.48066749244925  1.24211456565657
 6 -3.11452489088909  1.04670733903390  1.75915664636464
 6 -4.41144813971397  1.47635838463846  1.14458148804880
 6 -3.08568365046505  1.33474576267627  3.22789419831983
 6 -1.89285274627463 -0.69721498289829  0.11709566786679
 6 -0.46350377297730 -0.24810915811581  0.57903203250325
 6  0.57194833203320 -0.54369788268827 -0.56457183768377
 8  0.24560580068007 -0.92676808440844 -1.68675500720072
 8  1.84292610311031 -0.24998239463946 -0.16526331523152
 7 -7.06128657655766  2.63283887368737  0.31291998749875
 6 -5.99087836683668  3.36309728552855  0.71277481108111
 6 -6.40681793489349  4.80975526492649  0.71794248144814
 6 -7.67331003800380  4.86667729922992  0.28402679397940
 6 -8.15062933453345  3.50156935223522 -0.04657211091109
 6 -5.50454841154115  5.89345181108111  1.18488324882488
 6 -8.50754855245524  6.01922295599560  0.12664965036504
 6 -8.40606449774977  7.16824294289429  0.86629287908791
 7 -9.18083035563556  0.69109197029703 -0.53797783148315
 6 -9.90746700640064  1.73394334743474 -0.62766909100910
 6 -11.31608070467047  1.39273761286129 -1.11461318081808
 6 -11.32082448634863  0.06380174427443 -1.19329804380438
 6 -10.00096577727773 -0.43068504280428 -0.92014703080308
 6 -12.35392421612161  2.35734630563056 -1.46934370917092
 6 -12.41457600390039 -0.84088149824983 -1.77549835833583
 6 -12.27073456185619 -1.11527393859386 -3.23279839843984
 7 -7.18268773707371 -1.39535914951495 -0.28855353235324
 6 -8.24972521232123 -2.25469064116412 -0.60151510671067
 6 -7.86185233083308 -3.56181444894489 -0.59043632093209
 6 -6.46142002610261 -3.59508384538454 -0.21852358425843
 6 -6.19027162356236 -2.20751903320332  0.07517032123212
 6 -8.55641310871087 -4.93273611601160 -0.80776925532553
 6 -5.38263273357336 -4.38613249674967  0.28086095869587
 8 -5.24612345024502 -5.58622310571057  0.44280131083108
 6 -4.17439101850185 -3.31081687148715  0.64428429372937
 6 -3.60145077597760 -3.71278649995000  1.92206257915792
 8 -3.90551215181518 -3.10881761796180  2.95974865596560
 8 -2.80036122982298 -4.66045076747675  1.86120470137014
 6 -2.28248883678368 -5.30551478057806  3.05084001950195
 6  2.85676818851885 -0.54594238883888 -1.17699890029003
 6  4.16497858685869 -0.28978715501550 -0.61591174017402
 6  5.08612209660966  0.48131439683968 -1.00071984468447
 6  5.01365978897890  1.34550720002000 -2.18540270557056
 6  6.47133146594659  0.47616946714671 -0.27845433063306
 6  7.64825236313631 -0.21959230613061 -0.99531648214821
 6  8.95630750335033 -0.12262739313931 -0.25800761356136
 6  10.20091071557156 -0.60174724642464 -0.94989596009601
 6  10.07933463366337 -2.03167410351035 -1.46593005800580
 6  11.46407928482848 -0.27872165296530 -0.02700183158316
 6  12.85024993269327 -0.67154120522052 -0.67005702860286
 6  14.01111057945795 -0.17871907470747  0.19490655815582
 6  15.38460458535854 -0.18638236733673 -0.49959819961996
 6  15.78746041494149 -1.53696132993299 -1.12987260496050
 6  16.40759486538654  0.42104646464646  0.42890739793979
 6  17.88274286368637  0.47299869826983 -0.08353416801680
 6  18.86849721922192  1.17751596859686  0.80145057805781
 6  20.30251892109211  1.26688702220222  0.30708547174717
 6  20.39432078587859  2.04897319451945 -1.06208720142014
 6  21.19436036683668  2.05344828112811  1.36056141954195
 1 -4.02271375587559  3.46319184058406  1.57868245514551
 1 -10.07616800950095  3.87737857285729 -0.39704509600960
 1 -10.43496678607861 -2.39358869966997 -1.34112076427643
 1 -2.74329078597860 -1.21797011091109  2.12293298449845
 1 -2.34435804100410  1.57719130173017  1.04885553595360
 1 -2.30379483698370  0.76573702660266  3.61352506600660
 1 -2.96786184618462  2.29673373087309  3.42487465286529
 1 -3.99346278897890  0.85746043004300  3.70013242604260
 1 -2.00002248714871 -1.73394335473547 -0.24985889508951
 1 -2.24655632813281  0.11330858125813 -0.61063110271027
 1 -0.29890340774077  0.79820443434343  1.07043744284428
 1 -0.06472427442744 -1.06914142934293  1.49224317951795
 1 -5.98945772117212  6.77687633173317  0.71577728692869
 1 -5.18044503390339  6.08317168026803  2.32894919201920
 1 -4.49749370537054  5.70608177457746  0.81812498809881
 1 -9.16630868336834  6.04452060016002 -0.58520874907491
 1 -9.15845706160616  8.01219195809581  0.63563318511851
 1 -7.68955842164216  7.16781318081808  1.62513089858986
 1 -11.94727883298330  3.12234256025603 -2.22464546924693
 1 -13.21756142534253  1.92696658785879 -2.02405359685969
 1 -12.63516524762476  2.85484413911391 -0.35191643564356
 1 -12.50504528292829 -1.93116256135614 -1.30022497739774
 1 -13.36339505840584 -0.28805554235423 -1.67093262076208
 1 -13.22346869946995 -1.69184387058706 -3.62150203470347
 1 -12.33853741794180 -0.27892242984298 -3.73935743144314
 1 -11.37342362166217 -1.73672853995400 -3.25196381638164
 1 -8.70533013601360 -4.78544928782878 -1.87938120222022
 1 -7.90543990879088 -5.87841784598460 -0.99212882588259
 1 -9.49793967886789 -4.92749777107711 -0.34010583318332
 1 -3.39270996689669 -3.61332458315832 -0.04864013551355
 1 -1.83960212671267 -4.71359779947995  3.73387630293029
 1 -3.16175578417842 -5.85696731433143  3.60442328122812
 1 -1.55595370687069 -6.02224149734974  2.83947790069007
 1  2.73757306140614 -1.63780561646165 -1.54571853685369
 1  2.67796527412741  0.05822010161016 -2.04808796099610
 1  4.32687359295930 -1.13688590379038  0.28280149614962
 1  4.13089205270527  1.65954466486649 -2.69967833753375
 1  5.67875328702870  2.23981424032403 -1.86266273447345
 1  5.60739804740474  1.00331143864386 -3.04797352835284
 1  6.85955801870187  1.55607960796080 -0.06549390659066
 1  6.35575969536954  0.10553251585159  0.64456417311731
 1  7.37273465816582 -1.25877511271127 -1.12323364696470
 1  7.91109354525453  0.16501971007101 -2.07532045564556
 1  9.07820987258726  0.89249713471347 -0.00506287408741
 1  8.99766825552555 -0.54275978217822  0.68086595029503
 1  10.35382293369337 -0.00523798609861 -1.81408629812981
 1  9.38258324382438 -2.36980495699570 -2.06236216101610
 1  11.11291384708471 -2.32492927682768 -2.01896614051405
 1  9.88011089708971 -2.78287022902290 -0.72749218891889
 1  11.58271595249525  0.76978920912091  0.15313680118012
 1  11.41288434183418 -0.71731769306931  1.06075669726973
 1  12.94276759565957 -1.71701986318632 -0.91446911451145
 1  13.00170392289229 -0.33129243824382 -1.78504186548655
 1  13.69091052775278  0.87289984598460  0.63284062706271
 1  13.90305305840584 -0.65204480918092  1.23852036853685
 1  15.25715900440044  0.54413389838984 -1.43401775977598
 1  15.75995343824382 -2.36967725982598 -0.35834728862886
 1  15.04725777647765 -1.92873524912491 -1.91906932203220
 1  16.64144377377738 -1.25040056495650 -1.75876734623462
 1  15.98282348304830  1.55096292999300  0.52767931223122
 1  16.38648309550955 -0.17075625072507  1.36708947014701
 1  18.25210614931493 -0.69400594799480 -0.25547888828883
 1  17.89737680218022  0.95965328422842 -1.17638121392139
 1  18.41866265886589  2.03879803750375  1.00663866916692
 1  18.82178933923393  0.67646182718272  1.84508450875088
 1  20.75081999469947  0.41346749494949  0.17233429742974
 1  19.98249235583558  3.20108367026703 -1.11036462986299
 1  21.50872512461246  2.14460111291129 -1.20111147444744
 1  19.83438734313431  1.59083089388939 -1.81301827082708
 1  21.34479045424542  1.21189929902990  2.14861447864786
 1  22.25772747904790  2.23134436413641  1.15091005730573
 1  20.72194192409241  3.08830891419142  1.54522496299630

