%nproc=4
%Mem=2GB
# td=(NStates=1) CAM-B3LYP/6-31G(d,p) 

TD

0 1
12 -7.15591616461646  0.57464621272127  0.06132381978198
 6 -4.86733135113511 -1.97392857125713  0.57879441214121
 6 -4.77555748464847  2.87152559985999  1.18338470337034
 6 -9.37421215671567  3.07899339483948 -0.46756961666167
 6 -9.58107842154215 -1.73316882788279 -0.76606303540354
 7 -5.08130155475548  0.44708452655266  0.75438585688569
 6 -4.32345205130513 -0.69623944594459  0.78550657385739
 6 -2.95615462086209 -0.45102452815282  1.21821217541754
 6 -3.04308774717472  1.02769543784378  1.78813954465447
 6 -4.35894288918892  1.51487223602360  1.11359838973897
 6 -3.14569965206521  1.36974926302630  3.32217362626263
 6 -1.90151361236124 -0.62603786518652  0.20225418371837
 6 -0.46500392299230 -0.42132647984798  0.56238036733673
 6  0.59524066126613 -0.78864237713771 -0.49068444894489
 8  0.25352659275928 -0.98998440604060 -1.62380871257126
 8  1.76270808130813 -0.39786718311831 -0.13923071197120
 7 -7.03442389028903  2.62487807760776  0.36089478497850
 6 -5.95975525452545  3.40600157595760  0.77685121872187
 6 -6.41734898799880  4.72857714711471  0.76231691889189
 6 -7.69454216121612  4.83115374687469  0.35634402570257
 6 -8.15873014461446  3.46941613691369  0.05383793009301
 6 -5.50927888458846  5.87529999589959  1.18772353285329
 6 -8.52519031663166  5.92209324302430  0.09920690609061
 6 -8.44157804910491  7.20856697529753  0.64406065586559
 7 -9.16633890649065  0.70999386048605 -0.58837287098710
 6 -9.85161142084208  1.81829178227823 -0.66567289138914
 6 -11.25829492609261  1.41220956005601 -1.10201192069207
 6 -11.23051545544554  0.06263162726273 -1.26040475447545
 6 -9.85527120782078 -0.38288026232623 -0.90556557265727
 6 -12.36307513121312  2.36330690169017 -1.33978075287529
 6 -12.31732627892789 -0.78078548864886 -1.76555736423642
 6 -12.11103859225923 -1.13288569976998 -3.27668278687869
 7 -7.22826229452945 -1.38796841044104 -0.11100577757776
 6 -8.27342758255826 -2.15932110421042 -0.44280923612361
 6 -7.86804294989499 -3.53757202470247 -0.52301957925793
 6 -6.59384326842684 -3.61485582258226  0.00499876797680
 6 -6.11271386778678 -2.27989627092709  0.18803160736074
 6 -8.57290475787579 -4.76197904030403 -1.02059053745375
 6 -5.37745221552155 -4.38512239573957  0.33503637623762
 8 -5.15814465236524 -5.56690117351735  0.15852288298830
 6 -4.12144572397240 -3.28284407420742  0.57876774207421
 6 -3.49710034093409 -3.70284550585058  1.91794216711671
 8 -3.65159676027603 -3.10149688588859  2.96089877097710
 8 -2.68188938263826 -4.80443516591659  1.78045662656266
 6 -2.17487807570757 -5.34323855295530  3.05339027452745
 6  2.79188169986999 -0.62390018461846 -1.21201240164016
 6  4.15637772677268 -0.31885006130613 -0.59542969196920
 6  5.13324680908091  0.34795106050605 -1.12461223392339
 6  5.04181260426043  1.13423607290729 -2.39828399369937
 6  6.42541687448745  0.52219406960696 -0.35441192639264
 6  7.63107064496450 -0.11486183308331 -1.09169612011201
 6  8.88854072667267  0.02706757635764 -0.28615042784278
 6  10.15294591909191 -0.35404247594759 -0.95478644914491
 6  10.01748844904490 -1.83653458955896 -1.42677614261426
 6  11.31242411931193 -0.17261104190419 -0.07216634803480
 6  12.72201710941094 -0.55751980308031 -0.66011603450345
 6  13.90064953335333  0.03309210641064  0.20670773827383
 6  15.32952907780778 -0.17615134423442 -0.45113335313531
 6  15.57347901680168 -1.65892352615262 -0.90200981868187
 6  16.40056416231623  0.38540290029003  0.45691019821982
 6  17.80595518491849  0.49362076047605 -0.12415823042304
 6  18.81197156665667  1.15084330133013  0.71039147214721
 6  20.32848151735173  1.20164049754975  0.25487025022502
 6  20.37868922272227  2.15383368056806 -0.91908290099010
 6  21.21266219701970  1.68703163946395  1.37437280068007
 1 -4.09659114361436  3.62824834623462  1.51511609850985
 1 -9.98768916161616  3.93237407240724 -0.60871626312631
 1 -10.19685297469747 -2.43748308910891 -1.26093274547455
 1 -2.73746020292029 -1.14717303120312  2.02714340554055
 1 -2.35198880408041  1.73613719631963  1.22993364376438
 1 -2.39121357885789  1.08310876377638  3.94171788528853
 1 -3.46413147314732  2.50357441494149  3.46775894129413
 1 -3.92435587828783  0.78126281028103  3.99327173997400
 1 -2.00268275317532 -1.66079604000400 -0.15011892109211
 1 -2.13539521202120  0.01696894729473 -0.85726576617662
 1 -0.33170668806881  0.66938155205521  0.94703510261026
 1 -0.26737453945395 -1.00646516171617  1.37113106830683
 1 -5.87169594499450  6.79889853395339  0.71937764696470
 1 -5.55266225562556  6.18364172727273  2.31988828592859
 1 -4.56885084108411  5.71479264566457  0.70427360296030
 1 -9.15174722722272  5.56015216331633 -0.78278850705070
 1 -9.00454167006701  8.14982572147215  0.14383400520052
 1 -7.59934940074007  7.53977037653765  1.36451483698370
 1 -12.04794889999000  3.29458978497850 -2.03291629632963
 1 -13.16483615281528  1.83671756295630 -1.95164635613561
 1 -12.59549128022802  2.92615126982698 -0.30262150615061
 1 -12.78605338373837 -1.70716016111611 -1.31743669856986
 1 -13.35135385428543 -0.31643838063806 -1.77135266276628
 1 -13.11655800840084 -1.68122280848085 -3.58610849534954
 1 -12.06590015421542 -0.09408394599460 -3.84578807450745
 1 -11.27200347964797 -1.92340720782078 -3.45904452445244
 1 -8.83657326032603 -4.53235397829783 -2.11366463056306
 1 -7.76872623742374 -5.64610461466147 -1.09883949694970
 1 -9.51795168006801 -5.02197721902190 -0.41250307290729
 1 -3.47988868476848 -3.68568181888189 -0.38202347384738
 1 -1.40904907140714 -4.57571401110111  3.63272618791879
 1 -2.95476508510851 -5.52301391899190  3.81680451935193
 1 -1.67386549804981 -6.15751502470247  2.70436438933893
 1  2.69986929102910 -1.73660549644964 -1.43160712571257
 1  2.46495397299730 -0.03528924932493 -2.11438459065907
 1  4.07180808640864 -1.01152336753675  0.18086130213021
 1  4.06293525702570  1.05902461286129 -2.85394376407641
 1  5.28529394109411  2.16678693759376 -2.29107557575758
 1  5.83687099469947  0.76446755425543 -3.14078280928093
 1  6.54899696259626  1.55263926392639 -0.12696005320532
 1  6.08674279367937 -0.19809784718472  0.35877559425943
 1  7.43851123582358 -1.12610184538454 -1.39785110871087
 1  7.77827026292629  0.35375858395840 -2.18285120872087
 1  8.70019207080708  1.12891077607761 -0.13109547734773
 1  8.79071756045605 -0.50275578177818  0.62367023072307
 1  10.34788233963396  0.16069860756076 -1.76771166066607
 1  9.36797178267827 -1.95930390689069 -2.33856978177818
 1  10.95579813551355 -2.28793557745775 -1.89061330523052
 1  9.96627951395140 -2.53771571357136 -0.53395283498350
 1  11.28101578247825  0.88940117031703  0.17218870637064
 1  11.37496054945495 -0.68665462676268  0.85852647424743
 1  12.69045236413641 -1.62534069526953 -0.53742140974097
 1  12.99346309880988 -0.29408871787179 -1.88745210651065
 1  13.88623005970597  1.21642419841984  0.29339668266827
 1  14.02049480258026 -0.61131073577358  1.23323984048405
 1  15.30497378587859  0.27435692069207 -1.55125948394840
 1  15.45118256115612 -2.27478777087709  0.15480402650265
 1  14.99757280798080 -2.03735611121112 -1.66600401550155
 1  16.57306693609361 -1.78248377327733 -1.32826429592959
 1  16.20351555225523  1.43436126982698  0.52081862616262
 1  16.46277072427243 -0.09951912701270  1.36853961516152
 1  18.18651959065907 -0.44937148454846 -0.38200154055406
 1  17.72444950945095  1.05753307220722 -1.08661223702370
 1  18.42650344294429  2.21538569626963  0.87851585688569
 1  18.71609877017702  0.62629681068107  1.79976997729773
 1  20.72890780348035  0.34742089028903 -0.06559949594960
 1  20.21850595719572  3.22708627052705 -0.82922651605161
 1  21.41781603370337  2.32278893169317 -1.38491985528553
 1  19.83467737213721  1.78264007480748 -1.82861983098310
 1  21.09145512071207  1.20502861196120  2.21877149434943
 1  22.28496020232023  1.75377660736074  1.14214918121812
 1  20.80221995189519  2.84148423172317  1.54248468896890

