%nproc=4
%Mem=2GB
# td=(NStates=1) CAM-B3LYP/6-31G(d,p) 

TD

0 1
12 -7.09803037603760  0.56206495459546  0.11818950635064
 6 -4.81822644064406 -1.96829800820082  0.45342187488749
 6 -4.79098902780278  2.83466191349135  1.02251861676168
 6 -9.44186892239224  3.10975647114711 -0.30240310001000
 6 -9.56023633733373 -1.68121363236324 -0.80835726482648
 7 -5.07169059365937  0.36564638273827  0.72370278857886
 6 -4.34289399549955 -0.72657247924792  0.85685370857086
 6 -2.96679568496850 -0.42616204190419  1.30580093429343
 6 -2.96798023642364  1.10741340964096  1.72996372707271
 6 -4.32721971687169  1.52876362516252  1.13933096299630
 6 -2.84876995909591  1.28858114621462  3.25034644354435
 6 -1.98567202820282 -0.64902016341634  0.07458141644164
 6 -0.54343176577658 -0.32715706290629  0.58571270057006
 6  0.50180131733173 -0.64232774567457 -0.51011639213921
 8  0.24089532963296 -1.02193760136014 -1.55977230893089
 8  1.70149195969597 -0.31270866726673 -0.14047083598360
 7 -7.14011445934594  2.57027261706171  0.22614130963096
 6 -6.04196347534754  3.34442541834183  0.72591612521252
 6 -6.44306155925593  4.83443773317332  0.69643033023302
 6 -7.73275598259826  4.78515914741474  0.30514890619062
 6 -8.16736100770077  3.46724591989199 -0.01570902460246
 6 -5.43753170987099  5.85850831673167  1.01459622012201
 6 -8.51394919251925  6.01280231393139  0.08578556395640
 6 -8.36017990929093  7.14192031063106  0.67812406220622
 7 -9.17548982158216  0.71794465556556 -0.51581561526153
 6 -9.85089134883488  1.82351230433043 -0.58230455455546
 6 -11.26785588218822  1.48754709380938 -1.10761248074808
 6 -11.28459086298630  0.15957132123212 -1.21710042404240
 6 -9.88864454515451 -0.35064703900390 -0.92386740284028
 6 -12.33466228992899  2.52234280528053 -1.32941971677168
 6 -12.30959550585058 -0.79852726282628 -1.74878568706871
 6 -12.28283577197720 -1.15477788898890 -3.15082020062006
 7 -7.23464293259326 -1.41048066166617 -0.11507618461846
 6 -8.30865110491049 -2.26759193129313 -0.51944689988999
 6 -7.92819896549655 -3.61171943944394 -0.49758703600360
 6 -6.51457534163416 -3.58601293829383 -0.14576630853085
 6 -6.18981157755776 -2.17854613591359  0.06580938513851
 6 -8.71818928632863 -4.78255109750975 -0.89034751315132
 6 -5.32594706500650 -4.36476035953595  0.22343521612161
 8 -5.09235807370737 -5.58911339473947  0.08586561726173
 6 -4.14057763716372 -3.35933172297230  0.55870573587359
 6 -3.47831846274627 -3.68252347364736  1.76540691359136
 8 -3.75172677327733 -3.12662939913991  2.92297497859786
 8 -2.62560375407541 -4.67865258765877  1.58839742064206
 6 -2.04345493339334 -5.20746497559756  2.98803373887389
 6  2.84468698039804 -0.64986278087809 -1.12896409680968
 6  4.19213130213021 -0.48670684698470 -0.53355350435044
 6  5.14695818021802  0.32783904930493 -0.88945871857186
 6  5.14510293329333  1.13278592789279 -2.25211937723772
 6  6.48076240904090  0.35236708690869 -0.19162564776478
 6  7.65314285218522 -0.30546089298930 -0.97570452095210
 6  8.92621449404941 -0.26402153255326 -0.21217303010301
 6  10.18425905040504 -0.62291936363636 -0.84434540504050
 6  10.16232293249325 -1.99536047214721 -1.37295076007601
 6  11.35351822872287 -0.25572935373537  0.08918978757876
 6  12.73306821452145 -0.35839989108911 -0.64904492739274
 6  13.90898036643664 -0.07582878567857  0.32984005150515
 6  15.27214333923392 -0.10816454555456 -0.33214145394539
 6  15.57133880278028 -1.57338497229723 -0.80307992569257
 6  16.31757586348635  0.52637699769977  0.48272277947795
 6  17.68086267566757  0.59738113651365 -0.22271808640864
 6  18.80844121362136  1.30726894389439  0.63807424042404
 6  20.17031570077008  1.29868020152015  0.05293005620562
 6  20.29075042884288  2.26542483968397 -1.11504249694970
 6  21.26408733953395  1.69486242254225  1.20855621902190
 1 -3.99974145864587  3.50670619201920  1.36258084498450
 1 -10.23982437513751  3.76313714871487 -0.29682507400740
 1 -10.42198548794880 -2.38964830563056 -1.02427908010801
 1 -2.73918037493749 -1.07452576647665  2.18985967716772
 1 -2.17620122532253  1.62040562316232  1.17186783718372
 1 -1.90774523202320  0.85405585848585  3.65119883338334
 1 -2.83897895789579  2.31506556405641  3.41443360876088
 1 -3.49939338203820  0.98575325932593  3.80622303510351
 1 -2.01061354625463 -1.55961592199220 -0.38355226442644
 1 -2.21947361986199  0.03248049844985 -0.64958499809981
 1 -0.35036855425543  0.61714632853285  1.00832123122312
 1 -0.33744154615462 -1.02576709190919  1.38129208440844
 1 -5.80989976537654  6.68246689078908  0.33893960316032
 1 -5.48501549094909  6.21735509860986  2.11938823592359
 1 -4.30518447444745  5.62832399879988  0.82931610721072
 1 -9.39049110161016  5.99211535963596 -0.52648287648765
 1 -9.25190640654065  7.87253799269927  0.62047166896690
 1 -7.52505197099710  7.43789018851885  1.29655804130413
 1 -11.97132123722372  3.16179650565057 -1.99921292599260
 1 -13.31328099729973  2.06437032823282 -1.46520771227123
 1 -12.48384011511151  2.97329598429843 -0.36109735373537
 1 -12.49964474287429 -1.81643108820882 -1.31759671457146
 1 -13.33401212011201 -0.35734247104711 -1.51165669316932
 1 -13.07175352795280 -1.72859754595460 -3.43725360986099
 1 -12.36555011921192 -0.29873441104110 -3.70094359005901
 1 -11.34626090539054 -1.69503437053705 -3.46207482748275
 1 -9.07354695769577 -4.70655139803980 -1.92423568766877
 1 -8.05540490529053 -5.64222422662266 -0.76366597959796
 1 -9.45894577947795 -4.83272829412941 -0.19745156775678
 1 -3.39400009590959 -3.56427967866787 -0.15885115661566
 1 -1.47803597009701 -4.30541698139814  3.44639755505551
 1 -2.78488809740974 -5.29360097769777  3.67082992189219
 1 -1.42447055855586 -6.08184745794579  2.62768672157216
 1  2.63503280738074 -1.74625646154615 -1.40620458545855
 1  2.68157563516352 -0.09083480388039 -2.02718587078708
 1  4.28855976157616 -1.27388960416042  0.16962017801780
 1  4.08433739723972  1.39023773417342 -2.31149951965197
 1  5.61375678737874  2.09802006090609 -2.08606507470747
 1  5.76956426402640  0.71518262576258 -2.98084681568157
 1  6.68983104600460  1.37529152915291 -0.01258861606161
 1  6.22154627402740 -0.38006604400440  0.74325404210421
 1  7.30495788048805 -1.18703793899390 -1.34565588918892
 1  7.64928736463646  0.28768197629763 -1.82513543714371
 1  9.01835388698870  0.79417730273027  0.42028966116612
 1  8.59563805250525 -0.84487999419942  0.69570743444344
 1  10.55338288968897 -0.02280974327433 -1.58609349884989
 1  9.51484647014702 -2.34214219071907 -2.26909283408341
 1  11.29175173087309 -2.33396017991799 -1.62114635853585
 1  9.85275816181618 -2.63478542054205 -0.38955839553955
 1  10.92908058895890  0.83223545374537  0.44979646714672
 1  11.37283033643364 -1.03915987728773  0.86483710531053
 1  12.66742006090609 -1.37902606380638 -1.16771443904390
 1  12.86686043854385  0.37344803580358 -1.49324268556856
 1  13.71295273197320  0.79852240824082  0.80590793379338
 1  13.64669742284228 -0.77991759645965  1.19860637713771
 1  15.18768205670567  0.36972645764576 -1.18651300930093
 1  15.78726616951695 -2.13664395649565  0.02693123922392
 1  14.73647669836984 -2.05799817541754 -1.24020143524352
 1  16.46556618601860 -1.51316684158416 -1.51184265376538
 1  16.00802600330033  1.45950378407841  0.74004054835484
 1  16.45347979517951 -0.14820399549955  1.48537129832983
 1  18.15614655335533 -0.43052960036004 -0.64383772417242
 1  17.36272333683369  1.27249456835684 -1.12348592439244
 1  18.49342013461346  2.39550370807081  1.09428743404340
 1  18.88911607190719  0.80255443644364  1.72622262256226
 1  20.43124803750375  0.31658780698070 -0.30226316231623
 1  19.87155126172617  3.22497605950595 -0.77335092849285
 1  21.26288054015401  2.31335798859886 -1.32607397069707
 1  19.67576148054806  2.00345215601560 -2.00204717371737
 1  21.36554252945295  0.94779288838884  2.10505012221222
 1  22.28960066636663  1.54634586428643  0.63986895319532
 1  21.21194092399240  2.83395347864786  1.49852029252925

