%nproc=4
%Mem=2GB
# td=(NStates=1) CAM-B3LYP/6-31G(d,p) 

TD

0 1
12 -7.12140271327133  0.59653840194019  0.08743643104310
 6 -4.89703432143214 -1.90795197359736  0.39888642134213
 6 -4.70084001290129  2.82634108140814  1.10510687558756
 6 -9.43288802430243  3.10635613111311 -0.37106996669667
 6 -9.47383769746975 -1.71427693869387 -1.01266769586959
 7 -5.08416184078408  0.41521133923392  0.62540295859586
 6 -4.28728843494349 -0.69226904890489  0.70486851005101
 6 -2.87583658905891 -0.39396882258226  1.16128648284828
 6 -2.93978741714171  1.09517218551855  1.50058078877888
 6 -4.39632662756276  1.50016076487649  1.00999802970297
 6 -2.99506458855886  1.17450973907391  3.05503691259126
 6 -1.82428588958896 -0.56007126852685 -0.04440048174817
 6 -0.47201462406241 -0.46924127132713  0.57567169646965
 6  0.49545068226823 -0.78359187208721 -0.50293567406741
 8  0.19029026912691 -1.36348175577558 -1.60204653635364
 8  1.82783459395940 -0.55176257265727 -0.15087187608761
 7 -7.08971941984198  2.56597218701870  0.33274196969697
 6 -6.06573585258526  3.39896087188719  0.71510504410441
 6 -6.43373062616262  4.77225151455146  0.88898958615862
 6 -7.67852055905591  4.81189182068207  0.45100349164916
 6 -8.16165043664367  3.44649384468447  0.05702824912491
 6 -5.58227618431843  5.87459992589259  1.26666142664266
 6 -8.69861765936593  6.05049608330833  0.37357434283428
 6 -8.51211510281028  7.12468858745875  1.09285553535354
 7 -9.06709898249825  0.70886374747475 -0.60195422912291
 6 -9.92850911061106  1.82181213431343 -0.74248057215722
 6 -11.20074917151715  1.46820515961596 -1.09677139663966
 6 -11.15319772367237  0.08530389448945 -1.36564527852785
 6 -9.85677135783578 -0.33089506380638 -1.08750376647665
 6 -12.32677150085008  2.56875744674467 -1.30173694849485
 6 -12.35739028532853 -0.81622903300330 -1.76602741124112
 6 -12.28221570997100 -1.18323073427343 -3.23185830443044
 7 -7.18654812311231 -1.31782139573957 -0.18901357835784
 6 -8.24017425722572 -2.17242241434143 -0.62883783898390
 6 -7.79400554615462 -3.50697896539654 -0.64027130443044
 6 -6.51450533463346 -3.51454579157916 -0.13218495039504
 6 -6.17254985138514 -2.15576385768577  0.04244704890489
 6 -8.47901536893689 -4.71805464786479 -1.04096257465747
 6 -5.33116758705871 -4.27335121862186  0.21755462806281
 8 -5.24461329922992 -5.53027751115111  0.24742177287729
 6 -4.20788436783678 -3.29484527432743  0.60658052335234
 6 -3.64482511341134 -3.56037125842584  2.00375074797480
 8 -4.01729332993299 -3.02954969116912  3.06540922202220
 8 -2.80835202890289 -4.67485220762076  1.90597917881788
 6 -2.31195178307831 -5.03035726482648  3.20199513501350
 6  2.73371588328833 -0.81741953655366 -1.14858605900590
 6  4.20698278727873 -0.62990116641664 -0.44944509350935
 6  5.08450193459346  0.16305257065707 -0.96802657535754
 6  5.01319974297430  1.02248489778978 -2.23849801510151
 6  6.39133346614661  0.26911876207621 -0.29120560576058
 6  7.63584112201220 -0.33091343824382 -1.03608055855586
 6  8.95985785838584 -0.12134726512651 -0.22014382718272
 6  10.22103272777278 -0.59702677437744 -0.86007697819782
 6  10.16403310351035 -2.09538047414741 -1.19488295329533
 6  11.46002887978798 -0.18379216001600  0.02511337993799
 6  12.76251115881588 -0.72495654675468 -0.59683970687069
 6  13.90649011741174 -0.14034523732373  0.15575264276428
 6  15.32906903180318 -0.24324805390539 -0.58750699049905
 6  15.77366903580358 -1.62457009080908 -0.86897651535154
 6  16.47080118601860  0.42782714271427  0.34952946014601
 6  17.87070165956596  0.63334473287329 -0.20483629822982
 6  18.77991836133613  1.37812602960296  0.70401083408341
 6  20.28245691489149  1.58537887138714  0.16161092429243
 6  20.50397175097510  2.27811610881088 -1.08944993769377
 6  21.11763269406941  2.20442337863786  1.19387475087509
 1 -3.87763924842484  3.46694221562156  1.56786137303730
 1 -10.17338773147315  3.95415625062506 -0.36492188368837
 1 -10.20693398279828 -2.41641098189819 -1.24183083528353
 1 -2.45239169606961 -0.99877819171917  1.95213590479048
 1 -2.10347395259526  1.76800038263826  1.32538318871887
 1 -2.06654111161116  0.86532698559856  3.69639335283528
 1 -3.02511757175718  2.12021607910791  3.46419858525853
 1 -4.11235467816782  0.70999568356836  3.48898131093109
 1 -2.01377386228623 -1.61592155255526 -0.55113902310231
 1 -2.07253892639264  0.38110536093609 -0.52456249584958
 1 -0.23321683908391  0.39157377127713  1.11917231633163
 1 -0.45763356535654 -1.17044155935594  1.50740469566957
 1 -5.67691646704670  6.78369701380138  0.67937364656466
 1 -5.63959094849485  6.16658002110211  2.38649494659466
 1 -4.49014297029703  5.83217438383838  1.07383055865587
 1 -9.16942899539954  6.17897404550455 -0.48820904910491
 1 -9.10381159705971  8.12763350225022  1.05161478327833
 1 -7.76344581038104  7.14111051055106  1.81813019851985
 1 -11.59405351045105  3.39256958295830 -1.90559356405641
 1 -13.32500216941694  2.20163405460546 -1.91962315381538
 1 -12.55766749784979  3.10339899459946 -0.27207845184518
 1 -12.51250602900290 -1.55435488058806 -1.05919087398740
 1 -13.28203692259226 -0.13343007980798 -1.56497202470247
 1 -13.23107946054606 -1.96846153235323 -3.27793767826783
 1 -12.40934449864987 -0.33682822042204 -4.01303479917992
 1 -11.36392267156716 -1.66863173027303 -3.50820944094409
 1 -8.78267787078708 -4.60983172607261 -2.00049331343134
 1 -7.84214357915791 -5.57493749794980 -1.15672528552855
 1 -9.26093597849785 -4.72878790009001 -0.40032185478548
 1 -3.34617531343134 -3.58486173687369  0.14086881538154
 1 -1.49974814131413 -4.26707314701470  3.73605652095210
 1 -3.19896950555055 -5.25343696129613  3.86867970687069
 1 -1.86992510401040 -5.94826409960996  3.12495644854486
 1  2.69182848694869 -1.79885172107211 -1.46591055605561
 1  2.75008248584858 -0.12734845524552 -1.97034018621862
 1  4.33035394099410 -0.97078929412941  0.60989420542054
 1  4.05503446694669  0.91947065746575 -2.78218658835884
 1  5.18742415411541  2.13948420732073 -2.02253872207221
 1  5.93464077167717  0.89131023852385 -2.99682841384138
 1  6.83393545644564  1.29982398239824 -0.25055241244124
 1  6.28604272367237  0.01564352695270  0.93723344004400
 1  7.52470985568557 -1.39402863806381 -1.27495881948195
 1  7.76027846374638  0.05982919101910 -2.04307723132313
 1  9.12194424602460  0.82283016801680  0.04678231043104
 1  8.75367385608561 -0.58359386558656  0.90286815051505
 1  10.30410796219622 -0.15510297259726 -1.76201109060906
 1  9.37271225672567 -2.45821379787979 -1.92899882468247
 1  11.22582513821382 -2.43148993289329 -1.72550679457946
 1  10.16871975797580 -2.57224916691669 -0.19174861456146
 1  11.50887856875688  0.97760999119912  0.06595808330833
 1  11.32820587398740 -0.70248620992099  0.93161378297830
 1  12.81503482238224 -1.95119328052805 -0.63389105670567
 1  13.00546429892989 -0.31545085408541 -1.57767112841284
 1  13.99045048174817  1.06009856585659  0.48460580358036
 1  14.23962671577158 -0.63259286398640  1.13503001950195
 1  15.20863415191519  0.41453093809381 -1.44561891989199
 1  15.93733117601760 -2.25725601770177 -0.10706216011601
 1  15.05412846354636 -2.19222159775978 -1.70362777787779
 1  16.88369799919992 -1.89636516141614 -1.30933240274027
 1  15.84983018371837  1.32148998269827  0.62965951025102
 1  16.38948339553955 -0.24845402050205  1.13643640484048
 1  18.41361229992999 -0.38097464486449 -0.41940528092809
 1  17.79901696619662  1.22458977787779 -1.10514409020902
 1  18.34936572917292  2.41839599729973  0.94203220852085
 1  18.72158931923192  0.79060324132413  1.70424042434243
 1  20.67497240994100  0.55638178637864  0.14369143314331
 1  20.14277838443844  3.40229379127913 -1.06586017941794
 1  21.59410366246625  2.13094974777478 -1.58671003430343
 1  19.59720362476248  1.79489129992999 -1.56999396839684
 1  20.56665264046405  1.78422653175317  2.30842045924592
 1  22.19016072237224  2.06301753145315  1.02486745304530
 1  20.93538326822683  3.44824490779078  1.51044148464847

