%nproc=4
%Mem=2GB
# td=(NStates=1) CAM-B3LYP/6-31G(d,p) 

TD

0 1
12 -7.16822739573957  0.54351309940994  0.11504919231923
 6 -4.82270688868887 -1.99867104550455  0.47733426612661
 6 -4.73874380328033  2.83342178947895  1.11616798169817
 6 -9.46336107160716  3.11215671117112 -0.38856171587159
 6 -9.52351266496650 -1.63967947894789 -0.77715414451445
 7 -5.10596402100210  0.38440825892589  0.64246466476648
 6 -4.33904361046105 -0.68240806280628  0.71149917311731
 6 -2.91240024542454 -0.43151257695770  1.23830418461846
 6 -3.03328676707671  1.02172484078408  1.64845557625763
 6 -4.38083507840784  1.47120786958696  1.23615064496450
 6 -2.94907999009901  1.22467475557556  3.13549495839584
 6 -1.89238269926993 -0.54830009140914  0.08887284558456
 6 -0.33075049764976 -0.30833518071807  0.48667279657966
 6  0.53124426162616 -0.63316682958296 -0.67072245274527
 8  0.11149238933893 -1.01517692529253 -1.76893322502250
 8  1.76894870537054 -0.34005140154015 -0.33960074897490
 7 -7.19928037593759  2.61669725952595  0.37158585408541
 6 -6.04366364536454  3.30887186298630  0.75402893649365
 6 -6.40692794589459  4.76163045244525  0.80631131833183
 6 -7.71890459745975  4.86352698419842  0.30383877517752
 6 -8.15037930953095  3.55172436773677  0.08143068936894
 6 -5.44033198989899  5.95750821672167  0.95583034353435
 6 -8.45539333693369  6.10954198789879 -0.07733074767477
 6 -8.49586347764776  7.12095821442144  0.83726997679768
 7 -9.06123839643964  0.65793865496550 -0.52508654235424
 6 -9.84004026372637  1.78198815191519 -0.59178550265026
 6 -11.27601669826983  1.43879221832183 -0.96995871537154
 6 -11.28756116001600  0.07023238733873 -1.15300401440144
 6 -9.92496817751775 -0.36649862416242 -0.80442545864586
 6 -12.26818564226423  2.56248681968197 -1.28531530633063
 6 -12.48138268456846 -0.77671508160816 -1.62196300480048
 6 -12.26528401680168 -1.14773718491849 -3.23642876147615
 7 -7.16316578487849 -1.37692730633063 -0.18813349034904
 6 -8.28155839563956 -2.25300047214721 -0.48809376457646
 6 -7.83699984558456 -3.57187545504550 -0.55383266056606
 6 -6.51135501960196 -3.58111244824482 -0.11361309320932
 6 -6.18260085648565 -2.17719600090009  0.15002780698070
 6 -8.79289675707571 -4.72333517591759 -0.87271574997500
 6 -5.35886035633563 -4.42070595409541  0.25451832443244
 8 -5.24139297719772 -5.53893837723772  0.21550858155816
 6 -4.14717829722972 -3.36652244204420  0.53025289058906
 6 -3.47100773167317 -3.67926314761476  1.86397677057706
 8 -3.79027062766277 -3.17054379057906  2.97557023812381
 8 -2.73428462216222 -4.74658938133813  1.69804838573857
 6 -2.11353194109411 -5.37559178827883  2.90485542104210
 6  2.75589810151015 -0.64740253485349 -1.26925812621262
 6  4.09445153415342 -0.47732590889089 -0.72996314531453
 6  5.13365685008501  0.38915518091809 -1.02152192489249
 6  5.05095351835184  1.28390103940394 -2.24798896419642
 6  6.38402273507351  0.42075392559256 -0.30416690189019
 6  7.62730026792679 -0.23922426932693 -1.02110906140614
 6  8.89316118871887 -0.13422855325533 -0.14650646344634
 6  10.25112573707371 -0.58541561326133 -0.80013098359836
 6  10.19672637283728 -2.18696963306331 -1.13099656465647
 6  11.45018789568957 -0.28627240804080  0.06518738733873
 6  12.80622553025303 -0.62562661376138 -0.60731075397540
 6  14.05852532093209 -0.13531473427343  0.25347241474147
 6  15.38434455935594 -0.23148687778778 -0.38630687048705
 6  15.77121879077908 -1.68369600340034 -0.88045766346635
 6  16.43938804470447  0.34989934993499  0.42660716791679
 6  17.88236282568257  0.32172357075708 -0.07694350895090
 6  18.77349771927193  1.33224144114411  0.76984741774177
 6  20.24049271847185  1.49950028352835  0.28564332753275
 6  20.26043739753975  2.07712600980098 -1.16102709540954
 6  21.12445337613762  2.28580151645165  1.32533789718972
 1 -3.95754723922392  3.67119264066407  1.56210079697970
 1 -10.17786817951795  3.77979881488149 -0.76329172067207
 1 -10.05100839023902 -2.55813515431543 -1.10746739893990
 1 -2.62657911481148 -1.19527784168417  1.96598728992899
 1 -2.17620122532253  1.54145772837284  1.16492714311431
 1 -2.00826528402840  0.75850630353035  3.67657137063706
 1 -3.16219127912791  2.11573563106311  3.62107427282728
 1 -3.79172261496150  0.51503618761876  3.52718513131313
 1 -1.96517900280028 -1.47102706310631 -0.51209511871187
 1 -2.17222889538954  0.13213046344634 -0.51407144674467
 1 -0.07067058445845  0.63385799969997  0.88382878197820
 1 -0.05594339633963 -0.96987150235023  1.35147910311031
 1 -5.96710548594859  6.88756740084008  0.42408811801180
 1 -5.44808179757976  6.48906226932693  2.03920021712171
 1 -4.45422937893789  5.65330649704971  0.65636881248125
 1 -9.18278033053305  5.94219036713671 -0.81685191339134
 1 -9.03636485238524  7.95478621752175  0.53375299709971
 1 -7.91956142194219  7.11916831633163  1.80814920042004
 1 -11.95935004010401  3.34602492849285 -2.25521852655265
 1 -13.24206387558756  1.97070096129613 -1.45301649314932
 1 -12.32481421252125  3.15622427712771 -0.51274251825182
 1 -12.55741051945195 -1.67167661276128 -0.83196815171517
 1 -13.41808052695269 -0.34309104590459 -1.33087861536154
 1 -13.13942029462946 -1.82574726092609 -3.69676956145615
 1 -12.36812037623763 -0.19420395799580 -3.51626512221222
 1 -11.13685996529653 -1.36426129322932 -3.42004062406241
 1 -8.93356295929593 -4.63264400730073 -1.91593485758576
 1 -8.34932429722972 -5.80794079827983 -0.59539915291529
 1 -9.85778566346635 -4.68331335263526 -0.30325214781478
 1 -3.42358305420542 -3.60535378607861 -0.38641391289129
 1 -1.44819298579858 -4.67470391009101  3.41942485778578
 1 -3.03363297189719 -5.71105272287229  3.58488132703270
 1 -1.42230034153415 -6.23716298949895  2.57572152505251
 1  2.83650295439544 -1.67009884578458 -1.64065803080308
 1  2.63755123272327  0.13002728232823 -2.24808796099610
 1  4.32530343594359 -1.16794901010101  0.08610182618262
 1  4.06440540404040  1.22978168856886 -2.53988235793579
 1  5.44410982268227  2.28084834373437 -1.99168563676368
 1  5.75716302390239  0.84957606510651 -2.96034476547655
 1  6.69882194509451  1.49347334733473  0.04083672647265
 1  6.39543366276628 -0.03684172157216  0.62884260096010
 1  7.40773815851585 -1.24499373457346 -1.29201052465247
 1  8.01484392029203  0.44043725182518 -1.86892981658166
 1  9.23352540414041  0.84230211521152  0.11265889808981
 1  8.57811630033003 -0.68383388958896  0.87271513521352
 1  10.41591914331433 -0.04108157045705 -1.69101399089909
 1  9.18735372087209 -2.30138811531153 -1.82675860066007
 1  11.02105466116612 -2.22131891579158 -1.86504074797480
 1  10.09592247824783 -2.87974991699170 -0.35949538923892
 1  11.29160684158416  0.88106033623362  0.15219670717072
 1  11.45755880928093 -0.64145010631063  1.09503012461246
 1  12.95821914081408 -1.59155731693169 -0.82346001360136
 1  12.91130488298830 -0.09029833883388 -1.65378874017402
 1  14.01610304700470  0.92998555455546  0.45995333833383
 1  13.76806956005601 -0.74371397609761  1.13689020552055
 1  15.28039132763276  0.29121860686069 -1.28190254825483
 1  15.74138158105811 -2.42517280938094  0.01579012511251
 1  14.91321437213721 -2.06161853745375 -1.47641505660566
 1  16.77084671407141 -1.60148567346735 -1.43573504300430
 1  16.18653385408541  1.55241307500750  0.80436698099810
 1  16.54641908910891 -0.13283245834583  1.45851861306131
 1  18.27412835153515 -0.58906545394539 -0.13523686408641
 1  17.84723178767877  0.77319463836384 -1.06321989778978
 1  18.21927271987199  2.58446260396040  0.59408741404140
 1  18.77646480678068  0.98929311031103  1.91049104940494
 1  20.64327924062406  0.39592574077408  0.19463652765277
 1  19.77689179577958  3.28656221812181 -1.34520811421142
 1  21.26824107620762  2.27790444324432 -1.46440780408041
 1  19.76505040944095  1.53894570537054 -1.93729069806981
 1  20.98094406960696  1.96230433953395  2.43095271247125
 1  22.23905561186119  2.31146237593759  1.03942890919092
 1  20.73906363626363  3.31975205850585  1.18438887938794

