%nproc=4
%Mem=3GB
# td=(NStates=1) iop(3/107=0140000000,3/108=0140000000) CAM-B3LYP/6-31G(d,p) 

TD

0 1
12 -7.12383707540754  0.64523290679068  0.00209657965797
 6 -4.85974479097910 -1.97145437603760  0.43191859425943
 6 -4.68086411701170  2.79399811771177  1.17001710691069
 6 -9.30636740124012  3.09334688768877 -0.33311578687869
 6 -9.56321241924192 -1.70651241694169 -0.92863966886689
 7 -5.07994502570257  0.43926001660166  0.71567939193919
 6 -4.39017126442644 -0.74115525872587  0.81633952865287
 6 -2.91365758635864 -0.42950134813481  1.19727539663966
 6 -3.04293752065207  1.02229093069307  1.75047132643264
 6 -4.33702393709371  1.45705035613561  1.14609900380038
 6 -3.00306648744874  1.15293811311131  3.27264257885789
 6 -1.93246897659766 -0.64605059425943  0.01074488478848
 6 -0.49236494569457 -0.63812706070607  0.51017439973997
 6  0.60086200940094 -0.77034365626563 -0.54893468356836
 8  0.29332954975498 -1.06703048074807 -1.71857925102510
 8  1.84097269566957 -0.47410734913491 -0.21184657225723
 7 -7.02134977837784  2.61058426832683  0.27216814091409
 6 -5.86784692849285  3.30844461186119  0.69493536963696
 6 -6.23965887428743  4.74087095069507  0.72581083978398
 6 -7.59056384168417  4.85259706490649  0.34690081648165
 6 -8.04795432293229  3.45089202800280  0.10704870347035
 6 -5.34524655855586  5.89866934063406  1.09166932213221
 6 -8.44095410341034  6.09602987258726  0.22946355885589
 6 -8.44109251925192  7.26965611531153  0.88871293059306
 7 -9.01080012111211  0.71679867426743 -0.56873344724472
 6 -9.82763024932493  1.80353367766777 -0.60427324082408
 6 -11.15378933163317  1.57234667916792 -1.07745260496050
 6 -11.18087757495750  0.17401494729473 -1.21080110841084
 6 -9.89724732833283 -0.34859505290529 -0.90959316061606
 6 -12.26114705240524  2.60309555095510 -1.44901435413541
 6 -12.29111290419042 -0.64325044884488 -1.79590892149215
 6 -12.13352526142614 -0.99531972427243 -3.30153080428043
 7 -7.21012397479748 -1.38554339003900 -0.19207188228823
 6 -8.25723004930493 -2.15957450295030 -0.58154973487349
 6 -7.81420346014601 -3.55555610701070 -0.60889118891889
 6 -6.50302809330933 -3.57440042214221 -0.17954003570357
 6 -6.14947867956796 -2.18829678547855  0.03447528292829
 6 -8.62394473397340 -4.76437253565357 -0.72425580868087
 6 -5.39689515241524 -4.38133169656966  0.25172014611461
 8 -5.21527251955195 -5.53980083708371  0.33957990659066
 6 -4.26710121272127 -3.31464891229123  0.53738205980598
 6 -3.52898707550755 -3.70002794549455  1.74600056855686
 8 -3.75830861426143 -3.27426478437844  2.87560091829183
 8 -2.65710106290629 -4.70763938243824  1.68703774127413
 6 -2.29904886188619 -5.31684689058906  2.91997939833983
 6  2.86400272067207 -0.69660794969497 -1.13663718091809
 6  4.17495838103810 -0.57832310021002 -0.40786334913491
 6  5.14240973227323  0.28227475547555 -0.93549642664266
 6  5.05186891249125  1.19111678697870 -2.06442057705771
 6  6.37704398309831  0.42522313831383 -0.13286381078108
 6  7.57586903950395 -0.08621716971697 -0.91730205890589
 6  8.81631934353435 -0.21225304140414 -0.01075717811781
 6  10.02049751035103 -0.66541820502050 -0.80825654565457
 6  10.01117439403940 -2.12419029892989 -1.05394236023602
 6  11.33905856965696 -0.26779167026703  0.01203324082408
 6  12.74938267376738 -0.51400143364336 -0.69933743884388
 6  13.97677894969497 -0.17156287058706  0.29039545114511
 6  15.27264325532553 -0.22145122872287 -0.36353200570057
 6  15.58652492349235 -1.72345073337334 -0.73760558685869
 6  16.25547253995400  0.60111662896290  0.43283801850185
 6  17.73804139183919  0.67824155375538 -0.20843737073707
 6  18.69196961556155  1.39727780628063  0.76182943964396
 6  20.15629843424342  1.37927736023602  0.03250995699570
 6  20.05082792859286  2.13112041714171 -1.31490618651865
 6  21.17651271827183  2.05325702560256  0.98217215721572
 1 -3.84446480998100  3.56643989538954  1.57928402420242
 1 -10.02375449874988  3.82096437093709 -0.43686821302130
 1 -10.22899732383238 -2.34423995909591 -1.28152597199720
 1 -2.73315060226023 -1.18731893459346  1.91783827452745
 1 -2.56737020332033  1.66128818991899  1.04639828882888
 1 -1.89250233663366  0.85478458485849  3.49990032743274
 1 -3.33829093819382  2.20407963076308  3.60800882308231
 1 -3.70629342984298  0.48537369166917  3.77399908510851
 1 -2.02417753675368 -1.54623529432943 -0.64365237233723
 1 -2.10102647164716  0.18145576537654 -0.81745848044804
 1 -0.52084751345134  0.29879946724673  1.01140500350035
 1 -0.29127754805481 -1.40184095069507  1.24534799309931
 1 -6.00911508920892  6.77061457345735  0.57000683198320
 1 -5.19920139143914  6.08780166156616  2.23345535803580
 1 -4.34288913351335  5.60991525952595  0.59260999359936
 1 -9.23935419521952  5.88565194719472 -0.47355870857086
 1 -8.88226729042904  8.12959268026803  0.55911568726873
 1 -7.78625655775578  7.39983682008201  1.76946590689069
 1 -11.73957443044304  3.18815796289629 -2.26394222572257
 1 -13.24709200690069  2.11557029942994 -1.70323605180518
 1 -12.18152918561856  3.28632596669667 -0.59073951345134
 1 -12.64020598549855 -1.59583050585059 -1.14593809470947
 1 -13.14781708080808 -0.07093980448045 -1.84018977337734
 1 -12.78637383658366 -1.68044170627063 -3.85649660776078
 1 -12.08172857855786  0.00067159585959 -3.86103508190819
 1 -11.04987982738274 -1.42209323652365 -3.59109738793879
 1 -9.06244086268627 -5.30037653845385 -1.67953401640164
 1 -8.17589197439744 -5.60901685498550 -0.48365832093209
 1 -9.54274845384539 -4.92699114751475 -0.34513678237824
 1 -3.73042056055606 -3.42696930253025 -0.44227196529653
 1 -2.03555694329433 -4.47261947534754  3.69073079067907
 1 -3.22218865616562 -5.92383190809081  3.37513855155516
 1 -1.52670319081908 -6.08925971077108  2.50830419151915
 1  2.79227728252825 -1.76730335313531 -1.61696314501450
 1  2.73059950125012  0.01883996879688 -1.91160221772177
 1  4.49797028372837 -1.13716213001300  0.57520892109211
 1  4.14097940944094  1.12067761046105 -2.47334782048205
 1  5.42942987518752  2.14553497739774 -1.51865930433043
 1  5.67414698319832  0.98619981088109 -2.89253551045105
 1  6.48661684558456  1.52554253485349  0.11422103600360
 1  6.30924879697970 -0.02133947064706  1.00281647714771
 1  7.21725384818482 -1.10090076307631 -1.42225698289829
 1  7.59342190069007  0.49418852185219 -1.89700052295230
 1  8.88034407870787  0.77537703520352  0.34138656675668
 1  8.51807492829283 -0.81308966166617  0.90943706710671
 1  9.99428406020602 -0.09573342554255 -1.91816697469747
 1  9.19616922602260 -2.29555783928393 -1.69685806770677
 1  10.86220536113611 -2.67403080238024 -1.52389774787479
 1  9.66090828792879 -2.64421853655365 -0.20410780448045
 1  11.23217485908591  0.79266569997000  0.23575134593459
 1  11.23772136763676 -0.69681097869787  0.88108442854285
 1  13.01328928142814 -1.67660507980798 -0.91611388288829
 1  12.75309113901390  0.02788772477248 -1.66005033873387
 1  13.75430685098510  1.09347471077108  0.48593342204220
 1  13.80427873847385 -0.61922830173017  1.30220259425943
 1  15.01457185858586  0.19509290629063 -1.35582685148515
 1  15.65141893869387 -2.16526586778678  0.25916778127813
 1  14.64739638403840 -2.28369288928893 -1.24693606710671
 1  16.53460173977398 -1.87239813681368 -1.23926043934393
 1  15.98186145964596  1.67506584028403  0.46917283358336
 1  16.56456053385338  0.37468118331833  1.52906140084008
 1  18.05051178887889 -0.37156367036704 -0.30512070767077
 1  17.59728703830383  1.11954084818482 -1.31037678127813
 1  18.46950600750075  2.46109737773777  1.06245819261926
 1  18.62588855135514  0.76057089658966  1.65331857735774
 1  20.42867269956996  0.37871886948695  0.02027791999200
 1  19.97439425792579  3.25470624712471 -1.07562974767477
 1  20.80597439823983  2.01521266336634 -2.03661164236424
 1  19.25802420002000  1.60885117531753 -2.04596298069807
 1  21.24814866836683  1.55182082298230  2.02707637643764
 1  22.14349224202420  2.27540801150115  0.42534918851885
 1  20.78238831733173  3.11120723792379  1.27623476017602

