%nproc=4
%Mem=2GB
# td=(NStates=1) CAM-B3LYP/6-31G(d,p) 

TD

0 1
12 -7.16574714771477  0.55963471157116 -0.03178549114911
 6 -4.88738335633563 -1.86603778217822  0.45475200790079
 6 -4.82285221412141  2.86463491079108  1.11927829272927
 6 -9.53582831833183  3.05597109260926 -0.30861372107211
 6 -9.53372368606861 -1.87832334333433 -0.86196262536254
 7 -5.11697512211221  0.46943676177618  0.69940035833583
 6 -4.34272397849785 -0.55832565456546  0.67498552175218
 6 -2.88501750715072 -0.32389181488149  1.21967232143214
 6 -3.03268670707071  1.12641530983098  1.67870860156016
 6 -4.40295729062906  1.56081683048305  1.14568159805981
 6 -3.02007708980898  1.14745703380338  3.31921333023302
 6 -1.87207066806681 -0.45089035043504  0.00008396669667
 6 -0.40321774437444 -0.33112745994599  0.46545067436744
 6  0.54159529672967 -0.56041955485549 -0.65217059755976
 8  0.24493573367337 -0.75784119171917 -1.79816614831483
 8  1.79412122262226 -0.38398579497950 -0.16714350325033
 7 -7.16236668456846  2.59136472627263  0.30814951045105
 6 -6.12066134513451  3.39688066386639  0.82720625422542
 6 -6.55006225932593  4.78702299169917  0.78355904310431
 6 -7.84274698169817  4.81300193169317  0.30027841914191
 6 -8.25570984258426  3.43417261256126  0.07585013131313
 6 -5.64728268496850  5.88318078397840  1.15783054355436
 6 -8.71283908150815  5.97538857255726  0.14782176757676
 6 -8.71553544484448  7.16502262086209  0.85196144594459
 7 -9.21030330293029  0.54454731583158 -0.43616765046505
 6 -9.99465572527253  1.70014996809681 -0.66812313641364
 6 -11.31179027562756  1.36601494059406 -1.05328704820482
 6 -11.28746115001500 -0.00916555245525 -1.21147986198620
 6 -9.93731941264126 -0.44647662196220 -0.77850286638664
 6 -12.37534635833583  2.36410698169817 -1.45359213401340
 6 -12.34080862716272 -0.84744215431543 -1.83160396889689
 6 -12.29814730313031 -1.26939935113511 -3.25089020762076
 7 -7.28310777907791 -1.42009162276228 -0.08773345034503
 6 -8.29094933473347 -2.28157332943294 -0.50241519671967
 6 -7.74664080968097 -3.55170343784378 -0.57530480778078
 6 -6.41429531363136 -3.58243258025803 -0.14813654555456
 6 -6.14958755515552 -2.14566284758476  0.09381218541854
 6 -8.53762122952295 -4.83321616401640 -0.85608408680868
 6 -5.31205567586759 -4.27974185768577  0.23189606220622
 8 -5.15205404330433 -5.45328981238124  0.14081111181118
 6 -4.05226880628063 -3.17131292109211  0.53497336263626
 6 -3.48664929582958 -3.66266148744874  1.90099047194719
 8 -3.56477807840784 -2.92409914611461  2.90190287138714
 8 -2.71450264396440 -4.74599932233223  1.66315489638964
 6 -2.21312190009001 -5.06638086718672  2.93878881438144
 6  2.95273778547855 -0.55279307390739 -1.16904810521052
 6  4.18659074807481 -0.40692886918692 -0.40694084308431
 6  5.19977346174617  0.31404767016702 -0.90584035673567
 6  5.04973339633963  1.11930457975798 -2.28802296759676
 6  6.54549888268827  0.48754060426043 -0.26691317651765
 6  7.74038157605761 -0.06923727062706 -0.87174412491249
 6  8.91017288988899 -0.13178830923092  0.07621580878088
 6  10.20047067156716 -0.38515558725873 -0.67223819431943
 6  10.17940464066407 -1.92800373647365 -1.13711717671767
 6  11.47240011691169 -0.25594937573757  0.08739960856086
 6  12.76261116881688 -0.39049310041004 -0.60479050195020
 6  13.98661813021302 -0.13306450925092  0.25328239573957
 6  15.30278640354035 -0.20147387648765 -0.48790703050305
 6  15.59359102800280 -1.74277191099110 -0.94907452515252
 6  16.45304941084109  0.30380474047405  0.48199270647065
 6  17.85455004440444  0.41551294969497 -0.15118093269327
 6  18.82100246974698  1.19693791079108  0.59923035603560
 6  20.31440010921092  1.21020135363536  0.11919668286829
 6  20.47373872767277  1.85504380158016 -1.27395838853885
 6  21.27583851465146  1.72640557685769  1.16700206360636
 1 -4.00303178767877  3.45624114551455  1.46923151005100
 1 -10.44150454315431  3.62110294529453 -0.38206359785979
 1 -10.18318160756075 -2.82531187198720 -1.07826447864787
 1 -2.74386084298430 -0.88025633953395  2.08398909010901
 1 -2.14851845704570  1.83215679827983  1.34956560696070
 1 -1.90943540104010  0.78824927782778  3.50506421992199
 1 -3.14348940894089  2.38318237573757  3.51871403680368
 1 -3.89085252795280  0.69027371137114  3.64923733653365
 1 -1.90571305620562 -1.33458341874187 -0.46307021622162
 1 -2.24898657115712  0.39564681508151 -0.76788682828283
 1 -0.29356287368737  0.50926554045404  1.08603900300030
 1 -0.35430323232323 -1.10628514371437  1.36084003920392
 1 -6.02155093049305  6.82679132323232  0.67861357055706
 1 -5.79418640804080  6.12157552065207  2.13196949404941
 1 -4.53484744074408  5.67704887128713  1.19051222682268
 1 -9.36503855635564  5.99924607270727 -0.75246547474747
 1 -9.19267048294829  8.05077581648165  0.47060668246825
 1 -7.92585205100510  7.30572697219722  1.67333571907191
 1 -11.99992409750975  2.71457178317832 -2.41843484818482
 1 -13.39270894009401  2.08431232243224 -1.41830302180218
 1 -12.54984671577158  3.12417107180718 -0.58153939793979
 1 -12.40321509990999 -1.80162960806081 -1.22810776567657
 1 -13.29872859175918 -0.34908164496450 -1.60207573507351
 1 -13.30007636023602 -1.89756444264426 -3.44921480598060
 1 -12.26425999019902 -0.44434897249725 -3.90520401610161
 1 -11.28736501580158 -1.69171403850385 -3.59546816681668
 1 -8.87324692769277 -4.84055479837984 -1.93071633573357
 1 -7.90489985478548 -5.60385038923892 -0.63004261726173
 1 -9.43536342124212 -5.01457647894789 -0.17190901350135
 1 -3.41375207110711 -3.34719797049705 -0.21947721922192
 1 -1.41136930343034 -4.32958939863986  3.42243515881588
 1 -3.02232184078408 -5.27104872247225  3.60307314621462
 1 -1.52124023552355 -5.91944121732173  2.70579453235324
 1  2.80399970407041 -1.66446828272827 -1.54441840684068
 1  2.66712419001900 -0.05568128852885 -1.96795994819482
 1  4.19835074067407 -0.91347356255626  0.49289250525052
 1  4.10817978147815  1.06031474187419 -2.74800317001700
 1  5.36392180388039  2.21981224012401 -2.07121358955896
 1  5.69519682728273  0.63279438693869 -3.12337106810681
 1  6.66939900280028  1.47290129012901  0.02479512231223
 1  6.35931005040504  0.18591055365537  0.86583630033003
 1  7.59888727342734 -0.95238447364736 -1.22684400800080
 1  8.00761319721972  0.52857606570657 -1.80185310891089
 1  8.92553460506051  0.88942682768277  0.68219585178518
 1  8.72236072477248 -0.96816232243224  0.77551541524152
 1  10.47721527292729  0.20345288298830 -1.52580747024702
 1  9.35894087958796 -2.08904688118812 -1.80244616941694
 1  11.04527708340834 -2.40749753365337 -1.74327857175718
 1  9.90878376437644 -2.59509145114512 -0.13742318201820
 1  11.45343302420242  0.74572680288029  0.36832832033203
 1  11.52041509490949 -0.89744570587059  0.96868749034904
 1  12.77526084498450 -1.40783894509451 -0.99370703830383
 1  12.73255700820082  0.29238992999300 -1.56629999129913
 1  13.62808424512451  0.87270982698270  0.56573391639164
 1  13.84600735383538 -0.82195179987999  1.37948446494649
 1  15.35178846734673  0.45041452645265 -1.26541089908991
 1  15.73446088898890 -2.23815410751075 -0.01987344124412
 1  14.80099315001500 -2.12017439303930 -1.52216963206321
 1  16.58798842824283 -1.91922744764476 -1.47816928642864
 1  16.19579478017802  1.34919275297530  0.90047659195920
 1  16.69273372057206 -0.33336251135114  1.42635539673967
 1  18.37803874257426 -0.57030357775778 -0.31035437583758
 1  17.78519558405841  0.93266058495850 -1.20823439923992
 1  18.47005779837984  2.17711186888689  0.71350935623562
 1  19.01528868916892  0.95969015001500  1.62081208150815
 1  20.56448136083608  0.11679782798280 -0.02377531353135
 1  20.39345345194519  2.92415597749775 -1.14481807520752
 1  21.45630988308831  1.63960061286129 -1.62517388068807
 1  19.73737764216422  1.64484629542954 -2.05664263326333
 1  21.17600357555756  1.23646175527553  2.26135575277528
 1  22.29774148044804  1.66703793349335  0.77349231553155
 1  21.11430116001601  2.77711779507951  1.21052149264926

