%nproc=4
%Mem=2GB
# td=(NStates=1) CAM-B3LYP/6-31G(d,p) 

TD

0 1
12 -7.04854542754275  0.57671641974197 -0.02255456805681
 6 -4.73863848184818 -1.99280045844584  0.44466099879988
 6 -4.83663359225923  2.86055450275027  1.07460382528253
 6 -9.47509224472447  3.01373686918692 -0.18414127382738
 6 -9.52463277697770 -1.68398390939094 -0.90019644874487
 7 -5.03714713931393  0.43791360946095  0.72312273057306
 6 -4.28559826592659 -0.68736855885589  0.82400042324232
 6 -2.92070107550755 -0.36921634733473  1.35150550475048
 6 -3.05343878227823  1.11814448274827  1.71246197689769
 6 -4.39872686758676  1.51840258905891  1.16169319921992
 6 -2.90836591869187  1.36692898099810  3.18643005190519
 6 -1.99606306730673 -0.59436469786979  0.13623758205821
 6 -0.47932535513551 -0.41447579477948  0.53195732503250
 6  0.46633777097710 -0.57443095599560 -0.59860524102410
 8  0.19809104920492 -0.76295170277028 -1.83957028872887
 8  1.82430424092409 -0.55032242864286 -0.18326511541154
 7 -7.21229167706771  2.62819840964096  0.38919761526153
 6 -6.13150242924292  3.28888986478648  0.76304983858386
 6 -6.36021327442744  4.75295958535854  0.78350903810381
 6 -7.80329303630363  4.80950158165817  0.43861225252525
 6 -8.19735400700070  3.52073126842684  0.02968551485149
 6 -5.43711166786679  5.91667413331333  1.25328008850885
 6 -8.60600839843984  5.95860689438944  0.23162014741474
 6 -8.52098598989899  7.15971208980898  0.82458870867087
 7 -9.09841211381138  0.67007986908691 -0.56732076577658
 6 -9.86341260096009  1.79855980908091 -0.57533385748575
 6 -11.23396249284928  1.47465580468047 -1.18834055355536
 6 -11.22818522242224  0.12116748084808 -1.37237595159516
 6 -9.92656833753375 -0.36637861216122 -0.86531154725473
 6 -12.28708753245325  2.41031160216022 -1.50468724352435
 6 -12.38435298159816 -0.77292470257026 -1.79879068756876
 6 -12.21408889728973 -1.29122153335334 -3.26450156875688
 7 -7.22625209350935 -1.37764737833783 -0.02957763476348
 6 -8.25082532233223 -2.25229040114011 -0.49736469166917
 6 -7.84801094669467 -3.57376564406441 -0.52709998729873
 6 -6.51477536163616 -3.55731006800680 -0.01508324022402
 6 -6.18801139753975 -2.21693997529753  0.25575838003800
 6 -8.56263373077308 -4.84703754615462 -0.82132061046105
 6 -5.28685315561556 -4.31047493099310  0.12304517711771
 8 -5.07607644554455 -5.51127561096110  0.08846587728773
 6 -4.15098867826783 -3.30762655245525  0.60508037333733
 6 -3.45903653455346 -3.54181940324032  1.92699307220722
 8 -3.75974757535754 -2.99063579977998  2.90059274037404
 8 -2.68460965466547 -4.66577129952995  1.73639222012201
 6 -2.06931751965197 -5.17634186328633  2.93056799229923
 6  2.77815032673267 -0.72126992159216 -1.17264846524652
 6  4.10929301830183 -0.51699987628763 -0.67783793279328
 6  5.10653413781378  0.31245751115112 -0.97992776547655
 6  5.09853827682768  1.00225287458746 -2.36794095939594
 6  6.43980831363136  0.41538338853885 -0.19430591579158
 6  7.60095763366337 -0.19125947284728 -0.95283223372337
 6  8.89012088468847 -0.15894102450245 -0.20940275307531
 6  10.12931355585559 -0.70099717141714 -0.87385835633563
 6  10.22765946614661 -2.15076601270127 -1.15960942594259
 6  11.38308118501850 -0.20403418421842 -0.03095222662266
 6  12.70907581528153 -0.49980403150315 -0.65497552045205
 6  13.92238170657066  0.00079887708771  0.20731779927993
 6  15.29865599049905 -0.21551528062806 -0.42467070687069
 6  15.60334200310031 -1.55239287308731 -0.91523114081408
 6  16.43647775367537  0.41359571957196  0.53723823102310
 6  17.74899948934893  0.56376777517752 -0.08775459005901
 6  18.78703907340734  1.32876109310931  0.74095452845285
 6  20.17601627082708  1.31971230473047  0.22811757495750
 6  20.40083143694369  1.97700599779978 -1.18848984168417
 6  21.10498142894290  1.90275321162116  1.18819418281828
 1 -3.97363884838484  3.62658818021802  1.46993158005801
 1 -10.31429182188219  3.56558739373937 -0.36048143964396
 1 -10.09985327472747 -2.44143348414842 -1.33751040324032
 1 -2.68230468736874 -0.86704501840184  2.15991668286829
 1 -2.27021062626263  1.59971355395540  1.41951260166017
 1 -1.97922237973797  0.93749420232023  3.53782749624962
 1 -2.97267232723272  2.29292334983498  3.48308047344735
 1 -3.90116355905591  0.97799248324832  3.73507592039204
 1 -2.28576106100610 -1.40053001340134 -0.41081499069907
 1 -2.04049572207221  0.24557180758076 -0.65441548114811
 1 -0.31645516291629  0.51863647754775  0.90648104720472
 1 -0.24722252425243 -1.02170668586859  1.41558551375137
 1 -5.82033080848085  6.77436608070807  0.63608931813181
 1 -5.41688867826783  5.94626798989899  2.38181447854785
 1 -4.49755371137114  5.64567573397340  1.05039821542154
 1 -9.47726977947795  5.66249239733973 -0.53231345954596
 1 -8.95622683858386  8.07177791669167  0.42443206500650
 1 -7.67659712551255  7.31014741424142  1.53232161766177
 1 -12.51401550665067  2.90068039403940 -2.54793779847985
 1 -13.15917558675867  1.90528441964196 -1.57818901040104
 1 -12.25542727382738  3.38853750845085 -0.77274851885189
 1 -12.26815159355936 -1.51399084418442 -0.94526948184818
 1 -13.37506622552255 -0.18782551935194 -1.50834636213621
 1 -13.03980033263326 -1.73264795099510 -3.76961684618462
 1 -12.20722428662866 -0.26667120472047 -3.88198169386939
 1 -11.25084136343634 -1.64255912301230 -3.30175879587959
 1 -8.68775837883788 -4.88321906480648 -2.03944720882088
 1 -8.00436980178018 -5.65214521872187 -0.67763737673767
 1 -9.61559144404441 -4.95042006330633 -0.21459328192819
 1 -3.33336403230323 -3.44988823952395 -0.26981225272527
 1 -1.35599376587659 -4.41203764346435  3.46055897119712
 1 -2.81587119571957 -5.52486410401040  3.71747458635864
 1 -1.25135324682468 -6.01439071227123  2.68324227712771
 1  2.61283058715872 -1.74926676257626 -1.70739470447045
 1  2.33735121272127  0.05750002960296 -1.99955310751075
 1  4.31906281188119 -0.99684189938994  0.24997821382138
 1  4.07074603810381  1.07141585198520 -2.99010738043804
 1  5.71919733143314  1.90039029792979 -2.11224769296930
 1  5.88575588318832  0.41718282578258 -3.00445917691769
 1  6.65263732663266  1.50847484748475 -0.09365672287229
 1  6.28422254165417  0.16479844244424  0.73107282398240
 1  7.38408579327933 -1.12310154535454 -1.16873819741974
 1  7.72055449134913  0.35938914701470 -2.00456337993799
 1  8.97849990159016  0.88591647664766  0.18567619981998
 1  8.65033352205221 -0.70616612281228  0.70186805050505
 1  10.26687423882388 -0.12569003130313 -1.81928681818182
 1  9.48484346984698 -2.20562853935393 -1.95512143694369
 1  11.08489104480448 -2.46332311621162 -1.53079732363236
 1  9.98636152215222 -2.72813475547555 -0.24943438313831
 1  11.17946562746275  0.78210044024402  0.23777526502650
 1  11.36755980938094 -0.67883384468447  0.98835945754575
 1  12.98196151505151 -1.58500666186619 -0.82388005560556
 1  12.87152090459046  0.00505119611961 -1.59084244554455
 1  13.89167060376038  0.97005956195620  0.72461980498050
 1  14.10033278637864 -0.47959756445645  1.00857737423742
 1  15.17779106760676  0.35047453245325 -1.33851820982098
 1  15.49563700660066 -2.14791508360836 -0.00965241914191
 1  14.91088413911391 -1.87907028262826 -1.83253066816682
 1  16.69410904030403 -1.60350587548755 -1.33162463196320
 1  16.15030023072307  1.32407024072407  1.26831337563756
 1  16.67987243444344 -0.30246942204220  1.33054581578158
 1  18.17069800850085 -0.46642318971897 -0.23435677607761
 1  17.72832989748975  0.99016633553355 -1.13351692749275
 1  18.41983277587759  2.35512967066707  0.83567157245725
 1  18.75214237453746  1.00373455445545  1.81465146544654
 1  20.49314422712271  0.17971411961196  0.06705376937694
 1  20.09745385198520  3.00725428732873 -1.19256284968497
 1  21.46947119921992  1.85268192099210 -1.48144950825082
 1  19.86457036143614  1.80218202900290 -2.14093106210621
 1  20.88739471467147  1.46196430553055  2.12636225342534
 1  22.22020372667266  1.82972420212021  1.02512747904790
 1  21.05909563946395  2.96606668996900  1.35942638313831

