%nproc=4
%Mem=2GB
# td=(NStates=1) CAM-B3LYP/6-31G(d,p) 

TD

0 1
12 -7.16110668366837  0.54496324442444  0.08441612901290
 6 -4.85903052105211 -1.90740191859186  0.46676320902090
 6 -4.68773870277028  2.91194964226423  1.17458382328233
 6 -9.33278801430143  3.07780327582758 -0.36186904660466
 6 -9.56515682938294 -1.74209972097210 -0.82099852895290
 7 -5.01672509710971  0.49784960306031  0.64929534783478
 6 -4.25899560566057 -0.65297511951195  0.75244326752675
 6 -2.93735274067407 -0.37259668536854  1.19993034723472
 6 -3.05519895829583  1.12670533883388  1.69275000570057
 6 -4.32875987088709  1.54211496029603  1.14489151905191
 6 -3.06221130323032  1.21671395949595  3.28095950485049
 6 -1.86960042104210 -0.64486974837484  0.04177813611361
 6 -0.41295871847185 -0.46660100730073  0.46869099839984
 6  0.54609574677468 -0.66993050595060 -0.54234961546155
 8  0.13166440654065 -1.01337674527453 -1.64433076477648
 8  1.65832764326433 -0.41715911231123 -0.15813260216022
 7 -7.06711715961596  2.63509909970997  0.38200689618962
 6 -5.94323360236024  3.35791676747675  0.73857739133913
 6 -6.40211746484648  4.77862215161516  0.74692537973797
 6 -7.66743945094509  4.86517714921492  0.29459785108511
 6 -8.06894116571657  3.51694088938894  0.10947349364936
 6 -5.46825478217822  5.95569803570357  1.18909366986699
 6 -8.52650044764476  5.94806584028403  0.05219220462046
 6 -8.49241313261326  7.11830794939494  0.74730097989799
 7 -9.08092036463646  0.61183404450445 -0.53861789548955
 6 -9.76536279597960  1.76071602470247 -0.64073039713971
 6 -11.16408550515052  1.52205054415442 -1.16736845634563
 6 -11.24130653455346  0.07627299139914 -1.37059577357736
 6 -9.86502218291829 -0.48145011931193 -0.93372838893889
 6 -12.15716454015402  2.42886345734573 -1.45677245204520
 6 -12.41888643494350 -0.64824223432343 -1.80543135163516
 6 -12.11008849724973 -1.09284169536954 -3.27850296889689
 7 -7.22985245354536 -1.40094970857086 -0.27836251325133
 6 -8.26056629642964 -2.29257442954295 -0.48852380758076
 6 -7.77564370997100 -3.69634790229023 -0.41981925922592
 6 -6.42094597869787 -3.51186552355236 -0.08834056595660
 6 -6.11677427382738 -2.16358463976398  0.11236404060406
 6 -8.66759422682268 -4.90826366876688 -0.71590006840684
 6 -5.30760523082308 -4.31715559905991  0.19836270887089
 8 -5.05676451435144 -5.47930241364136  0.08153518421842
 6 -4.13183676307631 -3.31760755055506  0.53955382068207
 6 -3.47979861076108 -3.66416163746375  1.84560493339334
 8 -3.67685928652865 -3.21930866706671  3.01268394949495
 8 -2.56855804950495 -4.68581330373037  1.68083666456646
 6 -2.03160374827483 -5.26649087818782  2.95031996749675
 6  2.79741225292529 -0.67720551515152 -1.09056025642564
 6  4.11596368536854 -0.47678585488549 -0.45260540954095
 6  5.07290077447745  0.42191845724572 -0.90520029272927
 6  4.87973639663966  1.23060570987099 -2.15848001330133
 6  6.37665199799980  0.48783063326333 -0.18117460266027
 6  7.56801433933393 -0.20950129702970 -0.85720267076708
 6  8.88416028862886 -0.00397552795280 -0.12022383518352
 6  10.14014463896390 -0.55958303000300 -0.90086105660566
 6  10.01357805800580 -1.92858379447945 -1.27473093809381
 6  11.39325220212021 -0.28124190499050  0.07377824642464
 6  12.64901980968097 -0.49515356645665 -0.59313933683368
 6  13.78749821822182 -0.13838504130413  0.21791885938594
 6  15.32843896879688 -0.23944767386739 -0.51336957675768
 6  15.61501317021702 -1.73668130193019 -0.73325294299430
 6  16.32789689558956  0.43964832483248  0.26619112631263
 6  17.78100268966897  0.56555795419542 -0.21581739633963
 6  18.70055042454246  1.28674689168917  0.64783521652165
 6  20.17373604280428  1.25208554205421  0.10567533073307
 6  20.26454780858086  2.13790208740874 -1.23577457015702
 6  21.05037596839684  1.87238017431743  1.23790915431543
 1 -4.07053853835384  3.52939846124612  1.70553514041404
 1 -10.18605899859986  3.82547338233823 -0.49811520302030
 1 -10.25128841824182 -2.27160650145014 -1.21491814401440
 1 -2.73785024192419 -1.03923223712371  2.08120881208121
 1 -2.53722732793279  1.91958554115412  1.47999865026503
 1 -2.13667812531253  0.90050050295029  3.65943965746575
 1 -2.91695675567557  2.26278033553355  3.34589675507551
 1 -3.90258370107011  0.81428611261126  3.83945635843584
 1 -2.06588907380738 -1.67756771717172 -0.39672358155816
 1 -2.16759843234323 -0.03972672227223 -0.71655169476948
 1 -0.30830434783478  0.52529714361436  1.06155655475548
 1 -0.33622142414241 -1.17401191639164  1.31478543374337
 1 -5.90004878027803  6.75339398349835  0.69397510671067
 1 -5.58505549494949  5.91536489958996  2.29632592969297
 1 -4.44157811381138  5.94852601900190  0.88070124572457
 1 -9.28489054155416  5.70327647574757 -0.59985021322132
 1 -8.92575379127913  7.98736947584758  0.49185880768077
 1 -7.66445591139114  7.18536493599360  1.46658504400440
 1 -12.02971707680768  3.16343666966697 -2.25708871357136
 1 -13.19796946614661  2.04577846904690 -1.65875706720672
 1 -12.35697742884289  3.15444409910991 -0.60629187318732
 1 -12.70442522092209 -1.65102454755476 -1.16041099599960
 1 -13.33340205910591 -0.02354909170917 -1.93926945444544
 1 -12.96624297689769 -1.61863654985499 -3.57438732323232
 1 -11.95183874807481 -0.34825936353635 -3.99595309100910
 1 -11.13937021632163 -1.62698756585659 -3.17671629162916
 1 -9.10288989198920 -4.68006874977498 -1.73934719881988
 1 -8.04532389718972 -5.88728873307331 -0.76868648164816
 1 -9.47889777467747 -5.00817583888389  0.03066124352435
 1 -3.52917361326133 -3.38587183788379 -0.34718999049905
 1 -1.46766493299330 -4.55756219591959  3.45845876117612
 1 -2.98911852045205 -5.71120273787379  3.28987182608261
 1 -1.24211232273227 -6.07809708290829  2.67541149404940
 1  2.63393269736974 -1.64756659255926 -1.39707367236724
 1  2.81801927952795  0.10574485408541 -1.81092424462446
 1  4.10444134973497 -0.99966218141814  0.57453066906691
 1  3.89591855535554  0.85544425482548 -2.71594996469647
 1  4.74404981668167  2.30031028992899 -1.86014248244824
 1  5.83774108170817  1.02435354285429 -2.92031076207621
 1  6.56716877977798  1.45115911591159  0.16801944474447
 1  6.22631675107511  0.19468143074307  0.89128884558456
 1  7.26503388808881 -1.12205144034403 -1.11928325192519
 1  7.75512794869487  0.24782799089909 -1.85357828142814
 1  8.87546959855985  0.97235512051205  0.53809144134413
 1  8.63007149584959 -0.79226473267327  0.78106597029703
 1  10.13517106850685  0.15598813651365 -1.66142103160316
 1  9.24240922642264 -2.02293026952695 -1.89659558435844
 1  10.79238179387939 -2.21685846974697 -2.01499574347435
 1  10.02137502350235 -2.49466140814081 -0.41327076677668
 1  11.43275095599560  0.65812804300430  0.56359784728473
 1  11.10123317671767 -0.86899286058606  1.05647626922692
 1  12.69072239113911 -1.65147330853085 -0.82629029662966
 1  12.69042279477948  0.00861155215522 -1.49550291159116
 1  13.58591002770277  0.97111966796680  0.60899824282428
 1  13.63964671777178 -0.83218282298230  1.00415693219322
 1  15.27674096259626  0.18902838783878 -1.52057641564156
 1  15.70063750665066 -2.16133642574257  0.38191673777378
 1  14.66512956365637 -2.21811418701870 -1.14332174727473
 1  16.53720334973497 -1.71180670557056 -1.48295976547655
 1  16.10379558025803  1.51512934663466  0.60804734903490
 1  16.30413486068607 -0.17633680878088  1.21740450165016
 1  18.21611254995500 -0.52970951835184 -0.33314665506551
 1  17.78862592709271  1.25779309820982 -1.00295387118712
 1  18.47371816441644  2.34508866656666  0.88790679597960
 1  18.57446460676068  0.77092127312731  1.68452845314532
 1  20.43589850255026  0.43207935613561 -0.13831676767677
 1  19.77174128072807  3.10324388628863 -1.14179777317732
 1  21.31365561766177  2.12528918171817 -1.54748611191119
 1  19.69821372577258  1.61182299309931 -2.05159212821282
 1  21.19830580578058  1.26224433353335  2.10107972517252
 1  22.24729643594359  1.70686191589159  0.90946591289129
 1  20.83126285618562  2.78541862516252  1.48133857435744

