%nproc=4
%Mem=3GB
# td=(NStates=1) iop(3/107=0140000000,3/108=0140000000) CAM-B3LYP/6-31G(d,p) 

TD

0 1
12 -7.07825251695170  0.62970135363536  0.10710708070807
 6 -4.87967678417842 -1.96038326892689  0.61790719311931
 6 -4.64546057665767  2.81708042594259  1.16485659085909
 6 -9.31620838533853  3.09870742374237 -0.38868134343434
 6 -9.51905800380038 -1.72065383108311 -0.86973377827783
 7 -5.07656468766877  0.41542763336334  0.69235705970597
 6 -4.36823907120712 -0.76765790899090  0.94362225692569
 6 -2.94558077867787 -0.46730512851285  1.33121879097910
 6 -3.07092031893189  1.03551225282528  1.82569884918492
 6 -4.31631186588659  1.47602225332533  1.19486388028803
 6 -2.91694787558756  1.21689450875088  3.36860217481748
 6 -1.92424815451545 -0.58352434163416  0.16000981128113
 6 -0.52303801300130 -0.57919116711671  0.55910929322932
 6  0.47893981718172 -0.62220884278428 -0.53812360246025
 8  0.18632884968497 -0.90124390209021 -1.66171356445645
 8  1.79503810221022 -0.33117305570557 -0.21064645224522
 7 -7.02679032243224  2.63956716661666  0.17845876997700
 6 -5.95577572137214  3.35956972437244  0.75843171927193
 6 -6.34256916531653  4.74234109770977  0.86562482118212
 6 -7.63518830413041  4.87955976117612  0.27590371677168
 6 -8.06135566306631  3.49681662046205 -0.01100310171017
 6 -5.44464649854986  5.81855132883288  1.13055321052105
 6 -8.45572558055806  6.06051632123212  0.05583619611961
 6 -8.32174058405841  7.24320347004700  0.67677173647365
 7 -9.06388542964296  0.65803279767977 -0.60145671957196
 6 -9.84039152545254  1.82897622192219 -0.63638645214521
 6 -11.23903785648565  1.48900834533453 -1.11652651235123
 6 -11.17941742894289  0.09294684048405 -1.26227625592559
 6 -9.91878948254825 -0.44428462186219 -0.94333653495350
 6 -12.32313325102510  2.51660690209021 -1.37521697439744
 6 -12.31815560846085 -0.71546767056706 -1.65739507010701
 6 -12.44687659655966 -1.03412360466047 -3.17875852705271
 7 -7.26159912231223 -1.36805164086409 -0.33240591569157
 6 -8.22305663196320 -2.25395394089409 -0.64029560946095
 6 -7.79767180698070 -3.63249380078008 -0.55022532233223
 6 -6.56301409190919 -3.64067704980498 -0.23510559225923
 6 -6.23280701240124 -2.22421037683768 -0.03345150975097
 6 -8.70475281478148 -4.76295239363936 -0.93221660476048
 6 -5.29927539043904 -4.36176974037404  0.17125209930993
 8 -5.30450144244424 -5.54583144014402  0.23041899049905
 6 -4.14658916151615 -3.28896634403440  0.53319164076408
 6 -3.58693287008701 -3.70503844654465  1.89666563506351
 8 -3.69906268966897 -3.05719307720772  2.89870322852285
 8 -2.68626397919792 -4.74640325882588  1.79146818431843
 6 -2.32863182018202 -5.32696790269027  2.99999740014001
 6  2.75539185958596 -0.64756304520452 -1.16828034523452
 6  4.07537842304230 -0.47618288618862 -0.44381694449445
 6  5.12966845814581  0.29395592359236 -0.96031890889089
 6  4.96801052665267  1.25099277457746 -2.18643277827783
 6  6.48524480318032  0.42707332333233 -0.21315183958396
 6  7.65051650425043 -0.24109265726573 -0.98360868956896
 6  8.95437314891489 -0.14877669376938 -0.15445154755476
 6  10.21376683728373 -0.56897856105611 -0.80183590359036
 6  10.18151142774277 -2.03851173107311 -1.25489245524552
 6  11.44744940874087 -0.38295318641864  0.10133217071707
 6  12.72451018651865 -0.52633266676668 -0.61478898399840
 6  13.94260553235324 -0.05689140344034  0.13107951955196
 6  15.29955594659466 -0.19775885948595 -0.53434908740874
 6  15.65071134213421 -1.70628901720172 -0.96718854515452
 6  16.43078007070707  0.34154067136714  0.30754548924892
 6  17.83274086178618  0.48092182178218 -0.20523705070507
 6  18.80591100970097  1.19670774927493  0.69360261696170
 6  20.09666247064706  1.40575000750075  0.22370907690769
 6  20.13566641244125  2.35120242534253 -1.08546324222422
 6  21.11107617461746  1.96865856575658  1.40333427342734
 1 -3.79579994349435  3.38317156855686  1.39082517831783
 1 -10.21491361466147  3.87610988548855 -0.26968149434943
 1 -10.49201362546255 -2.43382891799180 -1.14020183958396
 1 -2.67692497969797 -1.10230043274327  2.11432792349235
 1 -2.34426789308931  1.65770783188319  1.32006565556556
 1 -1.86202928932893  0.88497760416042  3.63141347874787
 1 -3.24493160226023  2.17838706150615  3.62967098929893
 1 -3.62447524802480  0.58210336463646  3.73754543974397
 1 -2.11949706870687 -1.36659733053305 -0.50321832893289
 1 -2.21780814981498  0.19614723452345 -0.65809254385439
 1 -0.52467789648965  0.25093468076808  1.56191005400540
 1 -0.41539996029603 -1.53265403200320  1.31056451475148
 1 -5.59952413011301  6.63668118011801  0.52133196449645
 1 -5.57347881918192  6.27216009740974  2.14293630613061
 1 -4.35502034663466  5.68015228322832  0.84672540514051
 1 -9.20330058985899  5.95529891189119 -0.82830418311831
 1 -8.93471253495349  8.23084280528053  0.37998777447745
 1 -7.64517244934494  7.37076391279128  1.39898885918592
 1 -12.20990146314631  3.00872001910191 -2.44032986448645
 1 -13.41529882758276  2.01063980638064 -1.57989371757176
 1 -12.48824985768577  3.17977531163116 -0.35128556805681
 1 -12.48786075097510 -1.66148707150715 -1.05877937883788
 1 -13.12880517961796 -0.00976368686869 -1.33223897829783
 1 -13.45489068826883 -1.43138680078008 -3.48017897599760
 1 -12.24415482118212 -0.02707117841784 -3.63871284968497
 1 -11.57304214361436 -1.63336436363636 -3.42819109730973
 1 -9.32151677027703 -4.59176567736774 -1.80426648964897
 1 -7.93876826202620 -5.59911586488649 -1.09865982108211
 1 -9.50391457045705 -5.20626907530753 -0.11040330903090
 1 -3.27632515101510 -3.38065467106711 -0.33019075717572
 1 -1.71573496109611 -4.60504271767177  3.55979769736974
 1 -3.05140157745775 -6.06863638853885  3.54873591129113
 1 -1.50628114861486 -6.01237202200220  2.63862722382238
 1  2.86179423422342 -1.45053167596760 -1.60871231993199
 1  2.73594003530353  0.14872295709571 -1.96964802230223
 1  4.31459194589459 -1.02408082188219  0.59943134333433
 1  3.92208752025202  1.18402394509451 -2.82181266696670
 1  5.10582751495150  2.28632905680568 -1.78367580598060
 1  5.82873244174417  0.81653284418442 -2.83526978387839
 1  6.76448463236324  1.49918989958996 -0.06511689778978
 1  6.15407327942794 -0.00148748544855  0.83499969546955
 1  7.34788691149115 -1.27707838083808 -1.35316007320732
 1  7.82595515401540  0.47781688468847 -1.89029985288529
 1  8.97419346364636  1.06081557905791  0.09977240534053
 1  8.91302442324232 -0.66861521422142  0.63240936433643
 1  10.43419805160516  0.10116626442644 -1.46550170817082
 1  9.37395700480048 -2.50584886838684 -2.01595997789779
 1  11.06803594419442 -2.36459985928593 -1.97080243834383
 1  10.11135333243324 -2.64345846054605 -0.34983237693769
 1  11.28547018861886  0.74827126052605  0.42309007980798
 1  11.47779537503750 -1.12041333893389  0.88809512961296
 1  13.01681963446345 -1.66468388768877 -0.97232950445045
 1  12.48129395929593 -0.01875693969397 -1.50858519221922
 1  13.78561998229823  0.92405776907691  0.35751057975798
 1  14.04877318791879 -0.73357973687369  1.05803817781778
 1  15.37976837823783  0.38245164216422 -1.41974324312431
 1  15.59397319411941 -2.31879122032203 -0.19354749024902
 1  14.89297094149415 -1.98431295129513 -1.74125549904990
 1  16.82701098069807 -1.74264516151615 -1.52285879917992
 1  16.19661293479348  1.43969230293029  0.54278019431943
 1  16.43506758455846 -0.21595788058806  1.37048554325432
 1  18.23546028372837 -0.41564807880788 -0.46471666726673
 1  17.77056436603660  0.92114100820082 -1.22577832143214
 1  18.49984904180418  2.31804307230723  0.83697564436444
 1  18.84452041454146  0.83652849234923  1.60048329382938
 1  20.57422725502551  0.41022201980198 -0.17956206400640
 1  19.30506732523252  3.24126490299030 -1.06323850855085
 1  21.19060286108611  2.77033817591759 -1.76231421262126
 1  19.67508590619062  1.88819911011101 -1.93098148254825
 1  21.31808566206621  1.20337597849785  2.37242091089109
 1  22.21375926872687  2.14019449014902  0.90728738233823
 1  20.76170624912491  2.98636475367537  1.61891902860286

