%nproc=4
%Mem=2GB
# td=(NStates=1) CAM-B3LYP/6-31G(d,p) 

TD

0 1
12 -7.14132470547055  0.58193694179418  0.14815250265027
 6 -4.84127874587459 -1.98035921432143  0.53708024072407
 6 -4.85662559145915  2.74871331863186  1.20943730863086
 6 -9.40808554405440  3.09435493099310 -0.27937079677968
 6 -9.47150746444644 -1.71823733473347 -0.82427885698570
 7 -5.08020144474447  0.41924174227423  0.74602502080208
 6 -4.36147585368537 -0.79371919391939  0.84950297349735
 6 -2.87626663206321 -0.40152957865787  1.13685403960396
 6 -3.01291472987299  1.10229289758976  1.62984371507151
 6 -4.35043203810381  1.47983873267327  1.11389841974197
 6 -2.87669275137514  1.23734602270227  3.10781219011901
 6 -1.95049851085108 -0.65368062946295 -0.01680772247225
 6 -0.46629405200520 -0.46582092929293  0.30209433873387
 6  0.51599273647365 -0.64513802670267 -0.81828720922092
 8  0.22797403750375 -0.97155256285629 -1.89231556325633
 8  1.71528333883388 -0.45576297269727 -0.33703049194919
 7 -7.12814326222622  2.55340092989299  0.37676637213721
 6 -6.04675395439544  3.27475845164516  0.84143767736774
 6 -6.39543679677968  4.69870415981598  0.91637232443244
 6 -7.73802650965096  4.89756038753875  0.48876726802680
 6 -8.26030030163016  3.50902009730973  0.18845139143914
 6 -5.38392634933493  5.77465993189319  1.19417417791779
 6 -8.54065186278628  5.96017705140514  0.08973595899590
 6 -8.65269916121612  7.20612673127313  0.78067431723172
 7 -9.11956422902290  0.66156901800180 -0.58548258195820
 6 -9.83593985368537  1.79517947104710 -0.75063138723872
 6 -11.19321841844184  1.42934127322732 -1.26637835733573
 6 -11.19930233413341  0.12406777087709 -1.41372008600860
 6 -9.84380006070607 -0.36598857315732 -0.96113112921292
 6 -12.20638946264626  2.46623719471947 -1.46036281108111
 6 -12.36093063936394 -0.73910132023202 -1.86432724122412
 6 -12.34641212961296 -0.83221563276328 -3.40407552615262
 7 -7.25872534083408 -1.37953756735674 -0.02333701070107
 6 -8.20234047384738 -2.23304847694769 -0.33570852605261
 6 -7.89256540214021 -3.62290055755576 -0.38833611091109
 6 -6.53977786188619 -3.64854919191919  0.03784205230523
 6 -6.20819341574157 -2.20997927922792  0.24992779697970
 6 -8.78894636203620 -4.87335017741774 -0.74334281268127
 6 -5.37808227852785 -4.37566144964496  0.31867474007401
 8 -5.20694953285328 -5.58793327672767  0.34410144084408
 6 -4.19534311371137 -3.33551934173417  0.54099396469647
 6 -3.54502513341334 -3.60364558585859  1.91179155205521
 8 -3.77231883248325 -3.04191092729273  2.99378205930593
 8 -2.86691788548855 -4.68831355375537  1.86160474137414
 6 -2.25333592149215 -5.20234446354635  3.05600053555356
 6  2.78266077777778 -0.76380417501750 -1.25362656305631
 6  4.11724381338134 -0.57462563886389 -0.56793694269427
 6  5.06255974037404  0.29314557995800 -1.01300107280728
 6  4.94788321132113  1.07394004330433 -2.22033619891989
 6  6.37667200000000  0.43182503270327 -0.26475296049605
 6  7.68472601050105 -0.08358870577058 -0.95882283278328
 6  8.97788966156616  0.01559642924292 -0.18627043984398
 6  10.24784540904090 -0.47964503620362 -0.88679965046505
 6  10.11958865906591 -1.90302123822382 -1.40335380038004
 6  11.42491536843684 -0.15209899069907 -0.00903003440344
 6  12.84491939963996 -0.55161921302130 -0.75489551245125
 6  14.07918738713871 -0.13210441324132  0.04836190369037
 6  15.40084620952095 -0.25746947604760 -0.57990623042304
 6  15.73173484238424 -1.64282191599160 -0.93296291399140
 6  16.39550365626563  0.41267562756276  0.37401190839084
 6  17.86415100450045  0.54489588798880 -0.11533734833483
 6  18.85041541104111  1.25173339033903  0.82979341234123
 6  20.28996766596660  1.32816314981498  0.36515127832783
 6  20.42892424622462  2.14947324452445 -0.89503049574957
 6  21.19932086288629  2.03531646794679  1.41987735113511
 1 -4.08394987948795  3.49329485088509  1.44293888078808
 1 -10.18667906060606  4.01453228822882 -0.46339173067307
 1 -10.17199048844885 -2.47070641144114 -1.10772742494249
 1 -2.68502495939594 -0.96273458735874  2.07680837203720
 1 -2.31892549774977  1.76368995159516  1.14889553995400
 1 -1.89793425092509  0.86036648954895  3.31650536403640
 1 -2.85849090909091  2.29677373487349  3.48991115651565
 1 -3.74811825452545  0.61021570557056  3.49863227602760
 1 -2.10694317921792 -1.62218217861786 -0.20522443164316
 1 -2.19662133463346 -0.05692844244424 -0.92289232883288
 1 -0.39215273267327  0.59451406530653  0.68370876997700
 1 -0.24514231623162 -1.17478199339934  1.22195615081508
 1 -5.80715949134914  6.64975361946195  0.85291100030003
 1 -5.19711670107011  5.77160052315232  2.23751004810481
 1 -4.44729868586859  5.63267443384338  0.49858303390339
 1 -9.25540759325933  5.82351849995000 -0.70065029322932
 1 -9.04814603050305  8.05165590449045  0.18620824262426
 1 -7.94917438323832  7.71184758425843  1.51483986948695
 1 -11.72796690179018  3.37607793379338 -2.14644764946495
 1 -13.03152282148215  2.04583847504750 -2.07049824132413
 1 -12.52727445854586  3.00388904360436 -0.51855309930993
 1 -12.14377915631563 -1.87207665276528 -1.61934688958896
 1 -13.29501822072207 -0.27645438223822 -1.56191171867187
 1 -13.00858721132113 -1.77639232543254 -3.78168805330533
 1 -12.88140170437044  0.13675913831383 -3.90696419211921
 1 -11.23915019431943 -1.00542540964096 -3.85043366336634
 1 -9.39195879887989 -4.95777652055205 -1.70740400450045
 1 -8.19296866166617 -5.81673167736774 -0.77774738773877
 1 -9.36204608950895 -5.13762878417842  0.32337051445144
 1 -3.45285598149815 -3.48261151185119 -0.09805507700770
 1 -1.56188435493549 -4.30886732643264  3.31844475977598
 1 -3.12528213681368 -5.48539015661566  3.80650348924893
 1 -1.73648175967597 -6.09046832003200  2.81604555745575
 1  2.87852715681568 -1.84614645054505 -1.48220218521852
 1  2.49221669926993 -0.20015573597360 -2.27131028322832
 1  4.39560046564656 -1.13981619681968  0.35221843784378
 1  3.97714667816782  1.31867057745775 -2.46516488618862
 1  5.43332874457446  1.93395365426543 -2.09630609880988
 1  5.14796210381038  0.54344545204520 -3.09682841384138
 1  6.56793885678568  1.47319131913191  0.02775541834183
 1  6.24882900230023 -0.05004304170417  0.66651636833683
 1  7.44499188388839 -1.21672090729073 -1.38184950855085
 1  7.96499893579358  0.46870007810781 -1.85906883048305
 1  8.97618967056706  1.02971085608561  0.34275190739074
 1  8.92118060676068 -0.66106161236124  0.70427829152915
 1  10.17426497789779 -0.01991945424542 -1.99819470897090
 1  9.34562954845484 -2.12804078057806 -2.09002492729273
 1  11.04661721742174 -2.09765654955496 -2.06788103200320
 1  10.28283116911691 -2.53890583258326 -0.39656909660966
 1  11.51860954185419  0.84133636383638  0.33854534203420
 1  11.55316837023702 -0.86401236253625  0.81156177777778
 1  12.82139545844584 -1.65131329252925 -0.99107677527753
 1  12.98094184668467  0.05059575057506 -1.75493885518552
 1  13.66237767446745  0.88543109910991  0.46502384538454
 1  14.07634038713871 -0.62458206290629  1.15166168266827
 1  15.44742803130313  0.33675316031603 -1.70256461446145
 1  15.79800724362436 -2.27135742784278 -0.03101455535554
 1  15.15589864056406 -2.23721609720972 -1.67088450355036
 1  16.92447207660766 -1.69274479937994 -1.18085955545555
 1  15.98119332003200  1.42683051675168  0.72358890319032
 1  16.46825127232723 -0.25213438853885  1.34489725092509
 1  18.37564850355036 -0.39479602700270 -0.37472081248125
 1  17.84491155565557  1.18428574747475 -0.96722029782978
 1  18.32856364896490  2.35707986568657  0.78149615491549
 1  18.82933009330933  0.92340652165216  1.78272827312731
 1  20.68639355205521  0.24244039223922  0.27719478347835
 1  20.19151325792579  3.10029359125913 -0.94585817921792
 1  21.58767301940194  2.24491114391439 -1.18455981928193
 1  20.04032793719372  1.75836764756476 -1.81534850385039
 1  21.24784075927593  1.53608171727173  2.48380799799980
 1  22.38292999929993  2.19481071077108  1.12847781408141
 1  20.83604333423343  3.09759984328433  1.41150159065907

