%nproc=4
%Mem=3GB
# td=(NStates=1) iop(3/107=0140000000,3/108=0140000000) CAM-B3LYP/6-31G(d,p) 

TD

0 1
12 -7.19415410711071  0.59097748124812  0.04545091509151
 6 -4.97263608010801 -1.94290152075208  0.54561996439644
 6 -4.71994802540254  2.81743046094609  1.23631373657366
 6 -9.41311807630763  3.21810936393639 -0.39690216551655
 6 -9.55019111711171 -1.65150691639164 -0.93311011591159
 7 -5.12331936313631  0.44906099669967  0.71263908790879
 6 -4.41568381568157 -0.71475261846185  0.74017191189119
 6 -2.95160138073807 -0.48526692469247  1.17149281838184
 6 -2.92906613351335  1.01161986358636  1.73542982228223
 6 -4.27828806350635  1.47261191229123  1.13156755065507
 6 -2.96879306010601  1.24303712301230  3.21279659425943
 6 -1.93768949864987 -0.64600058925893  0.03860767106711
 6 -0.49180488968897 -0.65649889788979  0.61060444274427
 6  0.53223514671467 -0.86030265216522 -0.40864065416542
 8  0.34686490329033 -1.07233101080108 -1.64798219131913
 8  1.82131072947295 -0.55344528292829 -0.11121650925093
 7 -7.08951659505951  2.61045425532553  0.26053697779778
 6 -6.00380052385239  3.34591835923592  0.77388326442644
 6 -6.32936784518452  4.81253811741174  0.79011727042704
 6 -7.67343212851285  4.93186499169917  0.33000912731273
 6 -8.08114764226423  3.55901284008401  0.03412141074107
 6 -5.34593662756276  5.89254872857286  1.21461161636164
 6 -8.37822783078308  6.13733400300030  0.09722033453345
 6 -8.21856026602660  7.37742689238924  0.53271733103310
 7 -9.06523556465647  0.68616561096110 -0.60644721862186
 6 -9.71662914921492  1.86888021232123 -0.68206101960196
 6 -11.17490144284429  1.52853229772977 -1.02220708040804
 6 -11.23125261246125  0.11040858665867 -1.17159718801880
 6 -9.93572117571757 -0.36417661106111 -0.87505970727073
 6 -12.26807774547455  2.54122936433643 -1.17720717341734
 6 -12.40274406730673 -0.62552867666767 -1.69702903350335
 6 -12.39939184808481 -1.03670386268627 -3.25481613281328
 7 -7.32667562996300 -1.29099393509351 -0.08868154325433
 6 -8.28912323862386 -2.12422096759676 -0.59341092099210
 6 -7.88094013381338 -3.47731828322832 -0.65121542134213
 6 -6.61216900740074 -3.54068705080508 -0.07774985668567
 6 -6.24445817751775 -2.20843879967997  0.16718855425543
 6 -8.73943628312831 -4.76934303270327 -0.95605898899890
 6 -5.32857832073207 -4.34909847324733  0.12748772287229
 8 -5.18599959225923 -5.55967282428243  0.06063201180118
 6 -4.23548805140514 -3.35179262666267  0.59797811941194
 6 -3.59704388118812 -3.73838178087809  1.93751972047205
 8 -3.90284306770677 -3.16686404430443  2.92741609980998
 8 -2.72672802560256 -4.80253887238724  1.69593863136314
 6 -2.20524948194819 -5.23895910181018  2.84984238463846
 6  2.87306362676268 -0.92550083898390 -1.00677419461946
 6  4.16042692789279 -0.57600286818682 -0.44384694749475
 6  5.17809330063006  0.17111363936394 -0.93320619761976
 6  5.00951467706771  1.00227790309031 -2.25292942794279
 6  6.52555883458346  0.19076969296930 -0.20314083848385
 6  7.70447189978998 -0.22355090309031 -1.00052038073807
 6  8.98755646724672 -0.20102191829183 -0.19729583198320
 6  10.17899335993599 -0.51062272547255 -0.89260498049805
 6  10.17373064966497 -2.04250213011301 -1.29016598259826
 6  11.41463612741274 -0.15659055015502 -0.06791475397540
 6  12.75078281378138 -0.47331736523652 -0.69093659875988
 6  14.00526179797980 -0.16530224452445  0.29451586318632
 6  15.33344933593359 -0.25686477007701 -0.44220987348735
 6  15.69183545454545 -1.66721510981098 -0.93199502580258
 6  16.47787478017802  0.44763128042804  0.37472220692069
 6  17.78999658735874  0.49658338793879 -0.30002652965297
 6  18.68029844844484  1.39282736123612  0.67402065876588
 6  20.16243904830483  1.54191362386239  0.24827153315332
 6  20.26923976977698  2.21398870397040 -1.23781847774777
 6  20.95737080408041  2.31384308420842  1.43283722372237
 1 -4.11930229372937  3.59340259165917  1.69254535033503
 1 -10.23271539483948  3.79095136963696 -0.32517704390439
 1 -10.24042846694669 -2.41105664076408 -1.24864268366837
 1 -2.67090437763776 -1.17473767646765  1.92058854955496
 1 -2.10380384668467  1.61165322642264  1.25659930893089
 1 -2.16360944734473  0.68921802820282  3.78811914931493
 1 -3.23859096819682  2.21295051785179  3.56645466766677
 1 -3.83995679617962  0.60980613491349  3.58878056325633
 1 -2.03770888988899 -1.60587125792579 -0.50029803690369
 1 -2.13698006700670  0.03267088688869 -0.68298503310331
 1 -0.14280970967097  0.41123071037104  0.98745260826083
 1 -0.34581300160016 -1.41684245084508  1.37810126842684
 1 -5.63752793049305  6.79258677067707  0.84822465376538
 1 -5.37136860816082  6.18689157055706  2.33572558505851
 1 -4.23321816641664  5.54415868386839  0.90687141974197
 1 -9.41459171897190  6.03478686068607 -0.48959031173117
 1 -9.03932299599960  8.26740646164616  0.28368814451445
 1 -7.32785071717172  7.59667650405041  1.09531849214921
 1 -11.89980045304530  3.40046919401940 -1.74037986948695
 1 -12.95865316301630  1.84213295569557 -1.50532626082608
 1 -12.60777180988099  2.92561989608961 -0.25862630213021
 1 -12.42978494339434 -1.52109303210321 -1.12197569846985
 1 -13.34097639673968 -0.19579228972897 -1.54098985338534
 1 -13.35171037023702 -1.78466212831283 -3.34585554365437
 1 -12.50050045574557 -0.03288175947595 -3.74539351775178
 1 -11.56221106050605 -1.68022905010501 -3.53968224642464
 1 -8.82302692129213 -5.13411991279128 -2.01649771277128
 1 -7.99884426962696 -5.81661761506151 -0.56728668376838
 1 -9.64182836183618 -4.77380582898290 -0.55100736943694
 1 -3.55100261876188 -3.44312091769177 -0.20800853895390
 1 -1.67841122872287 -4.40551276467647  3.33684540214021
 1 -2.85269170647065 -5.64911443634363  3.48743978167817
 1 -1.49157967846785 -6.10083086788679  2.44520788188819
 1  2.93568162296230 -1.99158578137814 -1.24840628932893
 1  2.76028246954695 -0.47654957015702 -2.03000405790579
 1  4.27173766046605 -1.23062147594760  0.64672607280728
 1  3.91656696819682  0.96159170187019 -2.34204469016902
 1  5.52851978417842  1.99263968786879 -2.08703614201420
 1  5.63997356585659  0.47438862976298 -2.97872412931293
 1  6.86398458235824  1.12681266186619  0.40688030193019
 1  6.39417728982898 -0.50606794349435  0.66598279377938
 1  7.61390351315132 -1.29512018501850 -1.41353611081108
 1  7.81863442194220  0.41937104010401 -1.94089491239124
 1  9.13345939023902  0.74343384088409  0.60685311341134
 1  8.60133325412541 -0.87095544824482  0.68856497989799
 1  10.23546817861786 -0.04466831903190 -1.83257841584158
 1  9.15626523562356 -2.32264054755476 -1.82297067896790
 1  11.11508064866487 -2.13973737303730 -2.01410676877688
 1  10.33689588668867 -2.95193930863086 -0.54662205590559
 1  11.23055469706971  0.91151758515852  0.37084485528553
 1  11.45879347484749 -0.81723302090209  0.84301062116212
 1  12.73125107760776 -1.56475389468947 -0.93063533503350
 1  13.03510934083408  0.03499843584358 -1.64353868756876
 1  13.73724514481448  0.83086845014501  0.88215304400440
 1  14.09504781538154 -0.87176355525553  1.05530790479048
 1  15.40289069046905  0.19909330633063 -1.32141341014101
 1  15.98751254805481 -2.27934727592759 -0.01754989048905
 1  14.76530817521752 -2.15540006000600 -1.50852222572257
 1  16.40726900650065 -1.41213211021102 -1.76011252455246
 1  15.79859313281328  1.43019135283528  0.93468938523852
 1  16.58205228302830 -0.17475376017602  1.27663615831583
 1  18.45359209690969 -0.47714422842284 -0.42145234083408
 1  17.61454876447645  1.08648754285429 -1.19433517711771
 1  18.28001705860586  2.38206947494749  0.66394834163416
 1  18.78642460496050  0.93641848134814  1.77412065756576
 1  20.50679051135113  0.55971696929693  0.27668356055606
 1  19.42588940744075  3.18594937143714 -1.45477766246625
 1  21.48964276507651  2.50973211531153 -1.15072305350535
 1  19.99671806940694  1.49504979517952 -2.21155954035403
 1  20.56714056755676  1.85702134303430  2.36202987178718
 1  21.95778367116711  2.30445091579158  1.30778743234323
 1  20.53685376387639  3.40147626482648  1.41846898359836

