%nproc=4
%Mem=3GB
# td=(NStates=1) iop(3/107=0140000000,3/108=0140000000) CAM-B3LYP/6-31G(d,p) 

TD

0 1
12 -7.09016370807081  0.59555793929393  0.07334370437044
 6 -4.81362017851785 -1.93883111371137  0.54071947434743
 6 -4.78613464406441  2.84811352925293  1.15262536773677
 6 -9.42646941144115  3.15382293529353 -0.46051852715272
 6 -9.45620171817182 -1.64513627932793 -0.98408521342134
 7 -5.07819485068507  0.38029412001200  0.76740456445645
 6 -4.34907715501550 -0.64248539173917  0.85429332403240
 6 -2.88647486808681 -0.37490588858886  1.26471214031403
 6 -3.05297852475248  1.09553825542554  1.75675195449545
 6 -4.32640287498750  1.47608225932593  1.29054344824482
 6 -3.03913009380938  1.28188100740074  3.20776609120912
 6 -1.96231196089609 -0.58387437663766  0.08895270557056
 6 -0.49426513571357 -0.53314656265627  0.61670505280528
 6  0.45860778397840 -0.63640026192619 -0.53665345544554
 8  0.20890110691069 -0.82341611931193 -1.74338173127313
 8  1.79228782718272 -0.38318825722572 -0.24698008560856
 7 -7.07628527192719  2.58187139703970  0.32837376147615
 6 -6.06021616541654  3.35006877427743  0.72880875697570
 6 -6.39050395879588  4.74481134473447  0.73011126982698
 6 -7.70058484378438  4.86651845704570  0.32130825722572
 6 -8.08974850235023  3.45088202700270  0.02604060266027
 6 -5.31093312721272  5.86983645734573  1.09718987418742
 6 -8.49737974597460  6.06260653025303  0.18177879037904
 6 -8.31650006000600  7.28071722142214  0.65311937123712
 7 -9.14924396549655  0.79191618601860 -0.58393496739674
 6 -9.82137962426243  1.92422574687469 -0.70796360986099
 6 -11.20356430913091  1.46441588608861 -1.07017187688769
 6 -11.18211769896990  0.12027957375738 -1.25141516981698
 6 -9.87630523412341 -0.25232542594259 -1.02245444674467
 6 -12.36518745644564  2.48863410481048 -1.23686313901390
 6 -12.32417621052105 -0.74184030783078 -1.65905523612361
 6 -12.39474138303830 -1.01931212351235 -3.19044969616962
 7 -7.22817577997800 -1.37704253995400 -0.07471014611461
 6 -8.13855818211821 -2.23452199769977 -0.62120370027003
 6 -7.78826086588659 -3.59442999439944 -0.54603490329033
 6 -6.45691348184818 -3.57326030813081 -0.07172925462546
 6 -6.15498923062306 -2.24040199599960  0.14670650605061
 6 -8.63177551705171 -4.79044514291429 -0.91611499459946
 6 -5.30003546644664 -4.38148171157116  0.22345731983198
 8 -5.17599859215922 -5.60587744474447  0.19899584818482
 6 -4.10146464906491 -3.27635508290829  0.57223554515452
 6 -3.44927910471047 -3.72747068976898  1.85493146164616
 8 -3.82644542794279 -3.23300065796580  2.94338769696970
 8 -2.70329568236824 -4.77750636913691  1.73923296079608
 6 -2.11602055905591 -5.31954716061606  2.83553095349535
 6  2.83416973737374 -0.59614790369037 -1.17134065126513
 6  4.13568445364536 -0.43571883978398 -0.55682824562456
 6  5.13725921722172  0.34448097609761 -1.00994387138714
 6  5.09337306290629  1.28092576787679 -2.21802593759376
 6  6.38804508320832  0.34329494549455 -0.21253177757776
 6  7.62868432103210 -0.19269781778178 -1.05839616831683
 6  8.85281299289929 -0.26873868996900 -0.13354945734573
 6  10.20195565616562 -0.74265592879288 -0.84830055005501
 6  10.16192946954695 -2.25548342824282 -1.37112407840784
 6  11.42118678247825 -0.45629052015202  0.02613465096510
 6  12.66803453895390 -0.68056809030903 -0.59740724582458
 6  13.95256652845285 -0.25656137043704  0.29236564816482
 6  15.29437542854286 -0.16273535713571 -0.49516516901690
 6  15.60115638663867 -1.62356074437444 -0.91661348764876
 6  16.36872386508651  0.33610012731273  0.53662839753975
 6  17.73607119481948  0.62100583018302 -0.05699222622262
 6  18.74579499809981  1.31202928142814  0.82326558325833
 6  20.14547735213521  1.52563199569957  0.17525423142314
 6  20.07522036783678  2.15919322442244 -1.24100879677968
 6  21.15647071407141  2.15042674257426  1.19729366936694
 1 -4.10771113461346  3.55589884128413  1.58847494329433
 1 -9.96159828312831  4.01562383688369 -0.71793631983198
 1 -10.28255267936794 -2.48361389648965 -1.21559937933793
 1 -2.56911419861986 -1.10133033573357  1.97679417011701
 1 -2.28078154445445  1.54909697079708  1.29258290729073
 1 -1.90851393779378  1.28596770317032  3.66633697109711
 1 -3.51777888698870  2.31080030283028  3.54624264646465
 1 -4.00703350385039  0.49186434073407  3.72036372157216
 1 -2.35818093709371 -1.63896456725673 -0.37709571667167
 1 -2.08747511651165  0.08516613641364 -0.70840757535754
 1 -0.20346577527753  0.41937152445245  1.20588445144515
 1 -0.32027044734473 -1.31474224082408  1.40911436973697
 1 -5.56685086278628  6.61123863586359  0.29390922222222
 1 -5.27457892919292  6.29933281468147  2.09819183168317
 1 -4.29908475307531  5.49546381438144  1.01523225582558
 1 -9.18678893869387  6.00835421742174 -0.52067342004200
 1 -9.05490455415542  7.91483120412041  0.39811958765877
 1 -7.41199913201320  7.48864570097010  1.24552351265126
 1 -12.33235370837084  3.08140728782878 -2.07556338783878
 1 -13.15598289598960  1.77288603100310 -1.42257798599860
 1 -12.48798983168317  2.84202153625362 -0.31339177867787
 1 -12.41466343124312 -1.62805372817282 -1.03672717361736
 1 -13.33729602870287 -0.10387309780978 -1.20559631403140
 1 -13.12333753295330 -1.71145480758076 -3.57117807590759
 1 -12.55671607730773 -0.12694116541654 -3.86924590299030
 1 -11.34120896029603 -1.72308333553355 -3.29477775597560
 1 -8.91903652225222 -4.99312581338134 -1.96995305830583
 1 -7.96755114031403 -5.71116707000700 -0.41692164726473
 1 -9.69236341534154 -4.87756620502050 -0.42084435313531
 1 -3.37918543704370 -3.35494209980998 -0.13286102420242
 1 -1.42596598419842 -4.72416462986299  3.22986470407041
 1 -2.89093553085309 -5.61430095499550  3.51517255495550
 1 -1.58354887538754 -6.32498328312831  2.35686904800480
 1  2.74107216201620 -1.64596121892189 -1.55665711441144
 1  2.83883032433243 -0.01407332253225 -1.97695875337534
 1  4.23044353105311 -1.12350076387639  0.27432883308331
 1  4.09973528502850  1.18402394509451 -2.60384086978698
 1  5.11345827802780  2.24230465436544 -1.88310574897490
 1  5.70448001650165  0.97980917181718 -3.13665992289229
 1  6.78486667056706  1.22964294489449  0.19460907480748
 1  6.06544441654165 -0.20951828852885  0.72575877137714
 1  7.38370049284929 -1.18396906990699 -1.39289404660466
 1  7.75436799529953  0.66574567756776 -1.83707453035304
 1  9.14112015631563  0.54804430193019  0.42671509960996
 1  8.75638875967597 -0.91560991369137  0.72434855825583
 1  10.38679331113111 -0.15796964916492 -1.76915207320732
 1  9.26212582168217 -2.37861614511451 -1.84940332223222
 1  10.96226536713671 -2.54304770407041 -1.90799615771577
 1  10.09285148224822 -2.83708782348235 -0.44917231093109
 1  11.55594723632363  0.50837727112711  0.66772454325433
 1  11.18564616011601 -1.05725702330233  0.77539385948595
 1  12.81822977547755 -1.63539095839584 -0.81781405290529
 1  12.95131096099610  0.06198113411341 -1.35958029172917
 1  13.61289270957096  0.71171653495350  0.56913174187419
 1  14.19899821042104 -0.81266764566457  1.13042541654165
 1  15.35782618401840  0.41270466746675 -1.44423569236924
 1  15.80682447924793 -2.22683202440244  0.08645050955096
 1  14.98476012041204 -2.19132365236524 -1.55444681818182
 1  16.61039931953195 -1.55226612361236 -1.48136464976498
 1  15.96235950945094  1.28926726042604  0.91178709500950
 1  16.35462954075408 -0.29238552335234  1.42272076677668
 1  17.97173391109111 -0.38523503750375 -0.31929212481248
 1  17.47747505710571  1.24087298139814 -1.03100884448445
 1  18.37302635953595  2.29344061206121  1.08096004280428
 1  18.87403336583658  0.72298713821382  1.77658090359036
 1  20.33044287658766  0.45626662426243 -0.18296240404040
 1  19.80770758925893  3.30078085458546 -0.99277146184618
 1  21.20369417021702  2.12317345944594 -1.53190117131713
 1  19.31186958455845  1.80794108430843 -1.98223660806081
 1  21.10702455595559  1.36308194909491  2.06588025682568
 1  22.02577046984698  2.23459393009301  0.71814846844684
 1  20.75560563906391  2.95493161036104  1.66256339303930

