%nproc=4
%Mem=2GB
# td=(NStates=1) CAM-B3LYP/6-31G(d,p) 

TD

0 1
12 -7.14123469646965  0.56534528262826  0.15194288168817
 6 -4.86877149514951 -1.94471564996500  0.56538307100710
 6 -4.72169209810981  2.79033748104810  1.01515788068807
 6 -9.34050878637864  3.10629612511251 -0.37710056975698
 6 -9.50868118181818 -1.70823633463346 -0.84565099419942
 7 -5.01849527412741  0.43137295539554  0.63886430473047
 6 -4.28748845494550 -0.76212603460346  0.77633565676568
 6 -2.92180118551855 -0.46397582328233  1.18372872707271
 6 -2.97775121352135  1.00548321662166  1.72579331003100
 6 -4.31093808870887  1.43537428622862  1.05388241814181
 6 -3.04672975507551  1.05080736883688  3.26169757865787
 6 -1.92494595559556 -0.65074033543354  0.10380433873387
 6 -0.44376179877988 -0.51312565976598  0.61503563286329
 6  0.49061019821982 -0.75479899279928 -0.48802418291829
 8  0.25880712081208 -1.21779718731873 -1.58615494719472
 8  1.79756156665667 -0.50417781418142 -0.12698948784878
 7 -7.09386983488349  2.62933852365237  0.32090078557856
 6 -5.92692197119712  3.36395737153715  0.63519705330533
 6 -6.31850910401040  4.75533982338234  0.74899558675868
 6 -7.59953266026603  4.86836746824682  0.40475886718672
 6 -8.11909618121812  3.52088128342834  0.00833337963796
 6 -5.31271922862286  5.91588405430543  1.16466122662266
 6 -8.43431122872287  5.99145017871787  0.14005099049905
 6 -8.33454734603460  7.19049516811681  0.74337058685869
 7 -9.07494976757676  0.72994585568557 -0.60948498219822
 6 -9.85133139283928  1.84825477857786 -0.69171549564957
 6 -11.10554965156516  1.48758709780978 -1.21014273377338
 6 -11.24165656955696  0.20509587368737 -1.31255996999700
 6 -9.97828350905090 -0.38754072837284 -0.89056407250725
 6 -12.29667849154916  2.50410098109811 -1.58537531233123
 6 -12.32204675097510 -0.67684509460946 -1.83532434093409
 6 -12.33426091449145 -1.03174558575858 -3.42371749034904
 7 -7.19515898419842 -1.34909452305231 -0.23566824382438
 6 -8.25651589138914 -2.15755092719272 -0.49592454765477
 6 -7.94078022362236 -3.57006527402740 -0.44897217451745
 6 -6.59537342144214 -3.57858219521952 -0.07199893179318
 6 -6.17951054745475 -2.11934021532153  0.05751855605561
 6 -8.68187565496549 -4.80432327472747 -0.73047152555256
 6 -5.40421489178918 -4.35758964246425  0.18750162276228
 8 -5.15288412631263 -5.50371485488549  0.02575960666067
 6 -4.26264984438444 -3.38804459425943  0.58251811711171
 6 -3.63477410831083 -3.72950817211721  2.00918129102910
 8 -3.83805540614061 -3.09762649884988  2.98337101820182
 8 -2.87306850055006 -4.72818754115412  1.80910949184919
 6 -2.23367395529553 -5.16933116221622  3.12183711921192
 6  2.79351186288629 -0.86720451505151 -1.17522872327233
 6  4.13857594659466 -0.67966614291429 -0.45675582458246
 6  5.04416790119012  0.20784705010501 -0.89202897559756
 6  4.86695511851185  1.24809745904590 -2.02807697299730
 6  6.45869020182018  0.16591844204420 -0.08177466266627
 6  7.59986752465247 -0.23994434133413 -0.90623757425743
 6  8.85077695029503 -0.15292042244224 -0.09114092689269
 6  10.12215283978398 -0.51501857355736 -0.82585355585559
 6  10.03288998919892 -2.00060099619962 -1.19367283228323
 6  11.35309818671867 -0.33695747654765  0.01615248384838
 6  12.69976488418842 -0.42128617971797 -0.75305532843284
 6  13.97015648404840  0.03783258045805  0.07175424292429
 6  15.35679180408041 -0.02304603370337 -0.65685392519252
 6  15.71440310921092 -1.40648828262826 -1.10974059175918
 6  16.39717382328233  0.63711807180718  0.28674318151815
 6  17.81218580798080  0.63228462686269 -0.26176199079908
 6  18.75929629912991  1.37462567956796  0.77010744374437
 6  20.22859152835283  1.36361669516952  0.15283004620462
 6  20.42358371217122  2.29596789398940 -1.05526651935194
 6  21.26711764256426  1.87169010531053  1.23605896929693
 1 -3.98737022152215  3.66295181658166  1.60102468936894
 1 -10.10821121382138  3.99848068306831 -0.53238863036304
 1 -10.04305759515952 -2.41314065486549 -1.04912156435644
 1 -2.65381183808381 -1.12889120302030  2.14827551875187
 1 -2.09680328552855  1.51833541614161  1.37397804820482
 1 -1.94177863536354  0.78943939683968  3.60559427292729
 1 -3.20377543754375  2.12468652615262  3.82072423782378
 1 -3.77862130483048  0.24278896289629  3.61553396619662
 1 -2.02201468636864 -1.56819678007801 -0.39757366656666
 1 -2.36412808530853 -0.01563431303130 -0.70226026562656
 1 -0.31030454785479  0.51412602650265  1.10303070217022
 1 -0.37719552155216 -1.26412092729273  1.32088604380438
 1 -5.69242801820182  6.90438908300830  0.60795650485048
 1 -5.40862785218522  6.23487685078508  2.34829112621262
 1 -4.23166712271227  5.59654082048205  0.93193636923692
 1 -9.37219927242724  5.66486263436344 -0.60584081228123
 1 -9.02193340924092  7.95306604550455  0.42151177297730
 1 -7.60561002680268  7.60964736423642  1.48339672517252
 1 -12.01829593469347  3.13733405940594 -2.41871487618762
 1 -13.46370603980398  2.05935982718272 -1.58667985948595
 1 -12.21089282038204  3.24465312001200 -0.83932517651765
 1 -12.37681245964596 -1.61934137923792 -1.13155811071107
 1 -13.30610932983298 -0.30005674247425 -1.55125065256526
 1 -13.13234958755876 -1.83467815401540 -3.59675956045604
 1 -12.66043960816082 -0.01217575517552 -3.79026252195220
 1 -11.37366364566457 -1.33326819391939 -3.77474609460946
 1 -9.33295289828983 -4.73865460836084 -1.69805306940694
 1 -7.94641400620062 -5.66927693189319 -0.94019363236324
 1 -9.40734061896190 -5.10841586288629  0.26339451685169
 1 -3.59196989288929 -3.66929017971797 -0.23189846134614
 1 -2.00668883538354 -4.29375581528153  3.66930984628463
 1 -3.02994260286028 -5.69428104570457  3.66622946184618
 1 -1.37550566206621 -5.76767604080408  2.79001295419542
 1  2.65449475357536 -1.76301813771377 -1.40372433743374
 1  2.60167764536454 -0.36518223862386 -1.97993114531453
 1  4.40044094969497 -1.42408462366237  0.29236245224522
 1  3.83914287778778  0.94442315271527 -2.42971134083408
 1  4.89953536523652  2.25465572447245 -1.59206567476748
 1  5.75027233483348  1.22189329682968 -2.82936166716672
 1  6.45742780568057  1.20257425742574  0.25762840564056
 1  6.25405952535254 -0.42061009840984  0.93506322302230
 1  7.40208759345935 -1.05198443364336 -1.32010333393339
 1  7.92003443934393  0.58788199629963 -1.57176009960996
 1  8.96107815941594  1.01260914591459  0.25318295049505
 1  9.00612910161016 -0.89168467466747  0.80780864456446
 1  10.11381893329333  0.03605614331433 -1.63372826232623
 1  9.28367335283528 -2.24449242574257 -1.82765869066907
 1  10.76407896359636 -2.31985876977698 -2.04469871377138
 1  10.11362424842484 -2.61213315531553 -0.38885832553255
 1  11.39712739363936  0.59323155335534  0.63958544604460
 1  11.43444649804981 -0.84160012131213  0.85762638423842
 1  12.84040735963596 -1.32319048024802 -1.15182284988499
 1  12.77013076557656 -0.14586389538954 -1.61848520982098
 1  13.95783722042204  1.08002055805581  0.37847519051905
 1  13.95227798089809 -0.61236084078408  0.85671218771877
 1  15.27770105860586  0.66074555955596 -1.49497385538554
 1  16.11307875077508 -2.00125041714171 -0.16097755165517
 1  15.06093914461446 -2.07631000660066 -1.63347076217622
 1  16.74896452585259 -1.38355388028803 -1.71573304280428
 1  16.07367256795679  1.58082591629163  0.60360690499050
 1  16.27713216041604  0.15156598149815  1.21445420662066
 1  18.16872781148115 -0.45658220562056 -0.15811915231523
 1  17.75359242374238  1.02322964186419 -1.34997857365737
 1  18.37754854745475  2.20316447414741  1.12230023532353
 1  19.09862702300230  0.68867304830483  1.60573057335734
 1  20.52222713541354  0.37569371757176 -0.01492442844284
 1  20.17517162376237  3.38058162006201 -0.69815340874087
 1  21.43771802390239  2.37053370617062 -1.43073443674367
 1  19.76183008740874  2.01964377517752 -1.76524349334933
 1  21.04067004220422  1.27437554665467  2.14641425862586
 1  22.26573828012801  1.64012524222422  0.96666163246325
 1  21.28941867176718  2.91348143144314  1.66602704320432

