%nproc=4
%Mem=3GB
# td=(NStates=1) iop(3/107=0140000000,3/108=0140000000) CAM-B3LYP/6-31G(d,p) 

TD

0 1
12 -7.13818851055106  0.61240962446245  0.08368473847385
 6 -4.86416523302330 -2.04092132273227  0.51742714511451
 6 -4.74627065766577  2.76512523042304  1.04259436463646
 6 -9.38019478397840  3.07434498749875 -0.32864533983398
 6 -9.52124822282228 -1.66675844154415 -0.87656446134613
 7 -5.08072510371037  0.44664075467547  0.64009183318332
 6 -4.36306855415542 -0.75221636483648  0.77653554825483
 6 -2.91670789138914 -0.47466586458646  1.19382505160516
 6 -2.94124735163516  1.05221392299230  1.53586986628663
 6 -4.36533676837684  1.49647429852985  1.09515390929093
 6 -2.88513469426943  1.29118193749375  3.04191950655066
 6 -1.85461119081908 -0.74083007220722 -0.02658884858486
 6 -0.40841655085509 -0.43515676367637  0.37436081838184
 6  0.59594151735174 -0.66195281718172 -0.68644843494349
 8  0.27449766656666 -1.02228600630063 -1.82559995309531
 8  1.85860445884588 -0.42265220362036 -0.23126851445144
 7 -7.04354199759976  2.63255646554655  0.25497642174217
 6 -5.96205634943494  3.40857462486249  0.67915379147915
 6 -6.27741264966497  4.83737060066007  0.76978523722372
 6 -7.56269105440544  4.86051785698570  0.33552967936794
 6 -8.08978850635063  3.49663660246025  0.10580857945795
 6 -5.39178121202120  5.82947242094209  1.17378753395340
 6 -8.47173718171817  6.05000527012701  0.20622123462346
 6 -8.29838824882488  7.26665581528153  0.79742380168017
 7 -9.07771681278128  0.75116211061106 -0.49090566446645
 6 -9.85817330363036  1.89663298759876 -0.62323513701370
 6 -11.18722267496750  1.52791223572357 -0.95009986968697
 6 -11.23152263946395  0.17202474827483 -1.10571059935994
 6 -9.99389699329933 -0.30732092549255 -0.86064826612661
 6 -12.33750468816882  2.50612585398540 -1.14943439613961
 6 -12.30009380228023 -0.58826495029503 -1.79235856645665
 6 -12.05894780368037 -1.19242943524352 -3.17157780898090
 7 -7.23636659905991 -1.37949278497850 -0.26166884198420
 6 -8.30717504380438 -2.14689323482348 -0.50008158805881
 6 -7.83872591239124 -3.65999655105511 -0.46739703950395
 6 -6.48278606910691 -3.57173015511551 -0.19351143284328
 6 -6.21535526722672 -2.22594054985499  0.17917975337534
 6 -8.70335267476748 -4.76270236863686 -0.79863324642464
 6 -5.39656511941194 -4.37470103350335  0.13713868796880
 8 -5.33094408670867 -5.60117697469747  0.09871582018202
 6 -4.17575207780778 -3.31920936833683  0.52203052465247
 6 -3.68338251505150 -3.71168911161116  1.88387435593559
 8 -3.95020780418042 -3.09953731163116  2.96735009320932
 8 -2.77273262606261 -4.80322894139414  1.76440547804780
 6 -2.36726568356836 -5.16859206510651  3.09105650605061
 6  2.84511083148315 -0.88596688558856 -1.19105262246225
 6  4.07707859305931 -0.51742701060106 -0.56510907370737
 6  5.14450994229423  0.26305283328333 -0.87544042104210
 6  5.15561928752875  1.15642331763176 -2.06304043904390
 6  6.44507078577858  0.30194081008101 -0.16314683908391
 6  7.55577703030303 -0.26154470247025 -0.91151147984798
 6  8.93335104670467 -0.19591140724072 -0.14773087548755
 6  10.05876133673367 -0.73632529572957 -0.89015473547355
 6  9.98966224282428 -2.19183706360636 -1.20533749974998
 6  11.40435509930993 -0.43407829892989 -0.04382234473447
 6  12.69183691919192 -0.67800783428343 -0.72724022912291
 6  13.95781705350535 -0.21305702000200  0.20417682928293
 6  15.32365835683568 -0.14096317991799 -0.48469412191219
 6  15.75505177617762 -1.63775216351635 -0.91551337763776
 6  16.30190718341834  0.50421693899390  0.45509024372437
 6  17.79235682338234  0.58876260586059 -0.04142066906691
 6  18.67626804540454  1.40129820832083  0.79483273997400
 6  20.10020282468247  1.52622205470547  0.17244395039504
 6  20.22088493429343  2.63288059315932 -0.99767446334633
 6  21.11906697369737  1.94150585048505  1.26421036103610
 1 -3.85416578007801  3.43859711111111  1.33746984278428
 1 -10.07631975527553  3.91768404290429 -0.73341786798680
 1 -10.17470189428943 -2.43360889598960 -1.16205402480248
 1 -2.65171245844584 -1.13371357405741  2.06702319301930
 1 -1.89542300860086  1.51605366646665  1.17415106410641
 1 -1.70470355675568  1.11109021542154  3.36265660306031
 1 -3.23503061216122  2.35881510431043  3.35104312651265
 1 -3.77596039653965  0.69222437673767  3.60227191239124
 1 -1.92758787778778 -1.55016568736874 -0.56177418451845
 1 -2.21120748974898  0.08624624442444 -0.80444717931793
 1 -0.24391982068207  0.50552013931393  0.92441630463046
 1 -0.12135055535554 -0.91184195079508  1.32822628092809
 1 -5.41589576727673  6.74723223522352  0.47465729702970
 1 -5.70293176447645  6.32570545194520  2.20092210471047
 1 -4.36012085668567  5.75492976097610  1.19059979257926
 1 -9.31500175997600  5.99829321132113 -0.50942229492949
 1 -8.89190825452545  8.07868758975898  0.77705748144814
 1 -7.46081401350135  7.74329116551655  1.46393535383538
 1 -12.32770324332433  3.09907905500550 -2.09533536503650
 1 -13.31532883058306  2.12290103250325 -1.06545227342734
 1 -12.35896692939294  2.91096843094309 -0.16724716421642
 1 -12.62879484438444 -1.52785370817082 -1.15247874877488
 1 -13.25187748684868 -0.11895460596060 -1.66247200160016
 1 -12.81642684188419 -2.03803746584658 -3.37068802690269
 1 -12.03033343904390 -0.24630310161016 -3.93594257265726
 1 -10.96077091649165 -1.57213824102410 -3.28174645284528
 1 -9.25595021362136 -4.67549405020502 -1.82735879887989
 1 -8.24793917911791 -5.73254920822082 -0.90414036913691
 1 -9.51553573257326 -4.81980042844284  0.00062779407941
 1 -3.32624014251425 -3.50627723332333 -0.17622536063606
 1 -1.89133252085208 -4.22552476587659  3.52673439103910
 1 -3.03907034433443 -5.63679320422042  3.83288432613261
 1 -1.42271279177918 -6.01891267606761  3.01265462656266
 1  2.56693474827483 -2.13402002480248 -1.30766221492149
 1  2.79264570587059 -0.36976889208921 -2.19571062856286
 1  4.23755424212421 -1.28900731453145  0.12298369856986
 1  4.19134444594459  1.28700424312431 -2.60887137283728
 1  5.37577450965096  2.33670409430943 -1.69281672007201
 1  5.83223279177918  0.69543073397340 -2.72537879477948
 1  6.55741392529253  1.28500848144815  0.16733634753475
 1  6.29146701880188 -0.39048638533853  0.85428162366237
 1  7.26535865866587 -1.32621329432943 -1.27574233143314
 1  7.74308686718672  0.32537164016402 -1.85674649754975
 1  9.04885092939294  0.78303780128013 -0.06595416731673
 1  8.86946006680668 -0.64030238293829  0.76986310971097
 1  10.45211984378438 -0.23565741794179 -1.85283044104410
 1  9.11165077417742 -2.46164444794479 -1.80628901080108
 1  10.82908204880488 -2.57197059635964 -1.58999435753575
 1  10.04028622572257 -2.85773988868887 -0.31645903960396
 1  11.30330197179718  0.42605903930393  0.38222599339934
 1  11.36968456395640 -1.08029932753275  0.91122744284428
 1  12.70901885438544 -1.54693211251125 -1.00902317381738
 1  12.92136796669667 -0.01188625262526 -1.59932426612661
 1  13.68807022732273  0.65681104440444  0.77242207090709
 1  14.11825013561356 -0.98773515241524  0.95843821782178
 1  15.32016241764176  0.31702509950995 -1.32206347514751
 1  15.70291408820882 -2.43116245744574 -0.18450658615862
 1  15.20334197859786 -1.76513103310331 -1.76251762526253
 1  16.82783106270627 -1.68648954595460 -1.34639115241524
 1  15.98507178067807  1.46641497519752  0.81495741204120
 1  16.53369744754475 -0.01785807060706  1.36522501720172
 1  18.22178891659166 -0.40715722972297 -0.04752494809481
 1  17.73658096769677  0.91749064316432 -1.17441318491849
 1  18.59179823672367  2.51406267426743  0.91052299909991
 1  18.85569153165316  1.11876671617162  1.76230947644765
 1  20.52749258155816  0.67823882148215 -0.32453656145615
 1  19.94258107660766  3.73956473297330 -0.66617880258026
 1  21.24529833063306  2.50709185128513 -1.38612659385939
 1  19.35743414101410  2.44261455165517 -1.94052243664366
 1  21.59448330183018  1.18985462636264  1.93058672747275
 1  22.09892778557856  2.45618608930893  0.62372902650265
 1  20.63519359785979  2.89029514671467  1.70825796249625

