%nproc=4
%Mem=2GB
# td=(NStates=1) CAM-B3LYP/6-31G(d,p) 

TD

0 1
12 -7.15388596159616  0.60138888698870  0.07752543994399
 6 -4.90522514051405 -1.92130330873087  0.49297583028303
 6 -4.75428535743574  2.92195064236424  1.15043140804080
 6 -9.30863559905991  3.09846534203420 -0.42470533023302
 6 -9.55747606130613 -1.71598710971097 -0.89060548964896
 7 -5.08337176177618  0.55178499659966  0.80144056235624
 6 -4.39873958005801 -0.66432625462546  0.73731175437544
 6 -2.92620162556256 -0.38995842154215  1.21295164936494
 6 -3.05632907130713  1.04790745904590  1.70373110381038
 6 -4.44339133403340  1.53216396519652  1.20390742064206
 6 -3.00517559965997  1.12872516061606  3.26418782768277
 6 -1.94184764576458 -0.64936019741974  0.03651761006101
 6 -0.50851827442744 -0.58956330353035  0.57807193649365
 6  0.54077521472147 -0.72778629152915 -0.57063244374437
 8  0.24455569566957 -1.02654806240624 -1.73763009470947
 8  1.84819663016302 -0.51443884028403 -0.07573436233623
 7 -6.98213866176618  2.56855244504450  0.39223791929193
 6 -5.93801308030803  3.44682565836584  0.75850938453845
 6 -6.37327458055806  4.80931522092209  0.77519820702070
 6 -7.64360706770677  4.86110674217422  0.29245763706371
 6 -8.06867113871387  3.40536973227323 -0.08747620132013
 6 -5.57064502120212  5.96387885378538  1.13560832133213
 6 -8.56073387098710  5.95172620632063  0.13245023042304
 6 -8.49980387168717  7.09886600520052  0.77386363616362
 7 -9.03042531513151  0.65457831893189 -0.67595162886289
 6 -9.84041030073007  1.77245719881988 -0.70612693679368
 6 -11.13254235083508  1.54018235733573 -1.12869458895890
 6 -11.22431483538354  0.15474083818382 -1.34094280828083
 6 -9.97434311501150 -0.37594956925693 -1.01122613871387
 6 -12.35896472017202  2.50734130513051 -1.43066984178418
 6 -12.46224077037704 -0.65961337143714 -1.74847565606561
 6 -12.48094558295830 -0.94807721892189 -3.24803992259226
 7 -7.22848231653165 -1.37556717031703 -0.10629530653065
 6 -8.30412065186519 -2.22167733983398 -0.49733468866887
 6 -7.82632877847785 -3.59401766926693 -0.45640291759176
 6 -6.46500038413841 -3.54925926292629 -0.15905763766377
 6 -6.25832842924292 -2.16450473177318  0.07780058425843
 6 -8.57176464386439 -4.84717756015602 -0.80607908630863
 6 -5.30537500780078 -4.37169105260526  0.14268714131413
 8 -5.10890972887289 -5.57760224362436  0.17956498719872
 6 -4.13077665706571 -3.30478626842684  0.50714057935794
 6 -3.53799443034303 -3.70362558385839  1.86095646854685
 8 -3.74563616421642 -3.21157789398940  2.96844952605260
 8 -2.65682687638764 -4.75709043144314  1.79265784668467
 6 -1.96582717061706 -5.09137336643664  3.08022295779578
 6  2.83753626532653 -0.88960675527553 -1.04695589598960
 6  4.03910599959996 -0.55627380368037 -0.46091624062406
 6  5.05330881528153  0.23373963936394 -0.83099287198720
 6  4.88435685868587  1.15038768806881 -2.03991815711571
 6  6.35161949474947  0.27589944014401 -0.20990747594759
 6  7.58368590649065 -0.22601294819482 -0.99367631813181
 6  8.93595546814682 -0.12328745914591 -0.22184399719972
 6  10.25644626912691 -0.52742981468147 -0.89621059155916
 6  10.24390109030903 -2.03519445554555 -1.27634109910991
 6  11.32039491639164 -0.13542732353235 -0.00165929732973
 6  12.73301820952095 -0.51809586068607 -0.71926194909491
 6  13.93289275767577 -0.04699590239024  0.15325239273927
 6  15.29000512541254 -0.09135286438644 -0.52048028782878
 6  15.67958962786279 -1.49160679447945 -0.97702732043204
 6  16.34571867776778  0.49119347934793  0.35821032823282
 6  17.79469405880588  0.42400379877988 -0.22671848644864
 6  18.68612898239824  1.40622883988399  0.58165859885989
 6  20.22548121732173  1.32390272377238  0.19401416461646
 6  20.45670702450245  2.11182948014801 -1.04085507820782
 6  21.08982991379138  1.90285322162216  1.34148951235123
 1 -3.98846033053305  3.76958247964796  1.35405999289929
 1 -10.02249264196420  3.91009184418442 -0.51639703120312
 1 -10.20335362476248 -2.42699204000400 -1.19288594079408
 1 -2.49546600350035 -1.09489780368037  1.92047273847385
 1 -2.30663426862686  1.66127971057106  1.12718336873687
 1 -1.94964942244224  0.89324977787779  3.58607232073207
 1 -3.36492155215522  2.08103216071607  3.74047621302130
 1 -3.69174261696170  0.41604628862886  3.72414482728273
 1 -2.14739722462246 -1.55226518691869 -0.37585149434943
 1 -1.87482915541554  0.23719096949695 -0.63695373497350
 1 -0.27674119151915  0.42193680758076  1.10131053015302
 1 -0.16060386238624 -1.23574809000900  1.27062101730173
 1 -5.80815959135914  6.95696434053405  0.27615332453245
 1 -5.64905189458946  6.39848321142114  2.16969326642664
 1 -4.57441139713971  5.99715088148815  1.20507368296830
 1 -9.45193724622462  5.92411855995600 -0.51813204140414
 1 -9.03896511241124  7.97059779867987  0.60072969476948
 1 -7.57241670747075  7.36027242674268  1.58932731823182
 1 -12.08191229632963  3.17041736773677 -2.32968597329733
 1 -13.21663133233323  1.98211210241024 -1.64895608710871
 1 -12.33223495459546  3.29824847954795 -0.70786203020302
 1 -12.46720149854986 -1.54003344844484 -1.18182313721372
 1 -13.41097981688169 -0.21216795359536 -1.48301382888289
 1 -13.28657501010101 -1.63290797699770 -3.48157804230423
 1 -12.69171273547355 -0.01103564116412 -4.03106660236024
 1 -11.54800107940794 -1.51129599669967 -3.49111773177318
 1 -9.16569617261726 -4.82765350825083 -1.69292255635564
 1 -7.72192155695569 -5.71258126232623 -0.79025863886389
 1 -9.38689857475748 -5.20960598189819 -0.04547637023702
 1 -3.38719941584158 -3.43823707440744 -0.30702597409741
 1 -1.67183535003500 -4.20182662236224  3.57223013831383
 1 -2.83769337793779 -5.73511512911291  3.72453529242924
 1 -1.37552566406641 -5.83209248244825  2.83482743564356
 1  2.86815611971197 -1.89007084298430 -1.43668763376338
 1  2.66134361196120 -0.27257297769777 -1.82578573077308
 1  4.30238114371437 -1.24712692789279  0.48687190319032
 1  3.91304026752675  1.08091680208021 -2.46804517421742
 1  5.06800221192119  2.27029728862886 -1.78669513771377
 1  5.52526983458346  1.03826493399340 -2.95947467846785
 1  6.42732479537954  1.16278027802780  0.20019266206621
 1  6.32648676807681 -0.23579161656166  0.79134885158516
 1  7.40819820452045 -1.29669890509051 -1.39195051865187
 1  7.84453688958896  0.06171938003800 -2.04822774637464
 1  8.87594964656466  1.10919880488049  0.07140477267727
 1  8.84942343104310 -0.61329683588359  0.78169603330333
 1  10.33969152055205 -0.03672113441344 -1.71273616311631
 1  9.30055504100410 -2.37254523102310 -1.84925084988499
 1  11.15927848354836 -2.02440922482248 -1.84249849374937
 1  10.57300018601860 -2.69319126112611 -0.31013045274528
 1  11.35478315921592  0.99934216441644  0.09249073657366
 1  11.32774582798280 -0.56946290759076  1.12358297989799
 1  12.85923924282428 -1.62750091129113 -0.74599226682668
 1  12.86528028052805 -0.04707401640164 -1.65953931523152
 1  13.79508094479448  1.04880743674367  0.44665200820082
 1  13.99852260536054 -0.56556616131613  1.17073358985899
 1  15.18006129462946  0.57860734573457 -1.30685504350435
 1  16.33991143404340 -2.09158945104510 -0.06078753265327
 1  14.89653270397040 -2.19572194779478 -1.31577899299930
 1  16.55452508190819 -1.29595512041204 -1.59700116961696
 1  16.20241544224422  1.70521835553555  0.79590613491349
 1  16.24166861406140 -0.32173134823482  1.19936269746975
 1  18.42375331403140 -0.56608315571557 -0.43927726812681
 1  17.75648271277128  0.72193951285128 -1.30092366816682
 1  18.16180697329733  2.58014217191719  0.61213921922192
 1  18.71124828512852  1.25503968496850  1.89036903720372
 1  20.32447736043605  0.36287243544354  0.03524058805881
 1  20.46178028462846  3.32231579347935 -0.83444703810381
 1  21.56271052315232  1.96808346114611 -1.34428579187919
 1  19.94368827322732  1.85078688948895 -1.99794676367637
 1  20.78023399859986  1.42436054515452  2.35607522472247
 1  22.18129983628363  1.74472570227023  1.01125609190919
 1  21.08861859175918  3.14889497279728  1.40426086658666

