%nproc=4
%Mem=3GB
# td=(NStates=1) iop(3/107=0140000000,3/108=0140000000) CAM-B3LYP/6-31G(d,p) 

TD

0 1
12 -7.07355204690469  0.65380376387639  0.17457382738274
 6 -4.88388720522052 -2.00129736033603  0.44212961536154
 6 -4.67201323192319  2.82550126802680  1.24446455165517
 6 -9.31244800930093  3.09278683168317 -0.45591806710671
 6 -9.55758185618562 -1.78282004770477 -0.96391319621962
 7 -5.12005903710371  0.45707179777978  0.86066389038904
 6 -4.35209745704570 -0.72468361156116  0.88554644934493
 6 -2.96481270187019 -0.51003940194019  1.33655932503250
 6 -3.12593582048205  1.08552725432543  1.84701098039804
 6 -4.43266350105010  1.46924157525753  1.35125951985199
 6 -2.92872905370537  1.18766158545855  3.30788610321032
 6 -2.03473920362036 -0.65534152335234  0.34529834013401
 6 -0.53577928712871 -0.59800304830483  0.51756513881388
 6  0.40065198839884 -0.76824344624462 -0.58752854295430
 8  0.16943716051605 -1.20087386508651 -1.68477587068707
 8  1.74153275167517 -0.40778071647165 -0.23347873547355
 7 -7.05147279067907  2.58372158205821  0.32227315141514
 6 -5.94464460826083  3.33801756915692  0.81899777587759
 6 -6.26316122452245  4.73940080368037  0.81861011971197
 6 -7.57165195049505  4.86440824602460  0.28907503390339
 6 -8.06384591209121  3.47238417721772  0.02223022162216
 6 -5.35384741864186  5.83514298799880  1.26908706390639
 6 -8.40772078007801  6.06460673027303  0.10491110361036
 6 -8.28103651365137  7.24221337103710  0.64378843814381
 7 -9.12989203030303  0.68304529892989 -0.48530510441044
 6 -9.73290077637764  1.83264658895890 -0.63831664516452
 6 -11.10660461316132  1.62917236173617 -1.22956781648165
 6 -11.17305679287929  0.24509205500550 -1.39381941024102
 6 -9.97263486708671 -0.35141533493349 -0.89349155045505
 6 -12.12524346204621  2.52556779817982 -1.48040749344934
 6 -12.40574436733673 -0.57543366716672 -1.79621895249525
 6 -12.39226113501350 -0.97446763906391 -3.27617826902690
 7 -7.22474543694369 -1.38214305000500 -0.27129980508051
 6 -8.18725305160516 -2.14368291379138 -0.65903748364836
 6 -7.86419845964596 -3.62353290469047 -0.61591189098910
 6 -6.49754754525453 -3.55360834293429 -0.20166224792479
 6 -6.14869860156016 -2.13868182398240 -0.08051621622162
 6 -8.72565490499050 -4.76938303670367 -0.91819520262026
 6 -5.33479894279428 -4.40147371077108  0.19579455355536
 8 -5.30420141244124 -5.58814567156716  0.21459740834083
 6 -4.25874037663766 -3.33262070947095  0.56672499409941
 6 -3.66006018281828 -3.69536747944794  1.98372434093409
 8 -3.81141392479248 -3.22796015391539  3.05521888008801
 8 -2.84521987478748 -4.78866748524853  1.83107214471447
 6 -2.24546350335033 -5.29432463836384  3.13413081348135
 6  2.67048336873687 -0.73378166706671 -1.13284680188019
 6  4.07343822902290 -0.46678194609461 -0.58250081288129
 6  5.11375686698670  0.23982051005100 -1.01989486648665
 6  5.18887261286129  1.00597827312731 -2.32368650365036
 6  6.46957323602360  0.22522313831383 -0.20171069546955
 6  7.63690514311431 -0.29864841284128 -0.92188251695170
 6  8.88389610121012 -0.21156297239724 -0.12824892729273
 6  10.21952741334133 -0.57455911911191 -0.91698741874187
 6  10.11748502510251 -2.06383426332633 -1.42847981398140
 6  11.49590425422542 -0.28279317041704 -0.02613057555756
 6  12.80586832233223 -0.42968300180018 -0.77820532563256
 6  14.02322359415941  0.01590587628763  0.07607401900190
 6  15.38060405140514 -0.11670075367537 -0.54923057555756
 6  15.73374964596460 -1.56484487278728 -0.94778660496050
 6  16.31177817051705  0.44017053435344  0.45794052875288
 6  17.74423201090109  0.73000673027303 -0.14403093009301
 6  18.73974439303930  1.41432951145115  0.77490074677468
 6  20.18322112651265  1.46742617511751  0.16142284828483
 6  20.28107095289529  2.26657396249625 -1.12573726962696
 6  21.11313638063806  2.02300400030003  1.34725866586659
 1 -4.03950431393139  3.58480173157316  1.84646074187419
 1 -9.78408053135314  3.89378165266527 -0.76405093129313
 1 -10.32465688978898 -2.20924645974597 -1.25978379777978
 1 -2.57096438363836 -1.22960316301630  2.19961645234523
 1 -2.25088855515552  1.64825688678868  1.35681933093309
 1 -1.90951403780378  0.61197030343034  3.65643598099810
 1 -2.94690179927993  2.22496171897190  3.48969699189919
 1 -3.71858465896590  0.54743989828983  3.77807949314931
 1 -2.22950806980698 -1.76549722052205 -0.12954096119612
 1 -2.23414978397840 -0.16975935613561 -0.36501323592359
 1 -0.32684811351135  0.42752233953395  1.06072993599360
 1 -0.40127854815482 -1.12459322592259  1.40046350465047
 1 -5.67507168486849  6.76714422642264  0.62375220652065
 1 -5.54487595889589  6.02527540894090  2.35207722022202
 1 -4.26832167676768  5.73937820582058  1.31780251285129
 1 -9.37647790759076  5.80138352035203 -0.38304965766577
 1 -8.93950301400140  8.12853257425743  0.22744251995200
 1 -7.19662759485949  7.73471030743074  1.22472143244324
 1 -12.12571304430443  3.25649479657966 -2.28789462096210
 1 -13.24769206690669  2.16854559695970 -1.63353908210821
 1 -12.45318635133513  3.17637497159716 -0.59191963146315
 1 -12.37775974087409 -1.33265418821882 -1.25521902280228
 1 -13.23270556965697  0.02166945644564 -1.90940669506951
 1 -13.37338253745374 -1.28166182828283 -3.41352231033103
 1 -12.26548695439544 -0.02856132743274 -3.98894787318732
 1 -11.41648648804880 -1.76527755495549 -3.52362064026403
 1 -9.05800041864186 -4.82612911371137 -1.86245230823082
 1 -8.30983536873687 -5.68577453075308 -0.70936089118912
 1 -9.75162934193419 -4.72417086548655 -0.31871414011401
 1 -3.37062458095810 -3.49336594219422 -0.10035777387739
 1 -1.82608599619962 -4.61181339473947  3.44432615021502
 1 -3.09992642994299 -5.26908643354335  3.77154819251925
 1 -1.84525504600460 -6.23852463726373  2.89600296139614
 1  2.51658971377138 -1.77814443724372 -1.36877832653265
 1  2.52368881018102 -0.00931284648465 -2.15514657215722
 1  4.03443393009301 -1.12463087688769  0.24619601980198
 1  4.22808812031203  1.00178572127213 -2.77242772847285
 1  5.48479541174117  1.98085850975097 -1.91907934633463
 1  5.87206677517752  0.42998418931893 -3.12668892579258
 1  6.46611479537954  1.23935391599160  0.07249686358636
 1  6.33864173627363 -0.32958029472947  0.61023721922192
 1  7.26837896069607 -1.15900657365737 -1.37374213141314
 1  7.81609416791679  0.18310741374137 -1.90944176707671
 1  8.98689473377338  0.87909740724072  0.18892132023202
 1  9.23393651445144 -0.83048140084008  0.81698782218222
 1  10.19527415921592  0.11391753955396 -1.77696285428543
 1  9.24832444154415 -2.24465274877488 -2.25259364126413
 1  11.08174731533153 -2.41796519581958 -1.79959531763176
 1  10.16662885998600 -3.02396651135113 -0.74660205390539
 1  11.40103174477448  0.64283071647165  0.39029680048005
 1  11.36780437593759 -1.03505480308031  0.79999631973197
 1  13.06144409690969 -1.55154257355736 -0.95489776127613
 1  12.71650748064806  0.25810074607461 -1.67941227492749
 1  13.85106652695270  1.17933329662966  0.39414424312431
 1  13.99251756235624 -0.68525490439044  0.95893826782678
 1  15.39979038043804  0.43823722072207 -1.52892416121612
 1  15.49811360816082 -2.24002334353435 -0.07554569006901
 1  14.99003064746475 -1.90475499549955 -1.72830420392039
 1  16.75473375297530 -1.52910380738074 -1.24442095539554
 1  16.05063833733373  1.30347868156816  0.96978289458946
 1  16.31277535533553 -0.32696898169817  1.26588508320832
 1  18.21109784748475 -0.25620213421342 -0.41408160376038
 1  17.48923623322332  1.30947984208421 -1.06012175577558
 1  18.43836289318932  2.36559782778278  1.12838478527853
 1  18.88212417491749  0.72598743824382  1.72729597509751
 1  20.49801963426343  0.45733673127313 -0.00109421722172
 1  19.96413323182318  3.31768254475448 -0.85875806050605
 1  21.29493329412941  2.11706284838484 -1.53540152135214
 1  19.30655905350535  1.82537282748275 -1.73520190459046
 1  20.76720057355735  1.32344798569857  2.24561823062306
 1  22.26863475627562  1.91645211591159  1.02669932353235
 1  21.08254833333334  3.13652977017702  1.49195633233323

