%nproc=4
%Mem=3GB
# td=(NStates=1) iop(3/107=0140000000,3/108=0140000000) CAM-B3LYP/6-31G(d,p) 

TD

0 1
12 -7.12180687238724  0.62292067556756  0.11372774277428
 6 -4.83518233473347 -1.85954318491849  0.43169857225723
 6 -4.80433646424642  2.84383310121012  1.12080218541854
 6 -9.37392415691569  3.04733228622862 -0.34491696699670
 6 -9.57356345434544 -1.74493625932593 -0.77114391929193
 7 -5.10868789999000  0.48823491409141  0.68504632863286
 6 -4.32300454775478 -0.70332147534753  0.85912380708071
 6 -2.85277149774977 -0.41126952495250  1.22674834393439
 6 -3.00060328722872  1.02333103470347  1.60603688298830
 6 -4.30044027872787  1.49992464356436  1.22559695359536
 6 -2.88047422822282  1.29613243254325  3.11646696129613
 6 -1.97976370607061 -0.50197618681868  0.12294610491049
 6 -0.48098380758076 -0.38557180518052  0.44862824512451
 6  0.51055297849785 -0.58278490039004 -0.58499828992899
 8  0.24383460026003 -0.82606638433843 -1.75602299539954
 8  1.78556715511551 -0.36547648604860 -0.19022441004100
 7 -7.12720036343634  2.61452466236624  0.31150207430743
 6 -6.08543868766877  3.31652541994199  0.83563944004400
 6 -6.40745565396540  4.71779864346435  0.80623888258826
 6 -7.68032281758176  4.77718952415242  0.30262638903890
 6 -8.21688121562156  3.50543748254825  0.06529452805281
 6 -5.34696673057306  5.80733020672067  1.00263041824182
 6 -8.57934794279428  5.97565783538354  0.09299991249125
 6 -8.33932234223422  7.24101325102510  0.63883794309431
 7 -9.12078111921192  0.60755775017502 -0.51519809370937
 6 -9.87881536783678  1.78530185448545 -0.56233904740474
 6 -11.15719967266727  1.39208865336534 -1.10359521922192
 6 -11.27538702590259  0.00737828362836 -1.20407043534353
 6 -10.00774837843784 -0.48829902330233 -0.80861306260626
 6 -12.25595653335334  2.39284452585259 -1.32647209990999
 6 -12.47808160106011 -0.74122024582458 -1.72425175577558
 6 -12.27391930083008 -1.09076926922692 -3.22345299649965
 7 -7.27477043944394 -1.42150698639864 -0.10627330243024
 6 -8.31438576487649 -2.26846539203920 -0.45767734763476
 6 -7.81311335113511 -3.66229678107811 -0.35939623942394
 6 -6.47472526302630 -3.64814779687969 -0.08069015071507
 6 -6.20036376807681 -2.22967092289229  0.13446528192819
 6 -8.53732607210721 -4.93452955135514 -0.79073245634563
 6 -5.28183364626463 -4.36935049844984  0.09285425952595
 8 -5.07426841914191 -5.62924978197820  0.05655160376038
 6 -4.14573907650765 -3.27954540194019  0.50545886748675
 6 -3.63825800260026 -3.57684562726273  1.77599356785679
 8 -3.68542132553255 -3.02337969586959  2.89030238843884
 8 -2.83443879667967 -4.76293491199120  1.72234127162716
 6 -2.21410036703670 -5.25897110301030  2.86272367276728
 6  2.87814413481348 -0.50611890079008 -1.11889540674067
 6  4.16044692989299 -0.28663393129313 -0.46280884368437
 6  5.16920241154115  0.54527105510551 -0.93474635163516
 6  5.09363308890889  1.33435111041104 -2.18921305630563
 6  6.42751903060306  0.61006162216222 -0.19870039443944
 6  7.65606705930593  0.04363581558156 -1.02895322402240
 6  8.81599931153115 -0.08333014911491 -0.07821392379238
 6  10.20405586618662 -0.44404606780678 -0.93759947994799
 6  10.03586686328633 -1.94357223712371 -1.37537450345035
 6  11.32522718651865 -0.13804869596960 -0.01669963246325
 6  12.75814354985499 -0.39813984748475 -0.69076658175818
 6  13.87953922572257 -0.06452216651665  0.30314672627263
 6  15.21618760976098 -0.27794687828783 -0.44978063056306
 6  15.46514278527853 -1.70069845814581 -0.91299312561256
 6  16.49131612431243  0.32475899319932  0.48930366506651
 6  17.87405499319932  0.29231296089609 -0.16193272027203
 6  18.77583800240024  1.20700877937794  0.66352960966097
 6  20.27287009140914  1.23289272177218  0.24611131713171
 6  20.38840168596860  2.01763906900690 -1.02919761566157
 6  21.14097916491649  1.56440814071407  1.29061300130013
 1 -4.12611297479748  3.39720297169717  1.46043213901390
 1 -10.14359648294830  3.90100237473747 -0.47285181138114
 1 -10.38327275137514 -2.65639117421742 -0.91578939833983
 1 -2.59295658285829 -1.01522172487249  2.07042353305330
 1 -2.24532799909991  1.67228929002900  1.07607125612561
 1 -1.73763685008501  1.13287239363936  3.39408974637464
 1 -3.11648875797580  2.23415263806381  3.42183020522052
 1 -3.28728152865287  0.50372552685269  3.69565125032503
 1 -1.82210732973297 -1.59377004780478 -0.29202720982098
 1 -1.87650401940194 -0.07361974217422 -0.87094382898290
 1 -0.24527995669567  0.71941152845285  0.69757362036204
 1 -0.26484490479048 -1.12694346094609  1.27136059435944
 1 -5.52538671637164  6.63136064806481  0.32654248554855
 1 -5.34143561486149  6.13559644104410  2.02275428792879
 1 -4.24015886048605  5.63941820982098  0.92732346494649
 1 -9.66735699549955  5.85794917691769 -0.38476982968297
 1 -9.09653871757176  8.16514623562356  0.46665644134413
 1 -7.39307723982398  7.44155099149915  1.21824078437844
 1 -11.83633410641064  3.17734688178818 -1.99493532503250
 1 -13.18767606530653  1.89731847424742 -1.92663839203920
 1 -12.71705273797380  2.77603493759376 -0.46333677317732
 1 -12.69748171307131 -1.68714963776378 -1.06947044794479
 1 -13.29034133323333  0.03853114261426 -1.69723547794779
 1 -12.96899209840984 -1.88821248334833 -3.73608456655665
 1 -12.22343274897490 -0.27382585388539 -3.81823080148015
 1 -11.28644348374837 -1.69580060726073 -3.07071534973497
 1 -8.85509012761276 -5.22498899969997 -1.80127619061906
 1 -8.11016540174017 -5.90402635593559 -0.50346030113011
 1 -9.38775295429543 -4.92963141154115 -0.19460172887289
 1 -3.21892941144114 -3.35299190479048 -0.19256699479948
 1 -1.41576496409641 -4.49486169956996  3.18028974657466
 1 -3.00373681098110 -5.61213073797380  3.63919495719572
 1 -1.92632315281528 -6.30449123392339  2.55401876297630
 1  2.74602265706571 -1.52288891169117 -1.61903335203520
 1  2.80191663296330  0.16490457525753 -2.10187124462446
 1  4.22750323702370 -0.61432984678468  0.54202560276028
 1  4.11595690719072  1.31616715941594 -2.73152363806381
 1  5.30445737793779  2.35599602350235 -1.82367980638064
 1  5.91494106260626  1.08069926082608 -2.99649590649065
 1  6.63935211911191  1.75125510611061 -0.13598398449845
 1  6.42480035213521 -0.07709504620462  0.87472366786679
 1  7.40157228002800 -0.97614828782878 -1.39004376157616
 1  7.79863242174217  0.57801690469047 -1.86806762966297
 1  8.87390343464346  0.85407490499050  0.56984941304130
 1  8.87187030783078 -0.95146349904991  0.63533965736574
 1  10.23229786158616  0.16416256405641 -1.85836099409941
 1  9.16583619271927 -2.15088337183718 -1.99579796169617
 1  10.87691683228323 -2.10874427372737 -1.97438279637964
 1  9.76490868796880 -2.58126224092409 -0.50851824552455
 1  11.36281792339234  0.93996042944294  0.12929069986999
 1  11.28183577907791 -0.79103040064006  1.03492981308131
 1  13.00154810731073 -1.44449186848685 -0.97989026052605
 1  12.56080191009101  0.34125906190619 -1.50453478717872
 1  13.78325974627463  0.96924228752875  0.66334116281628
 1  13.68311662226223 -0.64853123202320  1.27647002100210
 1  15.26618702010201  0.41580497749775 -1.27163843264326
 1  15.43675747254725 -2.26694603580358 -0.04561269676968
 1  14.47884952935294 -1.91258577857786 -1.60353172667267
 1  16.37106538613861 -1.99620051705171 -1.49826633993399
 1  16.10958423192319  1.24180251395140  0.79683559985999
 1  16.74240831863186 -0.43398968376838  1.36563505820582
 1  18.00008674637464 -0.90339685368537 -0.15624582018202
 1  17.85628293789379  0.82297119121912 -1.27110285388539
 1  18.39693875077508  2.12340360836084  0.75570751755176
 1  18.62850881338134  0.98981382088209  1.82046529202920
 1  20.54057388968897  0.07247824542454 -0.06979108690869
 1  20.64927174567457  3.12779355585559 -0.62460464516452
 1  21.46669046984698  1.78212935503550 -1.66511449264926
 1  19.52309070667067  1.68982927312731 -1.78308669306931
 1  21.22125597909791  0.96788242914291  2.26371003980398
 1  22.22957084988499  1.39281975267527  1.05557221082108
 1  21.11129120762076  2.70750686788679  1.53221035773577

