%nproc=4
%Mem=2GB
# td=(NStates=1) CAM-B3LYP/6-31G(d,p) 

TD

0 1
12 -7.15582615561556  0.59628837693769  0.03546123352335
 6 -4.88809342734273 -1.96656783518352  0.61479801250125
 6 -4.84903483238324  2.83368181548155  1.06392275717572
 6 -9.43108784428443  3.11454695019502 -0.47216007570757
 6 -9.55462577627763 -1.77615312631263 -0.84286071517152
 7 -5.17065048964897  0.45455527362736  0.75742616091609
 6 -4.37144685078508 -0.73226304830483  0.85951397459746
 6 -2.92138114351435 -0.38731815751575  1.27728808300830
 6 -3.01596503490349  1.11801446974697  1.73616434713471
 6 -4.45622261716172  1.53423417221722  1.14713174307431
 6 -3.01934701680168  1.24934722282228  3.29700110901090
 6 -1.82851631263126 -0.50916617801780  0.08146210451045
 6 -0.46964438703870 -0.27613196039604  0.57822195149515
 6  0.51556269346935 -0.58599211211121 -0.50984636513651
 8  0.21780302040204 -0.95450085768577 -1.66554288598860
 8  1.81325313581358 -0.41128852525253 -0.16235302420242
 7 -7.18574902280228  2.63063865366537  0.28581727722772
 6 -6.04022330133013  3.39894086988699  0.70561409500950
 6 -6.44228148124812  4.68569285868587  0.73968465566557
 6 -7.73515622262226  4.80505113661366  0.34377276857686
 6 -8.18423269486949  3.48827802310231 -0.02641009470947
 6 -5.47269522622262  5.83996646254626  1.08987374787479
 6 -8.59401719931993  6.00006103980398  0.16112309770977
 6 -8.42828671997200  7.19724584318432  0.87930418021802
 7 -9.13610588318832  0.67087994909491 -0.56353038673867
 6 -9.82068832853285  1.84417437053705 -0.70067639173917
 6 -11.21125022162216  1.46175451455145 -1.22224394389439
 6 -11.26780918481848  0.12458782288229 -1.30890960496050
 6 -9.95469114981498 -0.44549652395240 -0.87821283738374
 6 -12.25433425712571  2.47381795279528 -1.47860463526353
 6 -12.49645419171917 -0.76793420352035 -1.68625943444344
 6 -12.35561304970497 -1.27558997019702 -3.11253637223722
 7 -7.23930339863986 -1.39918953255326 -0.15050972797280
 6 -8.27398763856386 -2.19886505860586 -0.54873982918292
 6 -7.87449359495950 -3.63918218571857 -0.51243852115212
 6 -6.49115299939994 -3.56311064806481 -0.16244797669767
 6 -6.16088868526853 -2.20262854415442  0.14773757795780
 6 -8.62200966836684 -4.81008385078508 -0.91475995439544
 6 -5.31977644794479 -4.39683356685669  0.22751562416242
 8 -5.11048988688869 -5.59813429682968  0.08644567526753
 6 -4.15996957635764 -3.36486227602760  0.57600746604660
 6 -3.66876750765077 -3.68238345964596  1.88783915681568
 8 -3.67712931353135 -2.99730646684668  2.96763944504450
 8 -2.86174736843684 -4.78090281268127  1.89214779567957
 6 -2.15700628852885 -5.21729595869587  2.98625356085609
 6  2.68542105380538 -0.54977277187719 -1.10895209560956
 6  4.06213830283028 -0.42582075837584 -0.57072722172217
 6  5.09290277467747  0.29347561296130 -0.91526129882988
 6  5.13621204420442  1.18546119541954 -2.18142230753075
 6  6.48161249404941  0.34281613181318 -0.19272575777578
 6  7.53406094399440 -0.21442178907891 -1.00043699419942
 6  8.95941781438144 -0.23224835523552 -0.10628244104410
 6  10.22455307980798 -0.52328940064006 -0.97122809330933
 6  10.22255895609561 -2.00887182328233 -1.42503596859686
 6  11.50014289118912 -0.32930671147115 -0.04691382278228
 6  12.87170207790779 -0.52833688478848 -0.73647367026703
 6  14.07291676007601 -0.04447565036504  0.10524759225923
 6  15.41953807870787 -0.20865459455946 -0.50301854165417
 6  15.85086675557556 -1.59043667746775 -0.92847246494649
 6  16.43804791069107  0.37389174917492  0.37276178337834
 6  17.87165175457546  0.52854425282528 -0.13759957455746
 6  18.76817718721872  1.31805002200220  0.77493792679268
 6  20.24606327552755  1.28058839233923  0.23793855705571
 6  20.37601895569557  2.14304260146015 -1.05009600230023
 6  21.21953288408841  1.96866980328033  1.30514587798780
 1 -4.08214969946995  3.58315383678368  1.44310889778978
 1 -10.11314170687069  3.77219805480548 -0.51538693019302
 1 -10.29200248964897 -2.58070741154115 -1.26909356155616
 1 -2.50019647654765 -1.15379369326933  1.99442013321332
 1 -2.26772037723772  1.61922550515051  1.40568121852185
 1 -2.12598705620562  0.75554600750075  3.75536925042504
 1 -3.16720178017802  2.36674073157316  3.36355852125212
 1 -3.95692913561356  0.59699438343834  3.51451386418642
 1 -1.96940942584258 -1.53696365676568 -0.28413232243224
 1 -2.01913358585859  0.13299054945495 -0.70611065066507
 1 -0.37840135753575  0.79046366026603  0.99551995109511
 1 -0.23103090509051 -0.92517703290329  1.64635859105911
 1 -5.80571934733473  6.85329397349735  0.74005971517152
 1 -5.36533352275227  5.87094045714571  2.19644594169417
 1 -4.31217517351735  5.36797796419642  0.64632780838084
 1 -9.32173422592259  5.80349649774977 -0.61718194639464
 1 -9.04521573747375  8.14492523142314  0.71866148794880
 1 -7.75598506430643  7.42689908940894  1.67068545404540
 1 -11.76243034813481  3.36041636763676 -2.12566557125713
 1 -13.22825249444944  2.12787667886789 -2.15810700220022
 1 -12.50325205630563  2.98300695539554 -0.59753099709971
 1 -12.70034481288129 -1.67599704480448 -0.98918387328733
 1 -13.35434415331533  0.14026728992899 -1.55059058655866
 1 -13.25405175777578 -1.92173685988599 -3.52817270177018
 1 -12.14697826202620 -0.48662319991999 -3.95014851055105
 1 -11.56978325762576 -1.91380624772477 -3.25073369336934
 1 -8.50384998799880 -4.87133787668767 -2.02518578267827
 1 -8.04888425322532 -5.89899990419042 -0.50521013401340
 1 -9.84450433533353 -4.73605862716272 -0.54227605020502
 1 -3.40014070997100 -3.31395464616462 -0.23569884138414
 1 -1.51335950245025 -4.45117155685569  3.33984689999000
 1 -2.66264587318732 -5.61519313691369  3.82029486838684
 1 -1.56117422892289 -6.02655192839284  2.70787474037404
 1  2.72542184628463 -1.65113694959496 -1.34296826182618
 1  2.62808028562856  0.24596887648765 -1.82715586778678
 1  4.12639354495450 -1.11028324352435  0.35108832483248
 1  4.11495045854585  1.27403611401140 -2.60266863656366
 1  5.53971938363836  2.10179043794379 -1.98149461766177
 1  5.55332263986399  0.71045215271527 -2.86929566056606
 1  6.95646770967097  1.39020302030203  0.29430207300730
 1  6.44493861326133 -0.23599163656366  0.89376909360936
 1  7.36267365206521 -1.05123435863586 -1.47622894649465
 1  7.87469990589059  0.40161336943694 -2.01160408400840
 1  8.99932198379838  0.71598948394840  0.46165379757976
 1  8.91248973767377 -1.09523502970297  0.57139500320032
 1  10.12965051645164  0.34508704640464 -1.59165405490549
 1  9.16264124962496 -2.33994197069707 -1.86204212901290
 1  10.93280583628363 -2.24211099499950 -2.35545978987899
 1  10.26486937293729 -2.77163910591059 -0.63234267396740
 1  11.30558823972397  0.66940917111711  0.55548703620362
 1  11.39881293469347 -1.14971093239324  0.87417803940394
 1  13.00725404430443 -1.58358651985199 -1.17814548214821
 1  12.76262001450145 -0.02276158515852 -1.67827118841884
 1  13.75990742744274  1.00867342334233  0.31909925292529
 1  13.91192394549455 -0.46516612131213  1.14814133063306
 1  15.32115540404040  0.36854633963396 -1.46060041804180
 1  15.78111555445545 -2.24571486358636 -0.01246270017002
 1  15.34690774147415 -2.17261963756376 -1.69219663476348
 1  16.82273190259026 -1.56116164106411 -1.43567503700370
 1  16.00996619731973  1.38734656835684  0.68706525082508
 1  16.24359880708071 -0.22615179027903  1.39755251645164
 1  18.45955689438944 -0.40794734213421 -0.26443978437844
 1  17.78865593009301  1.29226654555456 -1.05962953875388
 1  18.28161895449545  2.43679783748375  0.98818682398240
 1  18.66563372367237  0.94771895289529  1.67763776407641
 1  20.54729964266427  0.14692084028403 -0.06776971297130
 1  19.93491759835984  3.09370293219322 -0.91293488688869
 1  21.38395264736474  2.09297595039504 -1.33246460976098
 1  19.67597150155015  1.66891870267027 -1.83888085708571
 1  21.23002897809781  1.45278338743874  2.13833345054505
 1  22.21790349664967  1.97145837553755  0.89537450375038
 1  20.90989071897190  2.89512959625963  1.47432787328733

