%nproc=4
%Mem=2GB
# td=(NStates=1) CAM-B3LYP/6-31G(d,p) 

TD

0 1
<<<<<<< HEAD
12 -7.16110668366837  0.61575032313231  0.13102078947895
 6 -4.86154077207721 -1.88782996139614  0.56624315701570
 6 -4.94757468636864  2.78273672097210  1.16402276717672
 6 -9.48409314481448  3.15080057555756 -0.46680954065407
 6 -9.50517083078308 -1.71809732073207 -0.93943037213721
 7 -5.05374879947995  0.47729754785479  0.74526494479448
 6 -4.29187889398940 -0.65625544754475  0.86718474167417
 6 -2.94636364176418 -0.31315074077408  1.34137449164916
 6 -3.02986642504250  1.10653332163216  1.80695142584258
 6 -4.38690568546855  1.55394614341434  1.21334836473647
 6 -3.11906698879888  1.22919520762076  3.39126053495350
 6 -1.94433789478948 -0.53320858225823  0.18525248354835
 6 -0.42390981358136 -0.49853420062006  0.66915104440444
 6  0.54568570577058 -0.74063757665767 -0.48578395889589
 8  0.26466770687069 -1.00929633723372 -1.68030436213621
 8  1.82825463596360 -0.56173356975698  0.00743395449545
 7 -7.16446689458946  2.49647523732373  0.31432012751275
 6 -6.08808808780878  3.30860183598360  0.80867440104010
 6 -6.44384163726373  4.72472676207621  0.80928161536154
 6 -7.69922262926293  4.79170980248025  0.19798819011901
 6 -8.13911818341834  3.43970316561656 -0.04835228892889
 6 -5.57249520622062  5.90271273717372  1.12697745824582
 6 -8.44217201480148  5.99622065576558 -0.00336335093509
 6 -8.53078696999700  7.12260837943794  0.76810306010601
 7 -9.14916718931893  0.67252011311131 -0.53073710741074
 6 -9.97102336203620  1.83432338543854 -0.62633895799580
 6 -11.26336543314331  1.38350668976898 -1.08636035553555
 6 -11.27368977287729  0.01103646774677 -1.16171488548855
 6 -9.98769445014501 -0.41616359065907 -0.90398541464146
 6 -12.34133295699570  2.38007857885789 -1.53014978977898
 6 -12.44649919621962 -0.77375478557856 -1.78751956045605
 6 -12.44774226262626 -0.88748115931593 -3.25398051665167
 7 -7.20639010731073 -1.29905951955196 -0.20391506850685
 6 -8.20339057885789 -2.18569374147415 -0.55250020522052
 6 -7.78591473707371 -3.54770303780378 -0.57748502580258
 6 -6.42589647374737 -3.43788812581258 -0.20373210511051
 6 -6.16859945634563 -2.08795707700770  0.09557236143614
 6 -8.70727819521952 -4.74119696209621 -0.96900537893789
 6 -5.28403287358736 -4.29209309280928  0.09254212681268
 8 -5.19083792169217 -5.56257074047405  0.10757778847885
 6 -4.20493407280728 -3.26656244604460  0.57939780508051
 6 -3.58433906480648 -3.78385360666067  1.87532790569057
 8 -3.76607820842084 -3.21544828102810  2.98188086918692
 8 -2.50123131683168 -4.66177089948995  1.63436201710171
 6 -2.06628721662166 -5.14611884098410  2.92107704320432
 6  2.79486199789979 -0.61252904750475 -1.10969216961696
 6  4.13149523852385 -0.47977615391539 -0.53995414441444
 6  5.16106959135914  0.25949221462146 -0.99638941164116
 6  5.05457388038804  1.08651130043004 -2.26369053435344
 6  6.54727906070607  0.32075392559256 -0.21521800700070
 6  7.74070160806081 -0.26983733063306 -0.90520747124712
 6  8.96402827542754 -0.12225735613561 -0.14838665146515
 6  10.12405302980298 -0.59569664136414 -0.89706067656766
 6  10.06234293449345 -2.02538347444744 -1.32967643264326
 6  11.46588946584659 -0.36417019781978  0.12001286988699
 6  12.85171007870787 -0.53303735483548 -0.64891491439144
 6  13.94429389778978 -0.14979618241824  0.26533360086009
 6  15.41082720762076 -0.37136086518652 -0.41533977377738
 6  15.64398606750675 -1.74654228802880 -0.64157377507751
 6  16.52576668256826  0.38163252325233  0.43556806400640
 6  17.82371696109611  0.66534793319332 -0.32121793639364
 6  18.77567793729373  1.32934115111511  0.64670510351035
 6  20.29833850305030  1.51817215071507  0.17206196939694
 6  20.43209456325633  2.16672496969697 -1.33543453615362
 6  21.15252618341834  2.03925686198620  1.16930229362936
 1 -4.33146463096310  3.51883740514051  1.61719630653065
 1 -10.28139853255326  3.96677751275128 -0.70417580908091
 1 -10.29536282568257 -2.40597993879388 -1.34231088328833
 1 -2.61173763066307 -0.74926324022402  2.24158484968497
 1 -2.36274988018802  1.83555713831383  1.74958560896090
 1 -2.30578503600360  0.87806825972597  3.89228294179418
 1 -3.14435949594960  2.28450250775078  3.59586175157516
 1 -4.02210565326533  0.71090577457746  3.68110052285228
 1 -2.13097558245825 -1.66733669406941  0.04271036183618
 1 -2.10476214871487  0.31753900430043 -0.66573661326133
 1  0.01935841844184  0.40731534543454  1.21361176027603
 1 -0.06200400240024 -1.37461197639764  1.50013396859686
 1 -6.01771054645465  6.83821246534653  0.74624033323332
 1 -5.37819480888089  6.14576793989399  2.16570286738674
 1 -4.50336429242924  5.77727889428943  0.89855303090309
 1 -9.13373542604261  6.00648679677968 -0.88172840104010
 1 -9.06900811671167  7.96440717961796  0.48789841164116
 1 -7.89418888468847  7.10762716221622  1.68604699019902
 1 -12.15287939303930  2.90890121612161 -2.62605561026103
 1 -13.14538420762076  1.96512040324032 -1.76197738923892
 1 -12.45252698379838  3.18437709240924 -0.58982022602260
 1 -12.55514029242924 -1.87694713981398 -1.38136309120912
 1 -13.26289500840084 -0.21142787958796 -1.44433996149615
 1 -13.41984833743374 -1.31133581978198 -3.41344122862286
 1 -12.38658222242224 -0.05593013061306 -3.90479397509751
 1 -11.54414069336934 -1.80796566366637 -3.46628524852485
 1 -9.31669127212721 -4.78405914881488 -1.90953421752175
 1 -8.21631099589959 -5.61684168836884 -0.94004361736174
 1 -9.60699058395840 -5.03983900520052 -0.32522434503450
 1 -3.18647934383438 -3.35527877857786 -0.04717998949895
 1 -1.38077624412441 -4.29445588528853  3.34029694499450
 1 -2.80909051765176 -5.38494011161116  3.51890472937294
 1 -1.46122423392339 -5.83400267346735  2.61501545444544
 1  2.56012531663166 -1.64924676057606 -1.57525149014901
 1  2.54294177177718  0.05047932753275 -1.92990614281428
 1  3.99224012961296 -1.05712792799280  0.30199341534153
 1  3.92111107460746  1.05745445584558 -2.70331870157016
 1  5.13177858955896  2.17003726262626 -2.18411487968797
 1  5.69456676427643  0.89718082558256 -2.96164489548955
 1  6.67782984588459  1.50342434243424 -0.12410976817682
 1  6.53692781218122 -0.23631166856686  0.66019573627363
 1  7.34153153785379 -1.23786302150215 -1.23972529612961
 1  7.94884732063206  0.35593880198020 -1.95619854345435
 1  8.99783183478348  0.99795768076808  0.03311094329433
 1  8.96329481818182 -0.71338684488449  0.65465332903290
 1  10.46678422982298 -0.02799026132613 -1.65027991749175
 1  9.41757674317432 -2.01682965946595 -2.44682060686069
 1  10.94368692439244 -2.65662244614461 -1.60808505240524
 1  9.65248813481348 -2.44463640564056 -0.23461290099010
 1  11.46606428732873  0.52796502670267  0.58286977447745
 1  11.41993504690469 -1.11453741504150  0.87749837143714
 1  12.88903222212221 -1.56191435263526 -0.98470613821382
 1  12.89985373787379  0.09038972997300 -1.65519888118812
 1  13.82194363106311  1.16426898289829  0.45603294629463
 1  14.09525227832783 -0.59206881158116  1.31189770627063
 1  15.49325261376137  0.31071055605561 -1.19540389838984
 1  15.65471291419142 -2.26421671377138  0.25096364246425
 1  14.76610966166617 -2.04384676027603 -1.25037245234523
 1  16.49988961836184 -1.94312983788379 -1.39172064156416
 1  16.09066426712671  1.25885371907191  0.93939048334833
 1  16.84513896109611 -0.45661483658366  1.33849661086109
 1  18.25609654835484 -0.30407695509551 -0.75988932933293
 1  17.53630069456946  1.07434475337534 -1.12567614341434
 1  18.24788558115812  2.15512967066707  0.95014301960196
 1  18.80154731503151  0.74018819981998  1.66479647994800
 1  20.61297621032103  0.63181933013301 -0.14217715371537
 1  20.24984909150915  3.35403896579658 -1.20867446084608
 1  21.48165241734173  1.92350900370037 -1.99709107240724
 1  19.58542244664467  1.86890870167017 -1.97904487348735
 1  21.59691566676668  1.31860997009701  2.07488710591059
 1  22.05866757305730  2.41479270897090  0.57724269056906
 1  20.70451018091809  3.12252233553355  1.54790523102310
=======
12 -7.11108168116812  0.67943669176918  0.12194988238824
 6 -4.90249486748675 -2.01006218461846  0.54374090679068
 6 -4.81748167706771  2.78336678397840  1.16362272717272
 6 -9.47386212171217  3.14171966746675 -0.32889574927493
 6 -9.55315562926293 -1.78547405840584 -0.72816924602460
 7 -5.11346477107711  0.30256007410741  0.62236265456546
 6 -4.33537324342434 -0.80824064606461  0.78291631483148
 6 -2.89264827022702 -0.44064349004900  1.15728608280828
 6 -3.07045048344834  0.95850851915192  1.67331806250625
 6 -4.47870486538654  1.35457620642064  1.22968999889989
 6 -2.87860294239424  1.13269555765577  3.09732114101410
 6 -1.90181364236424 -0.54916017741774 -0.04374041574157
 6 -0.38223564616462 -0.61803615081508  0.42259638893889
 6  0.57678881608161 -0.79401291419142 -0.72079746024602
 8  0.35343658375838 -1.10443585118512 -1.82562889458946
 8  1.82742455295530 -0.41398879527953 -0.30738752765277
 7 -7.08660910881088  2.58880447024702  0.28584728022802
 6 -6.11788106710671  3.34387536333633  0.73704723832383
 6 -6.37388464156416  4.75152944234423  0.66616730393039
 6 -7.70938364536454  4.88229886138614  0.27557594889489
 6 -8.16526079767977  3.53971316661666 -0.06571402510251
 6 -5.47207516421642  5.76120858675868  1.13741850235024
 6 -8.57491528912891  6.02548358205821  0.19929691509151
 6 -8.43580747204721  7.13279939853985  0.91515776557656
 7 -9.07662993559356  0.64552741384138 -0.57423145684568
 6 -9.89405566526653  1.85520547364736 -0.66817314141414
 6 -11.21980107670767  1.49350768986899 -1.08710042954295
 6 -11.21979438333833  0.10890625472547 -1.27442615661566
 6 -9.94162984368437 -0.39694166846685 -0.91203621972197
 6 -12.34514333803380  2.44812538353835 -1.44797157195720
 6 -12.49855440174017 -0.73607101720172 -1.69542035053505
 6 -12.37117460586059 -1.22779519071907 -3.17137225582558
 7 -7.28464793309331 -1.39098871247125 -0.01825650265026
 6 -8.31205144494449 -2.27939311141114 -0.40576553175318
 6 -7.81716786238624 -3.64442270977098 -0.39937721502150
 6 -6.50519440354035 -3.52333667066707 -0.06838857075708
 6 -6.19888248464846 -2.18341662296230  0.23975677987799
 6 -8.71232870027003 -4.78776161856186 -0.58412689108911
 6 -5.31331580188019 -4.40296417991799  0.28899177177718
 8 -5.09818865676568 -5.60066454985499  0.17577460816082
 6 -4.27012059145915 -3.32383817361736  0.61027089238924
 6 -3.57643827472747 -3.68059328062806  1.97028740164016
 8 -3.89515111571157 -3.10050678687869  2.95592827392739
 8 -2.64917611131113 -4.58720344274427  1.75354393529353
 6 -2.24375496339634 -5.12730695979598  2.97708264376438
 6  2.89273178487849 -0.63489128372837 -1.35901710211021
 6  4.21157324632463 -0.30276845314531 -0.67785793479348
 6  5.17934141854185  0.42336860226023 -1.06689646234623
 6  5.03538196119612  1.33263591289129 -2.35771993729373
 6  6.40170450325032  0.62594444464446 -0.27619410461046
 6  7.57238477637764  0.08923857695770 -1.06620357085709
 6  8.92340421302130  0.08285315491549 -0.31113292609261
 6  10.21707233173317 -0.44862193389339 -0.93872484298430
 6  10.10553725392539 -1.90241117721772 -1.43986745174517
 6  11.36841971887189 -0.25977975877588 -0.03417254865487
 6  12.77737264496450 -0.49010306140614 -0.62288231113111
 6  13.90225969436944  0.07700649784979  0.21502857035704
 6  15.30980710561056 -0.10275400450045 -0.45481372117212
 6  15.70354202310231 -1.56998463226323 -0.89719933763376
 6  16.37338144404440  0.43110747074707  0.48981348854885
 6  17.81287587698770  0.60686208460846 -0.09784559915992
 6  18.83042341184118  1.25357357435744  0.92859329232923
 6  20.33247191639164  1.18976931043104  0.41422618581858
 6  20.62683403720372  1.73536183338334 -1.06426741944194
 6  21.27695862666267  1.77752068836884  1.42585794919492
 1 -3.91294277877788  3.42151767316732  1.54937952485249
 1 -10.21810220292029  3.95603643864386 -0.25526091759176
 1 -10.36905019441944 -2.60386972777278 -1.15945259745975
 1 -2.68390484738474 -1.05174348824882  2.03782447364736
 1 -2.30301390659066  1.63851743434343  1.20827147754775
 1 -1.86496095359536  0.55151560446045  3.43572728622862
 1 -2.68232329232923  2.18830288778878  3.55746791219122
 1 -3.86669011171117  0.66646133013301  3.44303671647165
 1 -2.22567505240524 -1.67355731613161 -0.51348525772577
 1 -2.05243691619162  0.34321157155716 -0.71311135073507
 1  0.01466794939494  0.33023763766377  0.84056445554555
 1 -0.14779258125813 -1.50925544074407  1.22526648184818
 1 -5.63735251065107  6.82800144424442  0.55419112831283
 1 -5.56274326372637  6.18948231133113  2.12139843694369
 1 -4.31452540854085  5.61787295369537  1.06266944254425
 1 -9.47075912841284  6.27447359545954 -0.49571980018002
 1 -8.92409362526253  7.95826656555655  0.78515813761376
 1 -7.76156562236224  7.32034843434344  1.75215360086009
 1 -12.00810491559156  2.98999932593259 -2.32238524322432
 1 -13.30453012221222  1.96413030423042 -1.38776996849685
 1 -12.32266399749975  3.09109776447645 -0.72707395139514
 1 -12.38816359475948 -1.73924336943694 -1.21304625952595
 1 -13.35313403230323 -0.36697343414341 -1.54232976047605
 1 -13.34858121072107 -1.77898258445845 -3.43639352385238
 1 -12.35172873707371 -0.29765430303030 -3.88336183188319
 1 -11.53931021032103 -1.95641050815082 -3.36945556555656
 1 -9.25430503350335 -4.76361710461046 -1.51473473757376
 1 -8.44823418821882 -6.03740374457446 -0.57749736273627
 1 -9.63600348524852 -4.74167918921892  0.28031620902090
 1 -3.48261895779578 -3.53772702340234 -0.19318458995900
 1 -1.81030919741974 -4.27663410311031  3.64017693299330
 1 -3.06631624022402 -5.54034565216522  3.68270110901090
 1 -1.57257536903690 -5.88534780798080  2.78421237413741
 1  2.72736204030403 -1.67224906080608 -1.57616158115812
 1  2.59610708830883  0.11074535413541 -2.29469262146215
 1  4.07861876747675 -0.94878709390939  0.25945916191619
 1  4.02386134963496  1.47371608200820 -2.80673904360436
 1  5.63575898759876  2.42805306420642 -2.13241971017102
 1  5.71543885148515  0.96798790629063 -3.07586631763176
 1  6.57948001090109  1.65872987298730  0.05284792759276
 1  6.17484160356036 -0.16699473687369  0.47963768046805
 1  6.94761214591459 -0.80418965416542 -1.38100942454245
 1  7.71346378227823  0.60362357045705 -1.86382930653065
 1  8.99154120572057  1.11918980398040  0.09714734693469
 1  8.81587007570757 -0.38245375157516  0.62222008570857
 1  10.30064761616162  0.27207974567457 -1.67478236773677
 1  9.23842882838284 -2.19902787928793 -2.02957888268827
 1  10.85945850155015 -2.17431421532153 -1.97632187608761
 1  10.35097798379838 -2.68786072807281 -0.67756719641964
 1  11.34303198409841  0.91087331753175  0.15545703320332
 1  11.21178423182318 -0.83080904220422  0.92882350395039
 1  13.01699501840184 -1.56776493769377 -0.65178284588459
 1  12.71512526502650  0.00815150615061 -1.50545390669067
 1  13.85051648834884  1.04708726472647  0.48951629462946
 1  13.76707946104611 -0.55660526522652  1.19426594309431
 1  15.21193448194819  0.63437292229223 -1.27922228022802
 1  15.60999844274427 -2.43229352145215  0.03970251635164
 1  15.03442649334933 -1.89422179777978 -1.53120053515352
 1  16.63843347274728 -1.54926045094509 -1.44118558805881
 1  15.88152335303530  1.43716154985499  0.75205174947495
 1  16.32756720392039 -0.30139931503150  1.20602336353635
 1  18.37341828052805 -0.49701624902490 -0.40116345674567
 1  17.87427449194920  1.38354567346735 -0.97254082988299
 1  18.51307209980998  2.37720187788779  1.01281928722872
 1  18.68053521382138  0.76396057705771  1.86480648094810
 1  20.49149406210621  0.08337448564856  0.09650671467147
 1  20.11538564516452  2.70917447934794 -1.11128472187219
 1  21.79990424252425  1.76553320612061 -1.25437680098010
 1  20.24753865826583  1.15192700350035 -1.93168013701370
 1  21.02269824502450  1.21030914001400  2.44593421062106
 1  22.29372107840784  1.71098232793279  1.01746671297130
 1  21.09177890779078  2.83445352865287  1.74538497899790
>>>>>>> 8e03b5b5abfc0030b3aa597dc0de36371bfbd096

