%nproc=4
%Mem=2GB
# td=(NStates=1) CAM-B3LYP/6-31G(d,p) 

TD

0 1
<<<<<<< HEAD
12 -7.23170374337434  0.59099784788479  0.09295698309831
 6 -4.91706632463246 -1.91737291569157  0.45055158785879
 6 -4.76956688558856  2.79732818011801  1.14384074897490
 6 -9.40668540404040  3.06093158865887 -0.33738659835984
 6 -9.52612292599260 -1.66810232123212 -0.97266369546955
 7 -5.19727315191519  0.36768658675868  0.65355577387739
 6 -4.40990069616962 -0.74333415541554  0.80759878307831
 6 -2.97672667806781 -0.36940636633663  1.17509786398640
 6 -3.06214965336534  1.13747641594159  1.70262099279928
 6 -4.50894788968897  1.48300904970497  1.21275830573057
 6 -2.88037311941194  1.22362465056506  3.11152256115612
 6 -2.05593905490549 -0.42444770617062 -0.04984102580258
 6 -0.62467989058906 -0.36421076827683  0.42526665596560
 6  0.56171730893089 -0.67259077197720 -0.57115249574957
 8  0.32243348344834 -1.22251765936594 -1.68352468416842
 8  1.86666847734773 -0.41296869326933 -0.14707149604961
 7 -7.18863931183118  2.55679126892689  0.28540723622362
 6 -6.08516779577958  3.31900287608761  0.77716124972497
 6 -6.50708796189619  4.81903619301930  0.89626031323132
 6 -7.77966067306731  4.89420005150515  0.44445283658366
 6 -8.24409868146815  3.52376157145715  0.09425197149715
 6 -5.58595655235524  5.93727619351935  1.27541230173017
 6 -8.56056385398540  5.97380841454145  0.14142112751275
 6 -8.56600049134913  7.09578569716972  0.83702995279528
 7 -9.14592686528653  0.76868973007301 -0.49246328002800
 6 -9.88728498819882  1.82720267336734 -0.71251757585759
 6 -11.20776987358736  1.47674601370137 -1.28905062456246
 6 -11.24391679557956  0.15897126122612 -1.40232894689469
 6 -9.92020770147015 -0.41294326862686 -0.91817683378338
 6 -12.31382020572057  2.58229880088009 -1.41608838363836
 6 -12.38467301360136 -0.77164457455746 -1.83761456995700
 6 -12.22953044144414 -1.13545595679568 -3.36423154175418
 7 -7.25424489278928 -1.38356797039704 -0.24055873287329
 6 -8.23875411521152 -2.29807497959796 -0.55130008520852
 6 -7.88165431103110 -3.61741000850085 -0.50964824212421
 6 -6.53068695279528 -3.53540787778778 -0.07734946684668
 6 -6.24244684108411 -2.15582386368637  0.02625542974297
 6 -8.61643911131113 -4.83377622002200 -0.95130360876088
 6 -5.37469193949395 -4.38072195569557  0.26287916051605
 8 -5.06876571447145 -5.54248873227323  0.26947397809781
 6 -4.24283786318632 -3.33378916871687  0.59380924622462
 6 -3.61257188808881 -3.63703892519252  2.07888826172617
 8 -3.74989659025903 -3.03842057825783  3.11282396349635
 8 -2.73703489718972 -4.76282100450045  1.84422300320032
 6 -2.09325991389139 -5.04205843494349  3.05628056355636
 6  2.78905141684168 -0.73991178577858 -1.11866306670667
 6  4.16999908890889 -0.62539071537154 -0.51157130613061
 6  5.15150863526353  0.20635690109011 -0.96184595729573
 6  5.09769819281928  1.16631928122812 -2.05594976027603
 6  6.50083441624162  0.37423927412741 -0.23131961716172
 6  7.69498703660366 -0.27940828772877 -0.88296524702470
 6  8.93609548214821 -0.13666879727973 -0.07955976877688
 6  10.13909453395340 -0.52171924362436 -0.94442541304130
 6  10.21694839503950 -2.01925286138614 -1.25457892289229
 6  11.46008888578858 -0.18218199899990 -0.03310244164416
 6  12.82621752945295 -0.43972802390239 -0.82941296419642
 6  14.01626109450945 -0.10665186798680  0.09946701420142
 6  15.49858598349835 -0.25217894699470 -0.53039127892789
 6  15.79427109600960 -1.72292992679268 -0.93700331803180
 6  16.49608371427143  0.32132649264926  0.43760826802680
 6  17.98398298769877  0.44464586298630 -0.04723053765377
 6  18.86118648814881  1.28382659965997  0.77969840284028
 6  20.32137080628063  1.39465979947995  0.14470923412341
 6  20.41602295609561  2.17661595879588 -1.13848484118412
 6  21.15411634243424  2.11645458175818  1.21374673807381
 1 -4.23760524502450  3.61742726412641  1.40553514041404
 1 -10.02083247594759  3.80869170417042 -0.42195758725873
 1 -10.26082937233723 -2.38296763756376 -1.35576222842284
 1 -2.49218567546755 -1.12894120802080  2.00537122832283
 1 -2.22567617281728  1.56823040564056  1.18290894129413
 1 -1.87943240074007  0.66595704860486  3.42574628812881
 1 -2.83572863286329  2.28860291779178  3.60329249464947
 1 -3.70871431413141  0.64963964796480  3.66085849864987
 1 -2.11387387228723 -1.28282824322432 -0.71623553275327
 1 -2.29891156365637  0.57133438383838 -0.72963300290029
 1 -0.34016753415342  0.61414602850285  0.83938433753375
 1 -0.41525932793279 -0.99094360956096  1.31034498969897
 1 -5.89443821922192  6.90323896799680  0.79731544074407
 1 -5.57244423382338  5.91556491959196  2.30571686878688
 1 -4.52604656065607  5.44689585598560  1.34245742134213
 1 -9.16192824532453  6.07474362246225 -0.82821304950495
 1 -9.30917213311331  7.97014775367537  0.65233485528553
 1 -7.98364783058306  7.28748514801480  1.82802118761876
 1 -12.08985309040904  3.33575390139014 -1.90113311801180
 1 -13.24409407860786  1.86798068926893 -1.52944413591359
 1 -12.47571930303030  3.00341899659966 -0.42255349934994
 1 -12.32482726112611 -1.66339578467847 -1.11233618851885
 1 -13.36672539143914 -0.38480521732173 -1.65381090859086
 1 -13.03267962056206 -1.89217390359036 -3.59108899339934
 1 -12.31341490569057 -0.20943548114811 -4.16530002570257
 1 -11.26741302060206 -1.60072493959396 -3.42231085108511
 1 -9.01499110211021 -4.64237498039804 -1.97743100720072
 1 -8.09017838263826 -5.62126213041304 -0.98075768876888
 1 -9.37436732163216 -5.27817283858386 -0.36957878047805
 1 -3.38904960086009 -3.44128737943794 -0.19969524102410
 1 -1.56951511801180 -4.31509794949495  3.56522943824382
 1 -2.97456706530653 -5.34780639823982  3.83490632953295
 1 -1.46220433193319 -5.81886115931593  2.84360831373137
 1  2.54976428052805 -1.65645748164816 -1.59594355935594
 1  2.66791426902690 -0.04329004940494 -1.94052720492049
 1  4.45144605020502 -1.08712092729273  0.25719893589359
 1  4.11096005950595  1.31541025142514 -2.48320669036904
 1  5.58725413711371  2.01831209010901 -1.83213968216822
 1  5.72612992059206  0.78192930043004 -2.99770850185019
 1  6.63081514441444  1.43631763176318  0.17393003580358
 1  6.45129924932493 -0.13021105850585  0.82370208690869
 1  7.43596098079808 -1.36834606980698 -1.10986230983098
 1  7.97817025292529  0.35422863096310 -1.75292821642164
 1  8.90881293289329  0.80006789178918  0.24601223342334
 1  9.00466895559556 -0.61019652585258  0.87448531223122
 1  10.22798034943494 -0.06047350965096 -2.06535142464246
 1  9.27037202270227 -2.34595257175718 -1.79817574237424
 1  10.94228678437844 -2.35638242214221 -1.91479572347235
 1  10.07292017801780 -2.67974991699170 -0.31257069676968
 1  11.49195687658766  0.91551378157816  0.23432491999200
 1  11.48975202860286 -0.55694165546555  0.95501612321232
 1  12.81804512341234 -1.42962112331233 -1.09314698229823
 1  12.92147590009001  0.33842453345335 -1.71238459975998
 1  14.03366480318032  0.92224478047805  0.28620596359636
 1  14.11159391249125 -0.84270387508751  0.92158867536754
 1  15.39240252875287  0.35637512251225 -1.39462382038204
 1  15.78397584048405 -2.54432472457246 -0.12374382828283
 1  14.92928597929793 -2.19054142974297 -1.45928334343434
 1  16.68255788518852 -1.91581710661066 -1.48613008250825
 1  16.00528572927293  1.30996883058306  0.56202274657466
 1  16.41161560876088 -0.37342651775178  1.40211297249725
 1  18.50365130383038 -0.62416896429643 -0.22676601700170
 1  17.55646271077108  0.75852317121712 -1.08864244004400
 1  18.55284607720772  2.37727188488849  0.66718472377238
 1  19.03256041634164  0.79242342334233  1.73407340764076
 1  20.93981889458946  0.44611075927593 -0.00925386138614
 1  20.01627573417342  3.32467602950295 -1.21641523492349
 1  21.48353260536054  2.21412806560656 -1.30658202150215
 1  19.69407331173117  1.64804661546155 -1.86399336833683
 1  21.34522049724972  1.48324643374337  2.05694531173117
 1  22.14357606390639  2.47762899259926  0.78601356765676
 1  20.59853958385839  2.98238832213221  1.57530797129713
=======
12 -7.07649822282228  0.59632838093809  0.13730141754175
 6 -4.92155677367737 -1.95212639103910  0.67271380408041
 6 -4.64388431733173  2.78469691699170  1.21633799869987
 6 -9.28262299779978  3.14527002250225 -0.54070693039304
 6 -9.53076339003900 -1.74577008800880 -0.99914634373437
 7 -5.02573599819982  0.42340215831583  0.76891731003100
 6 -4.34029373547355 -0.73666348834883  0.92643066626663
 6 -2.92916192159216 -0.48105753145315  1.29351970617062
 6 -3.00357379577958  0.97702037033703  1.79743047374737
 6 -4.33067006190619  1.46165691449145  1.29532656255626
 6 -2.91905698779878  1.04810709880988  3.27665907480748
 6 -1.98841230223022 -0.52321758315832  0.09377333563356
 6 -0.43667108970897 -0.44062841004100  0.53343747304730
 6  0.42623376057606 -0.64259777267727 -0.54255963646365
 8  0.20944218431843 -1.07240264786479 -1.67837416911691
 8  1.71764357485749 -0.51825922232223 -0.18092488138814
 7 -6.98352880078008  2.63098868866887  0.32635133063306
 6 -5.85914519351935  3.33416439223922  0.70978451205121
 6 -6.27923517661766  4.78491278067807  0.70063075027503
 6 -7.64452715971597  4.86624725622562  0.26773516481648
 6 -7.99763403500350  3.42613180848085 -0.03562101580158
 6 -5.46573453015302  5.85059752565257  1.18364312481248
 6 -8.46189398699870  6.07458849254926  0.02496948234823
 6 -8.51885577687769  7.21299741834183  0.61328757855786
 7 -9.03291556415641  0.65572843394339 -0.66485051875188
 6 -9.82764902460246  1.77924787788779 -0.72045836993699
 6 -11.11858095469547  1.48917725682568 -1.14804652415242
 6 -11.21075347924792  0.13606897099710 -1.25901461546155
 6 -9.88586426712671 -0.39736171047105 -0.93914893099310
 6 -12.24295311901190  2.46782735373537 -1.32831960676068
 6 -12.29197374367437 -0.73833124322432 -1.67830863936394
 6 -12.21827931633163 -0.94922733393339 -3.19101422002200
 7 -7.28591806010601 -1.42858247184718 -0.20817549454945
 6 -8.26312655245525 -2.22114728682868 -0.67831278647865
 6 -7.83923006860686 -3.67292556005601 -0.49091636893689
 6 -6.53782766686669 -3.59939427642764 -0.08607033893389
 6 -6.24326692309231 -2.21220950225023  0.07282008620862
 6 -8.58740620802080 -4.85566840924092 -0.83629210761076
 6 -5.41010548084808 -4.34909879337934  0.18931180378038
 8 -5.13326216411641 -5.51845632903290  0.24193122382238
 6 -4.18992257165717 -3.40239602940294  0.58794866016602
 6 -3.61405203610361 -3.72483770507051  2.01745211811181
 8 -3.74000560116012 -3.11236797299730  3.01981466256626
 8 -2.75519671337134 -4.78372309470947  1.76785536643664
 6 -2.10658124602460 -5.04916914601460  3.02492742824282
 6  2.65356786848685 -0.75654344894489 -1.15833703410341
 6  4.07942003100310 -0.55892406870687 -0.50973112211221
 6  4.98129161356136  0.35032129752975 -0.88506827952795
 6  4.95985440844084  1.30860350965097 -2.01875604090409
 6  6.40792512531253  0.34596644684468 -0.13714019921992
 6  7.50574811271127 -0.17975832273227 -0.99317626812681
 6  8.85761763436344 -0.10874600500050 -0.30981279407941
 6  10.06823744824482 -0.50707777947795 -1.04331530203020
 6  9.99561626182618 -1.99125006110611 -1.59883334833483
 6  11.37494037093709 -0.31337511831183 -0.25954508590859
 6  12.72743765146515 -0.54112816391639 -0.83409343224322
 6  13.84835430383038  0.04603340054005  0.01761882938294
 6  15.29969609450945 -0.07764149324933 -0.51314955475548
 6  15.79403107200720 -1.49620725452545 -0.80975059275928
 6  16.32155626152615  0.57047140714071  0.43071757895790
 6  17.71711630103010  0.67199859825983 -0.20824663926393
 6  18.72875324482448  1.33744196119612  0.72141257425743
 6  20.21595026422642  1.24134446794679  0.39447421062106
 6  20.41926328012801  2.01830012721272 -0.97174816751675
 6  21.04839577037704  1.86884982128213  1.45060042344234
 1 -3.81212269676968  3.52924844624462  1.59118370527053
 1 -9.91569196189619  4.07547838283828 -0.79460485198520
 1 -10.28469175857586 -2.42503184398440 -1.37734438663866
 1 -2.56555301220122 -1.27945625952595  2.03944463566357
 1 -2.28425203040304  1.55827941054105  1.33759440984098
 1 -2.09397385488549  0.54101455435544  3.70482419591959
 1 -3.13860892089209  2.18604266176618  3.54890705610561
 1 -3.84180762346235  0.40419510351035  3.68772118491849
 1 -2.05276776167617 -1.62039199959996 -0.49395330453045
 1 -2.11229290179018  0.31052830323032 -0.56278631823182
 1 -0.20839435683568  0.60554516841684  0.87285768486849
 1 -0.30998880088009 -1.13635815101510  1.30966492169217
 1 -5.75219399479948  6.99109775387539  0.48575428462846
 1 -5.66435342474248  6.14819818291829  2.24604090119012
 1 -4.33378733473347  5.65730689708971  1.31039421502150
 1 -9.30750280278028  5.84041018911891 -0.66419664786479
 1 -9.15966718261826  8.00319105800580  0.40804042584258
 1 -7.84097356315632  7.51022742224222  1.49964835033503
 1 -11.87861196629663  2.86398672467247 -2.23201620632063
 1 -13.16571624082408  1.95785967716772 -1.36603779527953
 1 -12.35831756285629  3.40053870857086 -0.65787703170317
 1 -12.16362114051405 -1.79994944004400 -1.39819477437744
 1 -13.17845656455646 -0.10701743854385 -1.28685421292129
 1 -12.98670502310231 -1.62220690689069 -3.40341022552255
 1 -12.28084164836484  0.08364382678268 -3.81727522322232
 1 -11.04954123342334 -1.31516638373837 -3.45042366236624
 1 -8.96216581958196 -5.05391613451345 -2.00434369846985
 1 -8.17297666246625 -5.94146415061506 -0.50575018801880
 1 -9.71483136803680 -4.81934695599560 -0.37851967456746
 1 -3.38667936383638 -3.45632888358836 -0.18398366986699
 1 -1.67936610311031 -4.04523096279628  3.46618953425343
 1 -2.74619422802280 -5.50859247684769  3.81961480038004
 1 -1.04104221572157 -5.53907318051805  2.98777273017302
 1  2.58724802890289 -1.79153098899890 -1.52901686668667
 1  2.43846132373237 -0.14796051645164 -2.16546969916992
 1  4.24810571617162 -1.18546076127613  0.38947216321632
 1  3.84708367186719  1.59951866226623 -2.31351972167217
 1  5.58765417711771  2.31331159005901 -1.71574804300430
 1  5.30919822742274  0.82681378887889 -2.92545127612761
 1  6.72543460636064  1.45038903890389  0.14209685248525
 1  6.42767688708871 -0.41215925332533  0.71065078177818
 1  7.41557894259426 -1.17263649884989 -1.50326164976498
 1  7.44654709060906  0.56064927302730 -2.00719364296430
 1  8.82682473407341  1.02998088308831  0.04556218841884
 1  8.85998448714872 -0.60300580678068  0.55841370507051
 1  10.17581513291329  0.13497603530353 -2.06327121662166
 1  9.06282126762676 -2.29282725922592 -2.05073099789979
 1  11.10452300800080 -2.44347113101310 -1.90497474137414
 1  10.25192807880788 -2.51632357435744 -0.55788522822282
 1  11.42805048594859  0.73885611581158  0.16009749724973
 1  11.24790784418442 -0.98891485278528  0.81555217681768
 1  13.08248156705671 -1.49919808100810 -1.35936360396040
 1  12.69738349084908  0.30850154115412 -1.75199856115612
 1  13.58061949864986  0.95371792779278  0.10297764076408
 1  13.72618537163716 -0.49831943664366  1.05314183068307
 1  15.26756004450445  0.40549003400340 -1.43444780278028
 1  15.86099354225423 -2.11978227032703  0.01052959905991
 1  15.00973402410241 -1.92655503110311 -1.33455087018702
 1  16.70931056045605 -1.50210573547355 -1.35973744324432
 1  16.07481268196820  1.47840567426743  0.87984452875288
 1  16.38587303450345 -0.18581775687569  1.16003876507651
 1  18.17881882058206 -0.23567011441144 -0.42052539293929
 1  17.60208727322733  1.20408772767277 -1.16426000180018
 1  18.54774556715672  2.44127828552855  0.80541854715472
 1  18.47848500880088  0.92722690369037  1.82069206950695
 1  20.51949686238624  0.42028817701770  0.24247131113111
 1  19.98243234983498  3.02559612151215 -1.15112870627063
 1  21.45483973607361  2.07003365616562 -1.38884024732473
 1  20.14758866326633  1.42217402820282 -1.87717468646865
 1  20.99955593079308  1.32664077317732  2.33458307550755
 1  22.06093780008000  1.69836106580658  1.13811877817782
 1  20.58225795569557  2.91298138143814  1.77384782528253
>>>>>>> 8e03b5b5abfc0030b3aa597dc0de36371bfbd096

