%nproc=4
%Mem=2GB
# td=(NStates=1) CAM-B3LYP/6-31G(d,p) 

TD

0 1
<<<<<<< HEAD
12 -7.13982455545555  0.54205295339534  0.03730141754175
 6 -4.88663328132813 -1.97811899029903  0.50690722342234
 6 -4.77526745564557  2.77567601490149  1.09143550845084
 6 -9.43523825932593  3.12019751525153 -0.37282014171417
 6 -9.52356266996700 -1.69384489548955 -0.92347877697770
 7 -5.17824124872487  0.37963778187819  0.67234765306531
 6 -4.29767947404741 -0.76298612061206  0.72949097229723
 6 -2.87420642604260 -0.39783920962096  1.19320967516752
 6 -3.06499993839384  1.06413908220822  1.77266799749975
 6 -4.46793378827883  1.41544229302930  1.14998202810281
 6 -3.00216529862986  1.24707699579958  3.23748515741574
 6 -1.85382884388439 -0.63913917531753 -0.03869991169117
 6 -0.42766018861886 -0.51363571077108  0.52171630093009
 6  0.53733487068707 -0.78294180708071 -0.56939231973197
 8  0.29935117521752 -1.35070047764776 -1.63595992769277
 8  1.81128293879388 -0.38787618401840 -0.21776856575658
 7 -7.13470391829183  2.58577416721672  0.38071676717672
 6 -5.98353763276328  3.32589356515652  0.79430296389639
 6 -6.36478373147315  4.70914520392039  0.76270695789579
 6 -7.61004371137114  4.88878951045105  0.34958334963496
 6 -8.20462473407341  3.47296649194920 -0.00233768746875
 6 -5.46776473317332  5.93075554145415  1.18467322782278
 6 -8.44040183778378  6.05260629432943  0.09876686208621
 6 -8.52166605790579  7.25423154175418  0.71187743754375
 7 -9.12419469206921  0.68071093219322 -0.46735076877688
 6 -9.89430569026903  1.83167312041204 -0.76801312541254
 6 -11.18618771537154  1.50880922002200 -1.12026374587459
 6 -11.23120552445245  0.16173153725373 -1.23488220222022
 6 -9.97058273897390 -0.36545852015202 -0.79239425552555
 6 -12.22934175787579  2.50196076707671 -1.37665444024402
 6 -12.45603014931493 -0.73589099919992 -1.70206101460146
 6 -12.37402489088909 -1.01940435163516 -3.24979009760976
 7 -7.20283975227523 -1.42407202080208 -0.28811348834883
 6 -8.28707894769477 -2.25798097019702 -0.68466342154215
 6 -7.91620776637664 -3.69841810931093 -0.48089536683668
 6 -6.63777766186619 -3.56566090309031 -0.09021075297530
 6 -6.15534813121312 -2.29008729002900  0.09975277947795
 6 -8.75067253465346 -4.82230507290729 -0.80701918031803
 6 -5.40449491979198 -4.44194807830783  0.23698657125713
 8 -5.24249308720872 -5.63493797719772  0.19980701140114
 6 -4.18429200860086 -3.35939172897290  0.58194806010601
 6 -3.64684531543154 -3.77008222952295  1.92292266516652
 8 -3.83049465006501 -3.11450818701870  2.96260894199420
 8 -2.82141333503350 -4.76896161856186  1.86451503240324
 6 -2.20256084398440 -5.05376960606061  3.13444838033803
 6  2.78262077377738 -0.43006080068007 -1.25891709210921
 6  4.05066715571557 -0.37615579187919 -0.53812396139614
 6  5.08367185158516  0.42523878927893 -0.94152392509251
 6  5.09957838083808  1.41074372367237 -2.06551071637164
 6  6.49699403220322  0.46700855105511 -0.21857834303430
 6  7.70265780368037 -0.08836918381838 -1.03595054555456
 6  8.98072994559456 -0.05838096849685 -0.27024883768377
 6  10.23374399889989 -0.43827089878988 -0.94686565706571
 6  10.17881458165817 -2.00650158625863 -1.37103056805681
 6  11.46645952285229 -0.30443422422242 -0.10248938033803
 6  12.82400730843084 -0.53154720582058 -0.65347537043704
 6  13.99861933033303 -0.12717392019202  0.29500656815682
 6  15.36412253715372 -0.13577730683068 -0.49359759955996
 6  15.74535620452045 -1.71011864566457 -0.75146476417642
 6  16.48888299419942  0.36635099509951  0.45475998319832
 6  17.90578516791679  0.56939833823382 -0.14279009360936
 6  18.82782315181518  1.20481869886989  0.74359479247925
 6  20.28325699489949  1.42319265276528  0.22644740794079
 6  20.30868222202220  2.16440473767377 -1.11172216491649
 6  21.26959789058906  1.94577751405141  1.19529489288929
 1 -3.83362484698470  3.24713023442344  1.36600118701870
 1 -10.07444783748375  3.79669050405040 -0.43736912841284
 1 -10.52731602100210 -2.39992933373337 -1.23704035623562
 1 -2.71227768466847 -1.03650196409641  2.00578126932693
 1 -2.42534613981398  1.73500708330833  1.20069071947195
 1 -2.02481693919392  0.77255770867087  3.56724043754375
 1 -2.86121118111811  2.30740479797980  3.77855002040204
 1 -3.85953939663966  0.78339302330233  3.67796020882088
 1 -2.06433891879188 -1.47367732813281 -0.53965787498750
 1 -1.68561023352335  0.03771102150215 -0.87321736133613
 1 -0.01116463386339  0.25765037893789  1.07286768586859
 1 -0.37632543454345 -1.35584009920992  1.18949290449045
 1 -5.98554733013301  6.75582422652265  0.82956866606661
 1 -5.17900488988899  5.88387175027503  2.35428172527253
 1 -4.50674463046305  5.75378654505451  0.61318449404941
 1 -9.33110516301630  5.91395754385438 -0.69820004820482
 1 -9.28537975387539  8.07951869076908  0.60005962776278
 1 -7.69603906970697  7.54837123662366  1.41866025152515
 1 -12.10412451755176  3.13069339533953 -2.20190319501950
 1 -13.41812148134813  2.16503039423942 -1.41490268176818
 1 -12.37550928202820  3.22161081578158 -0.41090233423342
 1 -12.54953973237324 -1.50253969906991 -0.96393134803480
 1 -13.48693741264126 -0.21716845364537 -1.56074160166017
 1 -13.52111846444645 -1.46980166636664 -3.54274415891589
 1 -12.31802536673667 -0.05870040764076 -3.80874437013701
 1 -11.77656393569357 -2.10092495959596 -3.42249086908691
 1 -9.50424002700270 -4.75688643154315 -1.75988925302530
 1 -8.04941430623062 -5.81944194839484 -1.04769438243824
 1 -9.31690157505751 -5.21830685198520  0.33923210061006
 1 -3.43775447134713 -3.58430168086809 -0.20359563106311
 1 -1.47151531803180 -4.33510995069507  3.38761167646765
 1 -2.94085369396940 -5.11015263286329  3.95137797669767
 1 -1.81118923042304 -6.09639891309131  2.85331928482848
 1  2.65553485758576 -1.49300113601360 -1.62142610761076
 1  2.63693117071707  0.24968924852485 -2.27593074527453
 1  4.13488439403940 -1.02263447864786  0.24857807380738
 1  4.12345130863086  1.66701541194119 -2.52090045974597
 1  5.40910632233223  2.40436069496950 -1.77733420162016
 1  5.88166547414741  1.03804491199120 -2.89205793679368
 1  6.63631569446945  1.56476047604760  0.04090673347335
 1  6.31887600700070  0.02129409200920  0.60404012071207
 1  7.35372275697570 -1.08395763096310 -1.37194851845184
 1  7.94533696959696  0.10836404450445 -2.15525844944494
 1  9.26278833043304  0.84313219821982  0.05714334653465
 1  8.70590907960796 -0.76066157235724  0.60985884958496
 1  10.33847139853985  0.08868140584058 -1.85111000050005
 1  9.50388537403740 -2.05676365286529 -1.93117904270427
 1  11.01240379607961 -2.39614639853985 -2.04597884178418
 1  10.02816570257026 -2.51012295429543 -0.45412485218522
 1  11.41351903280328  0.90881311151115  0.32320380788079
 1  11.28594164756476 -1.06305226652665  0.77743836543654
 1  13.20865418431843 -1.66382454365437 -1.03154082168217
 1  12.88599235173517  0.12901359235924 -1.65598896019602
 1  13.67781921862186  1.13937649364937  0.42415975897590
 1  14.08806155925593 -0.51370097479748  1.34482099859986
 1  15.28853214171417  0.59951943694369 -1.37071142914291
 1  15.71233867676768 -2.08294858695870  0.28010655675568
 1  15.04607765846585 -2.05486786238624 -1.52436985208521
 1  16.87579720912091 -1.73192871777178 -1.20409187868787
 1  16.23258845954595  1.40310814451445  0.97482402670267
 1  16.66945139233923 -0.26501567666767  1.25988875007501
 1  18.41915285398540 -0.28555510291029 -0.45411875227523
 1  17.70996806130613  1.02953027192719 -1.07378095389539
 1  18.33218401100110  2.20034419211921  1.14263226852685
 1  18.84416157645765  0.54625880688069  1.58242824312431
 1  20.50182509520952  0.22453860206021  0.00974803880388
 1  19.86833093969397  3.15857941984198 -0.92565615901590
 1  21.35007926002600  2.10362701550155 -1.43530489378938
 1  19.71307521192119  1.59322113291329 -1.83373034203420
 1  21.13957993319332  1.57391550065006  2.22615223242324
 1  22.40298200450045  1.90518174787479  0.97480244654465
 1  20.85421515141514  2.97466755005501  1.30970141064106
=======
12 -7.18465903890389  0.56351509960996 -0.00298261086109
 6 -4.92619723772377 -2.01260243864386  0.54765129782978
 6 -4.84929485838584  2.83131157845785  1.12160852575258
 6 -9.32656739223922  2.97840333583358 -0.47713057275728
 6 -9.54185449914992 -1.83177868886889 -0.87574400350035
 7 -5.13522694729473  0.39442926102610  0.70852127042704
 6 -4.40673037913791 -0.72153197519752  0.89691771497150
 6 -2.93065207060706 -0.34704413011301  1.31631198539854
 6 -3.09755319371937  1.09372204050405  1.71434216491649
 6 -4.41905890079008  1.49904065286529  1.17078410831083
 6 -2.89348443054305  1.36214850295030  3.21205261416142
 6 -1.99664312531253 -0.66120138153815  0.21239519781978
 6 -0.47859528212821 -0.38384273147315  0.59987411671167
 6  0.58032917011701 -0.58672218511851 -0.50266564706471
 8  0.22024326442644 -0.86894230183018 -1.68185451715172
 8  1.87776958745875 -0.44574197059706 -0.15076186508651
 7 -7.09822026992699  2.61011660146015  0.21979067456746
 6 -6.02154143314332  3.40563153895390  0.80454398799880
 6 -6.41043829692969  4.74179846924693  0.89055974317432
 6 -7.67988069506951  4.89058969046905  0.41231962326233
 6 -8.19232350395040  3.49797899319932  0.06082862916292
 6 -5.47183514021402  5.79190165606561  1.28994375487549
 6 -8.59346714431443  6.07213824752475  0.26312329772977
 6 -8.51524541584159  7.14164028262826  1.02984923472347
 7 -9.13912618521852  0.61302416351635 -0.62724675837584
 6 -9.83471973167317  1.79889984308431 -0.84549087318732
 6 -11.13416251285128  1.38879721882188 -1.35963768326833
 6 -11.12949535343534  0.06123148724872 -1.42345105910591
 6 -9.93707938863886 -0.47647962226223 -0.97275229132913
 6 -12.21755057875787  2.41452202320232 -1.49551632643264
 6 -12.38037258355836 -0.81838924902490 -1.90880168866887
 6 -12.27636512491249 -1.08018042924292 -3.38835395399540
 7 -7.30325979427943 -1.41778139173917 -0.08087276427643
 6 -8.36511675147515 -2.33023819591959 -0.42417737293729
 6 -7.85837198279828 -3.69163743124312 -0.52709998729873
 6 -6.54755863996400 -3.52804714171417 -0.18191992389239
 6 -6.21597419381938 -2.20018830013001  0.04450725492549
 6 -8.73423089048905 -4.90354319671967 -0.76746522492249
 6 -5.30102457275728 -4.37985186868687  0.11348422102210
 8 -5.06547538543854 -5.55154963836384  0.13265029572957
 6 -4.19538311771177 -3.30282607240724  0.57174704000400
 6 -3.55407603850385 -3.66877209850985  1.94528490139014
 8 -3.78713031363136 -3.07078381458146  2.95768844994499
 8 -2.81100229392939 -4.80260498289829  1.87670625152515
 6 -2.32472306020602 -5.17123135223522  3.19394432993299
 6  2.96608912061206 -0.59510730533053 -1.07873907430743
 6  4.17884997399740 -0.28051622792279 -0.47393754275428
 6  5.15340882528253  0.50577684308431 -0.95414518721872
 6  5.00012843584358  1.25936858615862 -2.15877004230423
 6  6.49275360816082  0.58247009720972 -0.25713219841984
 6  7.68272581048105 -0.09430977787779 -0.99642659315932
 6  8.92230410301030  0.01864673427343 -0.20887270007001
 6  10.17289791429143 -0.49411648334833 -0.93303427392739
 6  9.91824852505250 -1.91901283738374 -1.43449691469147
 6  11.41458433533353 -0.22502628342834 -0.04470360176018
 6  12.78453336103610 -0.57945199629963 -0.57097712061206
 6  13.98890835923592 -0.09274047684768  0.26096316381638
 6  15.40446657155715 -0.26496022512251 -0.44287252705271
 6  15.74300596949695 -1.81934956875688 -0.63943356105611
 6  16.42701680758076  0.43689804980498  0.42064657185719
 6  17.92922751215121  0.38916031443144 -0.26273208780878
 6  18.85211558105811  1.29856807380738  0.62089252225223
 6  20.30682935213521  1.29296963046305  0.15376013921392
 6  20.32570392419242  2.00877917511751 -1.28247924062406
 6  21.29230016081608  1.89772270857086  1.07962332573257
 1 -4.10024150865087  3.54766028742874  1.50047463436344
 1 -10.16303669636964  3.73278411341134 -0.49178456995700
 1 -10.36974026342634 -2.61234057485749 -1.47337398959896
 1 -2.49423588048805 -1.04786310021002  2.14060475167517
 1 -2.35788939413941  1.67544112671267  1.16227687808781
 1 -1.85089954745475  1.33713416631663  3.74272798629863
 1 -2.93403846384638  2.38920297779778  3.30066223162316
 1 -3.76247969066907  1.00929561356136  3.80280269306931
 1 -2.04791727662766 -1.58983894429443 -0.30360426962696
 1 -2.13658533103310 -0.14105685528553 -0.86524656425643
 1 -0.51137465486549  0.57254186808681  0.98295869496950
 1  0.03276547454745 -0.92368688388839  1.30294424962496
 1 -5.80816959235924  6.80526917101710  0.76189189838984
 1 -5.50707769716972  6.07018038113811  2.42869916701670
 1 -4.46554051005101  5.59514068046805  1.06935011061106
 1 -9.39581163366337  6.00373652175218 -0.47011723992399
 1 -9.23547476337634  7.94917565646565  0.79926954875488
 1 -7.91062052785279  7.12546894639464  1.79442782828283
 1 -12.09621372647265  3.02117244324432 -2.55077808250825
 1 -13.06082575177518  1.71579547074708 -1.49535072657266
 1 -12.08562029312931  2.85421407610761 -0.46044728872887
 1 -12.21984676307631 -1.83143258835884 -1.40298525342534
 1 -13.29998871777178 -0.35691242804280 -1.59865539303930
 1 -13.05290164276428 -1.57849253545355 -3.68605849034903
 1 -12.38274183838384 -0.10659519711971 -3.82158565426543
 1 -11.43533981328133 -1.39738460556056 -3.63800242024202
 1 -8.89084868786879 -5.03193393629363 -1.89480274437444
 1 -8.02085144994499 -5.66208621282128 -0.46332594559456
 1 -9.70021990689069 -4.81676669796980 -0.17892971557156
 1 -3.43614431033103 -3.34085733643364 -0.26042131363136
 1 -1.88065623212321 -4.14287072677268  3.48680159545955
 1 -3.18584819341934 -5.25984760236024  3.80541338023802
 1 -1.64869298079808 -5.89135840904090  2.88768272117212
 1  2.84114341844184 -1.69607144304430 -1.41638560356036
 1  2.52292977057706  0.03951823142314 -1.93141629382938
 1  4.30055096069607 -0.49944215941594  0.56787000300030
 1  3.91444040754075  1.35755446584658 -2.48241661136114
 1  5.30090550225022  2.27413767266727 -2.09630609880988
 1  5.59819712731273  0.63260436793679 -2.86417514851485
 1  6.57797986088609  1.73513751375137 -0.18747610481048
 1  6.48678279767977  0.08820078267827  0.68621833853385
 1  7.28085547024702 -1.14002323752375 -1.20654197779778
 1  7.84728716461646  0.35736894499450 -1.92162508610861
 1  8.86462851445144  1.23300118511851 -0.04826719451945
 1  8.73797228592859 -0.56932243844384  0.68844670837084
 1  10.31612916431643  0.20419295699570 -1.74694958445845
 1  8.97861284678468 -1.86933490999100 -2.16891281608161
 1  10.87887044274427 -2.29106589048905 -1.98344258815882
 1  9.66246913291329 -2.78980092209221 -0.53510294999500
 1  11.43427110801080  0.83530576077608  0.18371985948595
 1  11.52493554695470 -0.75925188648865  1.06561718331833
 1  12.87098041694169 -1.68830699189919 -0.78403607120712
 1  13.01741549404940 -0.01887119611961 -1.51784514581458
 1  13.93916535323532  0.91985454145415  0.50731807480748
 1  13.98575132823282 -0.62296190089009  1.12601911841184
 1  15.35166845534553  0.35328481348135 -1.55490984898490
 1  15.66665410831083 -2.44311460356036  0.33981252735273
 1  14.81392444314431 -2.26189856545655 -1.16229364446445
 1  16.59640927032703 -1.89851537643764 -1.19146061556156
 1  16.02923812451245  1.37720555425543  0.74415095939594
 1  16.64973942114211 -0.05444461956196  1.36340910211021
 1  18.24674561326133 -0.59872642004200 -0.17791113151315
 1  17.90110717521753  0.81878919781978 -1.31008458425843
 1  18.44859565216522  2.36491064876488  0.98721672697270
 1  18.87300446074607  0.95541972297230  1.78425842614261
 1  20.43696860956096  0.25929207740774 -0.07166010201020
 1  20.15434954155415  2.98931249314931 -1.07007060046005
 1  21.39574382648265  2.04992164496450 -1.48118948224823
 1  19.69053295769577  1.57724953575358 -1.87501447044704
 1  21.48642461766176  1.25807391649165  2.04299391659166
 1  22.37300900720072  2.06742797249725  0.84164913121312
 1  21.10787051695170  2.88323840714071  1.47258769926993
>>>>>>> 8e03b5b5abfc0030b3aa597dc0de36371bfbd096

