%nproc=4
%Mem=2GB
# td=(NStates=1) CAM-B3LYP/6-31G(d,p) 

TD

0 1
12 -7.11443201620162  0.58455720382038  0.07165485288529
 6 -4.86984160216022 -1.92954413281328  0.56555308800880
 6 -4.77125705460546  2.86044449174917  1.18866523142314
 6 -9.37226196169617  3.21505700120012 -0.34443730343034
 6 -9.51610192389239 -1.65471098209821 -0.82698912801280
 7 -5.04062748734873  0.43431324942494  0.71478189648965
 6 -4.25367507360736 -0.73812363436344  0.83787181038104
 6 -2.83698270367037 -0.40653007870787  1.23754410861086
 6 -3.00232367076708  1.13666633493349  1.70585131583158
 6 -4.34306130103010  1.50501124992499  1.22354938483848
 6 -2.84697978007801  1.41166345444544  3.20046145504550
 6 -1.83643710471047 -0.61365662706271  0.13168712701270
 6 -0.39111653425343 -0.51380572777278  0.56431056035604
 6  0.48387952515252 -0.80024353725373 -0.55656103660366
 8  0.21569280938094 -1.24855026262626 -1.68757508920892
 8  1.86180799129913 -0.50442783918392 -0.19075586448645
 7 -7.07160760866087  2.54532012181218  0.43589228472847
 6 -6.03537281628163  3.35241621742174  0.83103663726373
 6 -6.40563781688169  4.79167345674567  0.89432011921192
 6 -7.66499920692069  4.81839247074707  0.39430782208221
 6 -8.18064233583358  3.49690888618862  0.13865641194119
 6 -5.39291724842484  5.83060552645265  1.24174893539354
 6 -8.38901669926993  6.08937997169717  0.04458144354435
 6 -8.44637852915292  7.22300841944194  0.75276152595260
 7 -9.14421669426943  0.74531739283928 -0.51771580528053
 6 -9.88769502920292  1.88994894799480 -0.63560988508851
 6 -11.07361645824582  1.51032937203720 -1.23211493099310
 6 -11.21210361426143  0.13288865296530 -1.38627734173417
 6 -9.88722440314031 -0.35825780008001 -0.79979499559956
 6 -12.23112193589359  2.59826039703970 -1.48162493729373
 6 -12.35262980928093 -0.62457986808681 -1.91808261676168
 6 -12.17367485588559 -0.93085549674967 -3.36683180178018
 7 -7.17464693299330 -1.41169078267827 -0.30513519051905
 6 -8.23109334913491 -2.19557472957296 -0.62854780998100
 6 -7.81697784338434 -3.57892616011601 -0.50204748204820
 6 -6.54122800690069 -3.58895323232323 -0.04282601450145
 6 -6.14433703010301 -2.20068835013501  0.10545334953495
 6 -8.70864833223322 -4.84301714411441 -0.79203768216822
 6 -5.32332680298030 -4.31851573507351  0.22517539013901
 8 -5.23125196309631 -5.53895837923792  0.33239026972697
 6 -4.20140371977198 -3.31931772157216  0.64412427772777
 6 -3.57647827872787 -3.79143436473647  1.89629000190019
 8 -3.79825142574257 -3.25021175737574  2.99229191029103
 8 -2.78689988368837 -4.83905862826283  1.73636221712171
 6 -2.30285087298730 -5.35247947704771  3.03505844134413
 6  2.71393390509051 -0.88340613521352 -1.10439163956396
 6  4.10824291329133 -0.59669784608461 -0.64354450345035
 6  5.10963444784478  0.27942420782078 -1.19585935863586
 6  5.14632305530553  1.00703335263526 -2.40314447974797
 6  6.34052838563856  0.27465931613161 -0.26258274347435
 6  7.55764330223022 -0.28938928582858 -0.96784373487349
 6  8.78753062566257 -0.24411954235424 -0.16464827762776
 6  10.14890551505150 -0.70309738143814 -0.86024699519952
 6  10.11513821402140 -2.18497943404340 -1.28779224422442
 6  11.41821469836984 -0.40301408220822  0.03025389398940
 6  12.78356326402640 -0.53739779087909 -0.76439646254625
 6  13.96067553595359 -0.09766096889689  0.13949101660166
 6  15.39889601450145 -0.10478420752075 -0.51897013681368
 6  15.71565323422342 -1.55857349114911 -0.91043066076608
 6  16.31647575347535  0.50852521252125  0.54175868306831
 6  17.70388497789779  0.83930532893289 -0.19147496209621
 6  18.70389075857586  1.54191240824082  0.76978741174117
 6  20.10057872707270  1.50935126862686  0.30193495669567
 6  20.25815716951695  2.25172346954695 -1.10772176487649
 6  21.06360729152916  2.16088902520252  1.24170953435344
 1 -4.07001848634864  3.51990751215121  1.63347793469347
 1 -9.90315070777078  4.02471330633063 -0.79090448194819
 1 -10.21736502590259 -2.52804214501450 -1.30613726592659
 1 -2.62750920782078 -1.04087240114011  2.02790348154815
 1 -2.33389699489949  1.72083566616662  1.08071872227223
 1 -1.71694615211521  1.06794724762476  3.46957067056706
 1 -3.09261432143214  2.48672272977298  3.55168733413341
 1 -3.44620806350635  0.67915259925993  3.81229364216422
 1 -1.90427291219122 -1.65624558495850 -0.57685159435944
 1 -2.04190586308631  0.07700495089509 -0.68054809440944
 1 -0.16855037243724  0.37915252915292  1.02625302440244
 1 -0.46288409040904 -0.99096361156116  1.43927788298830
 1 -5.73067184258426  6.74995363946395  0.67609331853185
 1 -5.08561555095510  6.00942430553055  2.36143244034403
 1 -4.35507946394640  5.57309847624763  0.91836501210121
 1 -9.00534258675868  6.16694284238424 -0.83787401560156
 1 -9.06208742464247  8.13013375227523  0.33618324012401
 1 -7.86023548934894  7.39929632913291  1.73071145664566
 1 -11.92347645274528  3.26208653465347 -2.08974197889789
 1 -13.24997466666667  2.18388227942794 -1.82829402090209
 1 -12.47023875497550  3.10939959465947 -0.60748199219922
 1 -12.49684446284629 -1.67308675377538 -1.53652860776078
 1 -13.37877659655966 -0.11596833363336 -1.51512704020402
 1 -13.09299565216522 -1.53888857505751 -3.78825871037104
 1 -11.97271083528353 -0.03849838743874 -4.03104660036004
 1 -11.34288056735674 -1.49107397449745 -3.55869448944894
 1 -9.00284988798880 -5.08399914281428 -1.87025028912891
 1 -8.10761012581258 -5.74359436363636 -0.54590420342034
 1 -9.35084496939694 -4.99149417071707 -0.06736855945594
 1 -3.31357205310531 -3.57783103380338 -0.16328159965997
 1 -1.75710387688769 -4.58586502620262  3.58675159045905
 1 -3.19263887248725 -5.77216883448345  3.61092393129313
 1 -1.58320643214321 -5.97933720692069  2.70417437033703
 1  2.61642094619462 -2.05020685658566 -1.38911287628763
 1  2.60703818141814 -0.24707042744274 -2.04651780398040
 1  4.53951485708571 -1.11949416461646  0.19191240724072
 1  4.03654261776178  1.27965667606761 -2.74512288198820
 1  5.55459087078708  1.88458871777178 -2.22208867706771
 1  5.52302961056106  0.47590869836984 -3.32862159315932
 1  6.66603866676668  1.32027602760276  0.08515115791579
 1  6.17010112951295 -0.49513755115512  0.56176589328933
 1  7.15185256995700 -1.31558079327933 -1.04148547214721
 1  7.73488592449245  0.19500270837084 -1.96705962956296
 1  8.83582563416341  0.76897478247825  0.16152378457846
 1  8.43428191689169 -0.77243274947495  0.82711057475748
 1  10.12198975037504  0.02198473617362 -1.69098398789879
 1  9.17168215371537 -2.20200817731773 -1.81884780958096
 1  10.98740129582958 -2.54884166806681 -1.87698194209421
 1  10.13980686668667 -2.84114605660566 -0.54150359005901
 1  11.35311299219922  0.77060929112911  0.28055954345435
 1  11.19530258365837 -0.88491445274527  1.08078870047005
 1  13.05843916281628 -1.49639780098010 -1.34953262086209
 1  12.79687343984398  0.30624131513151 -1.47281064236424
 1  13.82724416111611  1.06246880288029  0.37225456845685
 1  13.88531128422842 -0.64723432813281  1.00218673517352
 1  15.37951123962396  0.40687017201720 -1.57946230423042
 1  15.62522996589659 -2.35960625272527 -0.04212566646665
 1  15.16735978667867 -1.95228760436044 -1.67918533363336
 1  16.55866549594960 -1.81826735163516 -1.30476194569457
 1  15.85769096979698  1.39569740344034  1.14112065636564
 1  16.44243869106911 -0.25461463656366  1.18462122332233
 1  18.08023896259626 -0.18678522592259 -0.49819315971597
 1  17.62221928642865  1.40863818271827 -1.13202677847785
 1  18.28198899149915  2.55360951865187  0.90406841214121
 1  18.64150131043105  1.01866604760476  1.71851185148515
 1  20.51219613231323  0.37647379557956  0.03118018201820
 1  19.75051915851585  3.16418998089809 -0.87908150155016
 1  21.28032228432843  2.45727238003800 -1.52578394169417
 1  19.69788369276928  1.61805361616162 -1.80094706370637
 1  21.05233120832083  1.82299040814081  2.39837945514551
 1  22.18944065036504  2.09647087678768  1.00828579487949
 1  20.84727445734574  3.20726080938094  1.34071451195120

