%nproc=4
%Mem=2GB
# td=(NStates=1) CAM-B3LYP/6-31G(d,p) 

TD

0 1
<<<<<<< HEAD
12 -7.16889746274627  0.60728947704770  0.10565825322532
 6 -4.94140875887589 -1.95770694909491  0.49245577827783
 6 -4.74011394029403  2.86255470277028  1.11230759565957
 6 -9.38424315981598  3.11300679617962 -0.41889474917492
 6 -9.61985229892989 -1.73350886188619 -0.81328775787579
 7 -5.18379180378038  0.40125994409441  0.79213963226323
 6 -4.37460716681668 -0.71069089108911  0.78993701690169
 6 -2.87743674907491 -0.45349477517752  1.15102545674567
 6 -3.05122856125613  1.03312598089809  1.69526025672567
 6 -4.35431242614261  1.59710045884588  1.13404043394339
 6 -2.93366844894489  1.16752904100410  3.20368177707771
 6 -1.89672313331333 -0.62894815621562  0.05173913221322
 6 -0.48338576117612 -0.52988733593359  0.54032816211621
 6  0.46620775797580 -0.62494600750075 -0.67213259375938
 8  0.13827506760676 -1.01494690229023 -1.82396872857286
 8  1.70071188168817 -0.47408480488049 -0.20491728062806
 7 -7.15554600250025  2.57648323812381  0.34924361986199
 6 -6.02969224822482  3.37461843764376  0.73347688128813
 6 -6.35635288838884  4.76206049544954  0.75504619181918
 6 -7.66652935993599  4.86574720622062  0.33250164146415
 6 -8.15303957555756  3.51465066036604 -0.01579903360336
 6 -5.46187414411441  5.94413687958796  1.10108486898690
 6 -8.50909870747075  6.09624065776578  0.10065705110511
 6 -8.43948784008401  7.22353847244724  0.81776802660266
 7 -9.17679995259526  0.72049491059106 -0.42903693739374
 6 -9.91324758445845  1.81737169026903 -0.55774209830983
 6 -11.18793789038904  1.50134847394739 -1.09469118861886
 6 -11.24965736963696  0.04029939403940 -1.18599731373137
 6 -9.99082476317632 -0.40991296559656 -0.73154817091709
 6 -12.45430425412541  2.47623819481948 -1.29663643844384
 6 -12.38416296259626 -0.78734614471447 -1.68578938743874
 6 -12.24876236463646 -1.07060947214722 -3.19966508510851
 7 -7.24391385968597 -1.31285089868987 -0.28447312431243
 6 -8.30753099289929 -2.16305147724772 -0.64279923512351
 6 -7.91184733033303 -3.56680494799480 -0.49809708700870
 6 -6.53606749084909 -3.57861219821982 -0.14804653655366
 6 -6.31412400880088 -2.15476375767577  0.08247105130513
 6 -8.65933340074007 -4.78934177657766 -0.90318879727973
 6 -5.48604307460746 -4.40318420192019  0.06896976957696
 8 -5.42098093599360 -5.63396788018802  0.29508653935394
 6 -4.32422600200020 -3.29140493029303  0.58948881418142
 6 -3.61717234813481 -3.57753297459746  1.82161253415342
 8 -3.72455405600560 -3.02574931113111  2.85759844094409
 8 -2.86666786048605 -4.81547627002700  1.72298087898790
 6 -2.13599418731873 -5.19841407050705  2.83478841434143
 6  2.75364787648765 -0.59763755835584 -1.21882308270827
 6  4.12826491549155 -0.51617979427943 -0.53416356535654
 6  5.17270075447545  0.19391565696570 -1.00214998769877
 6  5.22620104310431  1.04282693199320 -2.19324348964896
 6  6.37779211201120  0.08518036823682 -0.05713219841984
 6  7.67403494139414 -0.40506085298530 -0.82693964446445
 6  8.93953582618262 -0.30863599399940 -0.10987280008001
 6  10.30380100460046 -0.65284235593559 -0.77230820132013
 6  10.36456315651565 -2.11442237833783 -1.21326479147915
 6  11.50169304620462 -0.21316509730973  0.00837170577058
 6  12.86054096179618 -0.36515056615662 -0.66743676657666
 6  14.06695616401640  0.01941073827383  0.28610567806781
 6  15.43927005190519 -0.06503023212321 -0.39574781458146
 6  15.67221889078908 -1.59095672947295 -0.74152377007701
 6  16.55801990789079  0.45214957495750  0.45286979417942
 6  17.93829841924192  0.69762116051605 -0.25027084168417
 6  18.82916328582858  1.52880109710971  0.60597103010301
 6  20.31172984218422  1.44119445294529  0.17867263046305
 6  20.51423277707771  2.02153045024502 -1.20341133383338
 6  21.20316124692469  2.12249518581858  1.21560692409241
 1 -3.79817130163016  3.52687820922092  1.44775936283628
 1 -10.05201559425942  3.76311714671467 -0.59925531703170
 1 -10.31740502990299 -2.46507584838484 -1.18003465566557
 1 -2.73615007190719 -0.86674498839884  2.15164585578558
 1 -2.18769237443744  1.63345692829283  1.30837148754875
 1 -2.10574503200320  0.48072852575258  3.65620933443344
 1 -2.90786584658466  2.23351740924092  3.58126029142914
 1 -3.78961240394039  0.70861554555456  3.77717012981298
 1 -2.03011549644964 -1.54569452985299 -0.45553946314631
 1 -2.26355802830283  0.08007525792579 -0.67386742634263
 1 -0.28115163256326  0.52449706360636  0.79372977207721
 1 -0.38010581258126 -1.28054256945695  1.34949890509051
 1 -5.81008978437844  6.67079572367237  0.45181089028903
 1 -5.49473646304630  6.17162052515252  2.09595589268927
 1 -4.43949790579058  5.42495366176618  0.74316749234924
 1 -9.29833188568857  6.02018816691669 -0.66064629282928
 1 -8.94956617251725  7.99052979187919  0.48466808860886
 1 -7.70181964776478  7.27556395589559  1.50105849134913
 1 -12.30462456755676  2.87801812781278 -2.44795780048005
 1 -13.35622529172917  1.95190908210821 -1.28061925342534
 1 -12.39847157825783  3.29884853955396 -0.48051929592959
 1 -12.58124290269027 -1.68016746184618 -1.07308226312631
 1 -13.30272899179918 -0.29149588638864 -1.36531205870587
 1 -13.06886323892389 -1.68734342054205 -3.62820270477048
 1 -12.14752831703170 -0.16061059865987 -3.86193968966897
 1 -11.37684396369637 -1.81489635673567 -3.57666628662866
 1 -9.15906550955096 -4.71194193709371 -1.89307257135714
 1 -7.88630799559956 -5.75235523972397 -0.78435804880488
 1 -9.42955284018402 -5.02097711901190 -0.27443926652665
 1 -3.53094379027903 -3.45062831353135 -0.40860613211321
 1 -1.61426959345935 -4.45349178887889  3.26417933323332
 1 -2.79892950155015 -5.53412503010301  3.54096693559356
 1 -1.43727183868387 -6.01548082128213  2.69371332423242
 1  2.65035433953395 -1.69163099899990 -1.42636660166017
 1  2.31146862446245 -0.02255797619762 -2.06712986518652
 1  4.28673957955796 -1.12578479367937  0.44142735873587
 1  4.27835679917992  1.14404311471147 -2.88314668436844
 1  5.45841125282528  2.07523778267827 -2.06250271847185
 1  6.11344865246525  0.59629073657366 -2.87825655665567
 1  6.52374443734373  1.12048604860486  0.19766240904090
 1  6.40436455585559 -0.52694073147315  0.83959367606761
 1  7.51514889958996 -1.53980321552155 -1.15545686928693
 1  7.75356779267927 -0.03032982488249 -1.90886380998100
 1  8.92017406900690  0.80996888188819  0.36067369956996
 1  8.81513000170017 -0.97776328252825  0.78401626532653
 1  10.29357690909091  0.03421595929593 -1.66678156765677
 1  9.46601158665866 -2.45347332383238 -1.83508943374337
 1  11.27305986168617 -2.37217400130013 -1.71463570747075
 1  10.14297718371837 -2.87294923692369 -0.39812925262526
 1  11.52523020392039  0.71543377357736  0.38037952545255
 1  11.42692574597460 -0.80944690599060  0.82100272187219
 1  12.85190850975098 -1.56890505170517 -0.80399806740674
 1  12.94951870437044  0.01270196119612 -1.68440180148015
 1  13.83842527922792  1.06114867086709  0.67440478347835
 1  14.19329208230823 -0.63285288998900  1.31961847834784
 1  15.55292858135813  0.57793727872787 -1.35901025902590
 1  15.91798924182418 -2.26434672677268 -0.04447590149015
 1  14.95102815351535 -1.84821719731973 -1.44783219831983
 1  16.68219784918492 -1.58168369326933 -1.33310477997800
 1  16.35242044274427  1.45599343304330  0.72447899219922
 1  16.89669411661166 -0.25723489858986  1.35908867006701
 1  18.52833377207721 -0.14500104750475 -0.49235257565757
 1  17.77949501400140  1.39819713861386 -0.95420899669967
 1  18.63628442104211  2.53465762346235  0.86145415071507
 1  18.81981914221422  1.11775595659566  1.72577257755776
 1  20.61529644234423  0.45092124032403  0.24577164116412
 1  20.23794790139014  3.03965752765276 -1.30777437083708
 1  21.51429568166817  2.02225887868787 -1.61523288658866
 1  19.76367027142715  1.54709652045205 -1.92422939193919
 1  21.05571154635464  1.57092520162016  2.36380599779978
 1  22.21495320162016  2.02157338703870  0.85640060636064
 1  20.90548027792779  3.29185926922692  1.29365980648065
=======
12 -7.11392196519652  0.56873562166217  0.20736842424242
 6 -4.80553517151715 -1.97939911831183  0.53596012871287
 6 -4.76375630453045  2.80174862216222  1.25322168706871
 6 -9.39446418191819  3.23185868136814 -0.42061492119212
 6 -9.51173148684869 -1.67966347734773 -0.94352078117812
 7 -5.07253067766777  0.38797861596160  0.72973339163916
 6 -4.29048875497550 -0.82780260226023  0.91192921612161
 6 -2.89392839823982 -0.51236066176618  1.21161151535154
 6 -3.00337377577758  0.95784845314531  1.67944867556756
 6 -4.38701569646965  1.44211496029603  1.29382641254125
 6 -2.91984706680668  1.14301658975898  3.24953636253625
 6 -1.95517897889789 -0.67628288968897  0.04025798409841
 6 -0.50603802640264 -0.45244959215922  0.44441857115712
 6  0.47458859605961 -0.74967848074807 -0.73860924142414
 8  0.15241648174817 -0.95914132173217 -1.93785011671167
 8  1.70940275077508 -0.50045744214421 -0.32429921882188
 7 -7.10689113701370  2.61399698949895  0.39019771527153
 6 -5.98172745174517  3.37139811561156  0.83872740634063
 6 -6.26395364846485  4.75634992439244  0.83106379357936
 6 -7.60900360736074  4.81040167166717  0.35878426972697
 6 -8.09092336393639  3.49300849614961  0.04354690099010
 6 -5.38775673237324  5.99593205910591  1.00624538503850
 6 -8.42628042564256  5.98261929562956 -0.01075409000900
 6 -8.46260015131513  7.11735785438544  0.62604885468547
 7 -9.02094436703670  0.71231409250925 -0.56261029472947
 6 -9.80963722342234  1.80214016711671 -0.69116544064406
 6 -11.17683678027803  1.51795013411341 -1.13113483298330
 6 -11.16114851875187  0.18348371247125 -1.30987970197020
 6 -9.81033671437144 -0.33502547684768 -0.91154617071707
 6 -12.24289311301130  2.55772634363436 -1.28014478927893
 6 -12.33195774207421 -0.72117952805281 -1.60491129962996
 6 -12.40659814821482 -1.04242665386539 -3.13451857045705
 7 -7.23101256955696 -1.38864847844784 -0.09397407440744
 6 -8.29326956675668 -2.19350452255226 -0.48959391459146
 6 -7.97143328892889 -3.57260552805281 -0.36541381868187
 6 -6.51778566266627 -3.51202553955396  0.00413868196820
 6 -6.22680527692769 -2.16603488478848  0.20649345354535
 6 -8.69077654505450 -4.69611245364536 -0.74037251565156
 6 -5.34297876817682 -4.41731561506151  0.28110098269827
 8 -5.25038387628763 -5.60262474587459  0.29207623832383
 6 -4.27000057945795 -3.30796658645865  0.66219608490849
 6 -3.53416404730473 -3.72304752605261  1.90831120402040
 8 -3.74566616721672 -3.16290302650265  3.01767444854485
 8 -2.73193438713871 -4.75590031243124  1.68357693859386
 6 -1.88553914181418 -5.24460868996900  2.83953888938894
 6  2.73101561326133 -0.70253804840484 -1.43228442884288
 6  4.11680376937694 -0.43037121342134 -0.78209835883588
 6  5.12760624502450  0.30166643204320 -1.24331410411041
 6  5.04063248624862  1.05003765306531 -2.48739290459046
 6  6.34242857565757  0.43178502870287 -0.41167765296530
 6  7.55606314421442 -0.25787613451345 -1.13401035153515
 6  8.90679255185518 -0.15655078547855 -0.27061887468747
 6  10.19816044054405 -0.54807187888789 -0.89852082258226
 6  10.04950165036504 -2.09982091819182 -1.32706617161716
 6  11.41491436833683 -0.35515929672967  0.02149301790179
 6  12.71306621432143 -0.39077312841284 -0.60967098999900
 6  13.93969343774377 -0.08022922572257  0.13277034453445
 6  15.31283740864086 -0.10105383448345 -0.38827706750675
 6  15.66982865176518 -1.53587122092209 -0.75088470617062
 6  16.38722282818282  0.51105546554655  0.49220372757276
 6  17.74192878227823  0.69464086248625 -0.08098391299130
 6  18.72634300380038  1.33399161616162  0.84726515951595
 6  20.24568323752375  1.35673600710071  0.42643740694069
 6  20.41233258705871  2.24112240944094 -0.97871886458646
 6  20.96264719551955  1.96404934123412  1.47593295669567
 1 -3.78896038053805  3.45575109650965  1.52005659255926
 1 -9.96815720842084  4.03491432643264 -0.71907729922992
 1 -10.29138242764276 -2.38945828662866 -1.43114976717672
 1 -2.65164162106211 -1.25091340524052  1.92883357455746
 1 -2.21801540674067  1.67913149574957  1.10761141154115
 1 -2.03030748824882  0.58857931083108  3.73115682918292
 1 -2.92828788878888  2.18282233973397  3.61000316571657
 1 -3.77049049174918  0.71541622562256  3.73563597639764
 1 -2.00088257315732 -1.75505546594659 -0.28965287448745
 1 -2.32993466596660  0.12638988938894 -0.67548758835884
 1 -0.14247776517652  0.58246286018602  0.83953435253525
 1 -0.10370817281728 -1.11468598379838  1.42950690589059
 1 -5.43035181058106  6.71159980408041  0.10992670187019
 1 -5.33717070647065  6.28920228332833  1.87032332943294
 1 -4.29435339133913  5.57564873127313  0.87755093069307
 1 -9.15219727222722  5.75241138923892 -0.73775400360036
 1 -9.27504872077208  7.67624836373637  0.33094271607161
 1 -7.81900136593659  7.29470587008701  1.59511789728973
 1 -11.72018612371237  3.46673699969997 -2.03042604730473
 1 -13.09782945214521  2.21436532773277 -1.81222241374137
 1 -12.29300103120312  3.09296795149515 -0.26034727872787
 1 -12.37811258965897 -1.67572701780178 -0.89849480438044
 1 -13.22013073197320 -0.19443618041804 -1.28996452395240
 1 -13.14962131473147 -1.76449113531353 -3.37320720522052
 1 -12.09499306350635 -0.04985952355235 -3.66278977467747
 1 -11.51838811811181 -1.53432829992999 -3.38187680768077
 1 -8.92098170117012 -5.05863660656066 -1.85480874497450
 1 -8.20892025682568 -5.56354635883588 -0.37193680668067
 1 -9.61625151005100 -4.87864288558856 -0.27473929652965
 1 -3.65690638653865 -3.49132238293829 -0.37151242274227
 1 -1.43647181368137 -4.23495993569357  3.23552646794679
 1 -2.62049165776578 -5.50832244984498  3.63105594449445
 1 -1.44210232173217 -6.11490076327633  2.40044399729973
 1  2.36208551265126 -1.63688552445245 -1.74585855085509
 1  2.32732020962096 -0.09115483588359 -2.27837098929893
 1  4.30304120972097 -0.89397161236124  0.39679289528953
 1  4.01564052755275  1.04097280768077 -3.04030239993999
 1  4.96227163886389  2.05684594349435 -2.32601907010701
 1  5.99405671327133  1.02089319681968 -3.10070880188019
 1  6.66703876677668  1.38744274427443 -0.16329368656866
 1  6.04979909930993 -0.18316635403540  0.59924964166417
 1  7.28447583228323 -1.51724095929593 -1.01960328392839
 1  7.82121455735574 -0.00529732163216 -2.15018794239424
 1  9.00553260486049  0.79667755275528  0.28481611381138
 1  9.02371085978598 -0.64459996619662  0.85336320002000
 1  10.27867541894189  0.04245678337834 -1.80623551305131
 1  9.44658964446445 -2.17048502500250 -2.16144206900690
 1  11.03077563326333 -2.50232701660166 -1.85366961086109
 1  9.74017690369037 -2.68842078407841 -0.41504094379438
 1  11.21345902680268  0.63648587878788  0.52873436093609
 1  11.14154720812081 -1.31181714301430  0.67372799439944
 1  12.95690900980098 -1.51118928012801 -1.14145181278128
 1  12.93057681018102  0.31131182218222 -1.46977033833383
 1  13.83335477217722  0.89048160416042  0.65808315131513
 1  14.00412316541654 -0.91500110481048  0.98921543804380
 1  15.43043633213321  0.38411789678968 -1.32842720072007
 1  15.96936437933793 -2.19741003310331 -0.08043949784978
 1  14.96995004570457 -2.22383475907591 -1.36164357945795
 1  16.72516214561456 -1.63778930383038 -1.31174264376438
 1  15.95942114281428  1.59359719341934  0.92439898419842
 1  16.35221966916691 -0.02590176527653  1.33517627882788
 1  18.05358629732973 -0.31557810521052 -0.43997733813381
 1  17.65899296379638  1.11859917881788 -1.02881645744574
 1  18.36933772637264  2.47802195989599  1.09826783208321
 1  18.75072223252326  0.94689887088709  1.75864586488649
 1  20.52140705340534  0.27474362256226  0.03262032603260
 1  20.05461956855686  3.25028859075908 -0.82704629802980
 1  21.54735898799880  2.16544319711971 -1.34193555685569
 1  19.67476138053805  1.90036184698470 -1.80492746174617
 1  20.96957293249325  1.53118122722272  2.41343096029603
 1  22.20911261756175  1.94394562426243  1.30716568286829
 1  20.73021275117512  3.07622770607061  1.47131757225723
>>>>>>> 8e03b5b5abfc0030b3aa597dc0de36371bfbd096

