%nproc=4
%Mem=2GB
# td=(NStates=1) CAM-B3LYP/6-31G(d,p) 

TD

0 1
12 -7.21569214221422  0.61064981308131  0.12129981738174
 6 -4.79958457645765 -1.92967414581458  0.49040557325733
 6 -4.82418234713471  2.81597004430443  1.19687605250525
 6 -9.41953668916892  3.18464395989599 -0.44142700240024
 6 -9.54580489418942 -1.60049556055606 -0.97250367946795
 7 -5.10187361196120  0.48135795389539  0.63891430973097
 6 -4.35102480858086 -0.64033385538554  0.87496551975198
 6 -2.93660266566657 -0.39298872457246  1.35674602880288
 6 -3.09084252265227  1.09534220252025  1.69906063676368
 6 -4.48425542044204  1.51972272107211  1.17923495339534
 6 -2.96194127622762  1.21036332443244  3.20471188008801
 6 -2.00033349434943 -0.67925318671867  0.13112707100710
 6 -0.55112253485349 -0.57081142834283  0.68771290059006
 6  0.51885302250225 -0.68463197609761 -0.49361474197420
 8  0.17083832393239 -1.01437684528453 -1.57817414911491
 8  1.79976178667867 -0.42883027942794 -0.07575436433643
 7 -7.14329477737774  2.58586417621762  0.32149084458446
 6 -6.04748402740274  3.34944592039204  0.75392892649265
 6 -6.43093034613461  4.67587187658766  0.72649333653365
 6 -7.68071077807781  4.80172080358036  0.30804919621962
 6 -8.13352762436244  3.44600379567957  0.02933547984798
 6 -5.50431838853885  5.83846631253125  1.06168092859286
 6 -8.53487128472847  6.02161319501950  0.07769475487549
 6 -8.48972286358636  7.19789590819082  0.69307555735574
 7 -9.10374264686469  0.71923478457846 -0.59462349604960
 6 -9.87291355105510  1.84167412051205 -0.67558388248825
 6 -11.26783588018802  1.44698303740374 -1.14622634213421
 6 -11.15698810271027  0.09967533163316 -1.32450116411641
 6 -9.93546922762276 -0.30840281458146 -0.96171118721872
 6 -12.30595941964196  2.43309388038804 -1.47616439123912
 6 -12.44871941824182 -0.69936734683468 -1.74959576807681
 6 -12.32650013841384 -1.15167757895790 -3.24646976557656
 7 -7.20559002730273 -1.38280789438944 -0.09339401640164
 6 -8.23194343414341 -2.20749592169217 -0.43824878007801
 6 -7.84868101370137 -3.61872013951395 -0.49052632993299
 6 -6.49184306840684 -3.49890422742274 -0.17941967386739
 6 -6.17918051445144 -2.12473075437544  0.03899670387039
 6 -8.67344481188119 -4.77297013941394 -0.81194967336734
 6 -5.29047351765176 -4.38050193369337  0.16589946254625
 8 -5.26462530043004 -5.62757724112411  0.25115214591459
 6 -4.20190376977698 -3.32655844564456  0.53535340064006
 6 -3.45612624352435 -3.74782000330033  1.86823719661966
 8 -3.70177177777778 -3.21973871007101  2.93229591069107
 8 -2.54697589128913 -4.81541626402640  1.72924150505051
 6 -2.05941652955295 -5.33567779687969  2.99489442494249
 6  2.78454096579658 -0.66714450905091 -1.09502070247025
 6  4.05434752375238 -0.39709788608861 -0.46333648264826
 6  5.17695117951795  0.31450771617162 -0.88414818751875
 6  5.05781420442044  1.11660430973097 -2.20989515481548
 6  6.47772210501050  0.30854270447045 -0.17533401860186
 6  7.64828236613661 -0.03517386428643 -0.99227617811781
 6  8.86533840644064 -0.12792792319232 -0.15256706950695
 6  10.18996962146215 -0.53309038073807 -0.86470744124412
 6  10.26011271147115 -2.02494343044304 -1.32251571657166
 6  11.42242511941194 -0.08055183598360  0.05389625822582
 6  12.73788869656966 -0.29228327942794 -0.78985900880088
 6  13.95817528592859  0.00660945814581  0.12692976047605
 6  15.39905603050305 -0.17210093919392 -0.49252749254925
 6  15.57018868776878 -1.66919455325533 -0.81342095979598
 6  16.49486359225923  0.33559791979198  0.34451895909591
 6  17.82219680908091  0.50141153955396 -0.23055887048705
 6  18.83203357285729  1.30255847284728  0.64809524252425
 6  20.31547021622162  1.33744407790779  0.15255001820182
 6  20.42052340614061  2.08532682988299 -1.09892088478848
 6  21.15244617541754  1.79008194449445  1.32615797919792
 1 -4.08572005650565  3.52521804320432  1.50008459535954
 1 -10.12895328802880  3.92120295529553 -0.72876826832683
 1 -10.30911420082008 -2.32809215001500 -1.25903255545555
 1 -2.61427788468847 -0.92217053095310  2.30428111931193
 1 -2.22633623882388  1.57908149074908  1.22634328472847
 1 -1.87581203870387  0.86245669856986  3.54293800730073
 1 -3.14615967596760  2.09508356585659  3.57149931533153
 1 -3.72322576527653  0.57887257125713  3.74359677247725
 1 -1.96374885978598 -1.60045000540054 -0.45235914511451
 1 -2.31672334483448  0.20490774117412 -0.43137317691769
 1 -0.29521303870387  0.55591020492049  1.00642104120412
 1 -0.30886868886889 -1.18143265846585  1.48474242944294
 1 -5.77923669906991  6.85853449754975  0.60600630983098
 1 -5.56100308970897  5.90231359445945  2.32638893599360
 1 -4.38956291229123  5.48509967636764  0.83179635523552
 1 -9.30704275677568  5.80198634673467 -0.61106133433343
 1 -9.28905012091209  7.97403814271427  0.45193481528153
 1 -7.78608807460746  7.55070146964696  1.59324771027103
 1 -12.34240834593459  3.07293761976198 -2.36811981668167
 1 -13.28017768696870  1.96554044524452 -1.56135732723272
 1 -12.63511524262426  3.15645430013001 -0.58814005800580
 1 -12.65195997439744 -1.71008045314531 -1.16978193309331
 1 -13.42221093999400 -0.14546128292829 -1.65292081958196
 1 -13.21509786238624 -1.93186787298730 -3.56746663116312
 1 -12.34941850605061 -0.16506104370437 -3.85756925262526
 1 -11.43749002830283 -1.57392225932593 -3.70266888688869
 1 -8.97607721072107 -4.34267501040104 -1.92475573967397
 1 -8.17190655545554 -5.71955195939594 -0.85085469846985
 1 -9.59217910281028 -4.99080410171017 -0.05605742834283
 1 -3.42897359325933 -3.47372062276228 -0.17485275677568
 1 -1.41204937143714 -4.53360980068007  3.62633554885489
 1 -2.97905751435143 -5.69619123672367  3.53629646854686
 1 -1.26382449394940 -6.09082835603560  2.82924687758776
 1  2.81748105220522 -1.54839667556756 -1.52835680068007
 1  2.63441091869187  0.19033331293129 -1.71161431363136
 1  4.32777368296830 -0.77701991719172  0.47516073207321
 1  3.95275423892389  1.52730144054405 -2.24927329702970
 1  5.73435884758476  2.21649190809081 -2.22923939213921
 1  5.35117242484248  0.52630373787379 -3.10041877287729
 1  6.80710277317732  1.40670467046705  0.09318196099610
 1  6.33455757515752 -0.11906994439444  0.67105682238224
 1  7.65890327502750 -1.02729196439644 -1.51651297489749
 1  7.80181261716172  0.70410361846185 -1.87167009060906
 1  9.02755480708071  0.88163604860486  0.35927355955596
 1  8.75467395609561 -0.92242774897490  0.51607947164716
 1  10.18598615001500 -0.04208167046705 -1.72832772227223
 1  9.23028801430143 -2.09036701320132 -1.59351527632763
 1  11.14303685938594 -2.07865464936494 -1.90934517841784
 1  10.38035092109211 -2.78476041804180 -0.29354879457946
 1  11.42259994089409  0.93911614181418  0.38513000050005
 1  11.46953000640064 -0.75360132143214  0.99766038763876
 1  12.65527884678468 -1.49923808500850 -0.96103377097710
 1  12.89133288578858  0.27436812781278 -1.81105446674667
 1  13.90777221392139  1.15898845484548  0.32186952995300
 1  13.89375212831283 -0.49968957365737  0.99886640314031
 1  15.46350963946395  0.53421290629063 -1.46390074807481
 1  15.76144358725873 -2.37043733583358  0.09896844294429
 1  14.79185223592359 -2.06828920452045 -1.69910732583258
 1  16.51865149454946 -1.75186071097110 -1.36063753325333
 1  16.04918011871187  1.28406624032403  0.58910545484548
 1  16.34848929612961 -0.23933310841084  1.27020978217822
 1  18.29811074977498 -0.44345089248925 -0.23097643804380
 1  17.84221128562857  0.96584390329033 -1.30716429222922
 1  18.65944673727373  2.46684084178418  0.99384739003900
 1  18.85844300460046  0.60915509650965  1.46418641894189
 1  20.64410932363236  0.34820096829683  0.13860092409241
 1  20.21864597119712  3.20128369026903 -1.02031562496250
 1  21.29379363146315  2.02138879167917 -1.37801916521652
 1  19.81565546994700  1.83626543734373 -1.95063203220322
 1  20.97856383158316  1.03147125622562  2.26034565176518
 1  21.98306001230123  1.96683791349135  0.74758972527253
 1  20.72158188808881  3.00746082938294  1.48513895439544

