%nproc=4
%Mem=3GB
# td=(NStates=1) iop(3/107=0140000000,3/108=0140000000) CAM-B3LYP/6-31G(d,p) 

TD

0 1
12 -7.12552724442444  0.60214859835984  0.03212958295830
 6 -4.87427624412441 -1.95900313091309  0.50323572597260
 6 -4.89615564616462  2.88615733363336  1.19834994019402
 6 -9.39155592009201  3.17639519251925 -0.38266074137414
 6 -9.53976007400740 -1.74808657435744 -0.89590639553955
 7 -5.25354238543854  0.44830092069207  0.69769759375938
 6 -4.40840308760876 -0.67154829802980  0.73749164386439
 6 -3.00688690929093 -0.27017541554155  1.22544821392139
 6 -3.14288751565157  1.17339604120412  1.65483176247625
 6 -4.54798503320332  1.59471412251225  1.15641003490349
 6 -3.03158933973397  1.33184600390039  3.14223953855386
 6 -1.89473520322032 -0.54149013821382  0.10162397269727
 6 -0.43676938613861 -0.54560780878088  0.58954233653365
 6  0.47648957215722 -0.95917253915391 -0.45112490259026
 8  0.27676789358936 -1.36775055275528 -1.56614400750075
 8  1.76387498589859 -0.48265820422042 -0.03755914351435
 7 -7.09056670007001  2.65374858475848  0.20547147124712
 6 -6.09240938473847  3.40286405380538  0.69792566866687
 6 -6.39354426282628  4.82171903550355  0.78343660236024
 6 -7.67695248054805  4.88792059725973  0.25232135853585
 6 -8.07064659215922  3.61118805760576 -0.06999900130013
 6 -5.45743777767777  5.97169664336434  1.06764691989199
 6 -8.52590259825983  6.09446971657166  0.16151676417642
 6 -8.27131554155416  7.23356250595059  0.83465752505251
 7 -9.06377541864186  0.69797679207921 -0.54274084798480
 6 -9.82538002430243  1.89143246754675 -0.58933174667467
 6 -11.19189314201420  1.51497094159416 -0.99179403910391
 6 -11.16844633183318  0.11834938073807 -1.09345937423742
 6 -9.97068467206721 -0.44698489188919 -0.86784898619862
 6 -12.27949888758876  2.52087732913291 -1.19156860956096
 6 -12.39241303420342 -0.70937706150615 -1.54467379797980
 6 -12.31818372727273 -1.08538873117312 -3.07961861306131
 7 -7.25739870227023 -1.40126496219622 -0.12777545264526
 6 -8.19282360866087 -2.21287983348335 -0.52779435933593
 6 -7.83656569636964 -3.57299785118512 -0.59474977477748
 6 -6.47069485998600 -3.56642962506251 -0.12675475717572
 6 -6.22091582328233 -2.16523447924792  0.08820065546555
 6 -8.57982032153215 -4.82810890929093 -0.96018940204020
 6 -5.36480194309431 -4.32879644304430  0.11328630273027
 8 -5.22111310361036 -5.59985684268427  0.08628457705771
 6 -4.17506200880088 -3.29040648804880  0.57100542214221
 6 -3.56605078187819 -3.71961990469047  1.83229919841984
 8 -3.72844562796280 -3.19790714861486  2.91894525272527
 8 -2.66601195399540 -4.64078269676968  1.68519755725573
 6 -2.09826878387839 -5.21005621152115  2.86692409280928
 6  2.70199652005201 -0.81971025992599 -1.11106462366237
 6  4.14978586378638 -0.66146141404140 -0.51803436623662
 6  5.10736622792279  0.11873840184018 -1.00723360036004
 6  5.00814454005400  1.02902057735774 -2.14641877687769
 6  6.41496777547755  0.33193380938094 -0.24933545794579
 6  7.66115756835684 -0.30779932793279 -1.03125345404540
 6  8.92927063866387 -0.26160797689769 -0.23286938933893
 6  10.25559101970197 -0.55323698689869 -0.98410413041304
 6  10.30939421602160 -2.04036191609161 -1.58233519951995
 6  11.45677034083408 -0.38752364346435 -0.16835479797980
 6  12.77113484898490 -0.48283831733173 -0.85334283938394
 6  13.91976324812481 -0.07463317761776  0.18836524812481
 6  15.32224821582158 -0.12859194279428 -0.39767542004200
 6  15.59793606460646 -1.65714410271027 -0.78940076637664
 6  16.36885387808781  0.43997051435144  0.52116685138514
 6  17.77714530223022  0.76745047464746 -0.18296482348235
 6  18.78450886948695  1.38076615511551  0.78285154185419
 6  20.20490329472947  1.43703313581358  0.29533623962396
 6  20.39543238903891  2.28195550065006 -1.00071476737674
 6  21.13958902590259  1.85014671457146  1.42403634363436
 1 -4.05589595309531  3.66801005240524  1.21785788158816
 1 -10.08210033333333  3.97667994249425 -0.60820534673467
 1 -10.36339076317632 -2.41305684078408 -0.87600541994199
 1 -2.47552483968397 -0.72246244894489  1.87383387408741
 1 -2.22777624392439  1.74197625872587  1.32416606560656
 1 -2.06407949434943  0.97547665406541  3.47014735213521
 1 -3.15840294939494  2.48196741954195  3.38101612381238
 1 -3.84047684818482  0.96244139843984  3.79546123132313
 1 -2.06332145114511 -1.54241491229123 -0.25615362246225
 1 -1.88177454645465  0.09188680848085 -0.83881061566157
 1 -0.25201062976298  0.41464105140514  0.92828669166917
 1 -0.29789821012101 -1.31452221882188  1.42125558385839
 1 -5.45416959465947  6.86719423142314  0.47319715101510
 1 -5.24236570787079  6.36121900330033  2.07949996249625
 1 -4.48704354895490  5.62830709870987  0.88421915451545
 1 -9.37270753055306  5.96869025102510 -0.52265361806181
 1 -9.05324438813881  8.03595331633163  0.58369814551455
 1 -7.45218315041504  7.42305914231423  1.68128708900890
 1 -11.99440991399140  3.30626977407741 -1.96567239873987
 1 -12.95905320302030  2.09304804720472 -1.78317404560456
 1 -12.55308634133413  3.09709704380438 -0.27839827932793
 1 -12.30697266216622 -1.54004492729273 -0.95334883578358
 1 -13.37193949304931 -0.38843155365537 -1.56595234963496
 1 -13.21128632783278 -1.70097375947595 -3.20696165426543
 1 -12.41214161986199 -0.26343481478148 -3.87256623502350
 1 -11.49213405280528 -1.39577060426043 -3.37063534173417
 1 -8.94829944854485 -4.64890139093909 -2.06051211421142
 1 -7.89621400660066 -5.73635958925893 -1.21751170627063
 1 -9.43184736373637 -5.30031848024802 -0.26473874257426
 1 -3.60885840434043 -3.57299390499050 -0.31719945804580
 1 -1.39278266586659 -4.32136434983498  3.10279199679968
 1 -2.93628006530653 -5.45831535643564  3.69042007970797
 1 -1.42525304580458 -5.99409019381938  2.56242960406041
 1  2.56484453925393 -1.98208483128313 -1.18956040474047
 1  2.58073451475147 -0.29163107830783 -2.02780383788379
 1  4.36934742144214 -1.26879529332933  0.37703910411041
 1  4.06194150565056  1.22746828952895 -2.58739922562256
 1  5.64397132933293  2.01149157305731 -1.82655009340934
 1  5.75337490599060  0.70290148104811 -2.83734999189919
 1  6.62775095899590  1.43196317691769  0.05976559045905
 1  6.49590746284628 -0.18716605330533  0.65728192369237
 1  7.51125324812481 -1.26066673967397 -1.39937469466947
 1  8.03215577407741  0.42309141214121 -1.80059088198820
 1  8.89035507980798  0.82120161766177  0.14929735783578
 1  8.81200432123212 -0.98709706240624  0.68052417581758
 1  10.44767939973998  0.13806995479548 -1.90580573857386
 1  9.27913752285229 -2.29631791529153 -1.87370575247525
 1  11.09053819441944 -2.01382478177818 -2.50186554465446
 1  10.62662485958596 -2.68140225492549 -0.75829322302230
 1  11.27060870247025  0.63724015741574  0.27296506730673
 1  11.46760435593559 -1.03078437603760  0.69729604970497
 1  13.01986993949395 -1.62844026332633 -1.21094336583658
 1  12.82962879277928  0.19545448144814 -1.62462679637964
 1  13.69616103640364  0.96616197949795  0.61681651035104
 1  13.82003031363136 -0.76958333723372  1.02558493249325
 1  15.26458686008601  0.41069446644664 -1.43616488528853
 1  15.45674947174717 -2.30362970417042  0.05593745824582
 1  14.97083872827283 -2.02816733673367 -1.49944131763176
 1  16.70162844244424 -1.91243214021402 -1.17731424472447
 1  16.02593586708671  1.62385071877188  0.81902781908191
 1  16.63322740054005 -0.15410169496950  1.34575307000700
 1  18.29971670937094 -0.13722023602360 -0.70308050365037
 1  17.72908021762176  1.39797869196920 -0.93569931353135
 1  18.50195925282528  2.38416968496850  1.13333528032803
 1  18.79657562006201  0.94851969146915  1.70719396489649
 1  20.42546237853785  0.33582458005801 -0.08976308410841
 1  20.02374919341934  3.20623139963996 -0.76845903060306
 1  21.32219602040204  2.19732087418742 -1.29162714391439
 1  19.63001139873987  1.69774006420642 -1.76887527192719
 1  20.74482833633363  1.37517315821582  2.39593326212621
 1  22.18718661146114  1.49162963366337  1.04702135573557
 1  21.11450152865287  3.04406052325233  1.53083021972197

