%nproc=4
%Mem=3GB
# td=(NStates=1) iop(3/107=0140000000,3/108=0140000000) CAM-B3LYP/6-31G(d,p) 

TD

0 1
12 -7.16632132383238  0.72323070657066 -0.05433906390639
 6 -4.84598341484148 -1.90905813641364  0.48712411481148
 6 -4.87761379197920  2.77589630753075  1.14679478467847
 6 -9.41676844134414  3.12675022802280 -0.43829630493049
 6 -9.57486358435844 -1.69482124782478 -0.80262706760676
 7 -5.10680771197120  0.42700879147915  0.62358018201820
 6 -4.37324957225723 -0.68465960916092  0.69655755045505
 6 -2.96265248584858 -0.46969536753675  1.26764243334333
 6 -2.98073130003000  1.08199690129013  1.68484476377638
 6 -4.40696093079308  1.52182683378338  1.11843623752375
 6 -2.89906608740874  1.26741956125613  3.23895921052105
 6 -1.86193192289229 -0.56227221642164  0.05536934723472
 6 -0.49566527572757 -0.43297654565457  0.55134851715172
 6  0.51868379157916 -0.68994561646165 -0.52809259935994
 8  0.29125934273427 -1.10588436613661 -1.71676907000700
 8  1.75965456385639 -0.41200113851385 -0.12255764336434
 7 -7.10260790419042  2.67433064296430  0.35552647674767
 6 -6.06308645244525  3.42857662506251  0.75830170627063
 6 -6.31924683308331  4.76950381398140  0.79609786848685
 6 -7.67818260356036  4.85872767796780  0.29502562896290
 6 -8.08317784528453  3.51043798259826  0.03811180978098
 6 -5.50926296019602  5.83581305500550  1.29965012021202
 6 -8.39502951095109  6.02755302490249  0.21312192469247
 6 -8.35356376637664  7.21426057575758  0.81891595089509
 7 -9.05799484058406  0.66694368876888 -0.62041861576158
 6 -9.84304179047905  1.83099642394239 -0.71081389488949
 6 -11.25830978367837  1.47087653215322 -1.14237909760976
 6 -11.27621710891089  0.12229977577758 -1.17331736003600
 6 -9.94570217381738 -0.34020421382138 -0.86737893919392
 6 -12.24591552925293  2.46973221462146 -1.37655710841084
 6 -12.41590538343834 -0.71624774857486 -1.55315464606461
 6 -12.39666157505751 -1.00592078437844 -3.05961661286129
 7 -7.18187114951495 -1.36985182088209 -0.21867454255426
 6 -8.26891121742174 -2.19080762626263 -0.59019059895990
 6 -7.87924996479648 -3.56660721212121 -0.53999429922992
 6 -6.53784157465747 -3.52871585368537 -0.17742982468247
 6 -6.19752348404840 -2.20866882268227  0.08453028842884
 6 -8.65084742424242 -4.85875197359736 -0.85140852395239
 6 -5.29373483638364 -4.37009057245725  0.27154212831283
 8 -5.17878887118712 -5.50962781978198  0.24445039363936
 6 -4.06609111171117 -3.22009945734573  0.59808813041304
 6 -3.49610378717872 -3.65636357905791  1.82586855535554
 8 -3.80389317271727 -3.22466982488249  3.01363472167217
 8 -2.71517687048705 -4.73515213371337  1.75773481098110
 6 -2.09098805580558 -5.19863506940694  2.96844424482448
 6  2.81919824022402 -0.85456374527453 -1.14274779197920
 6  4.14500538573857 -0.59354462236224 -0.54079664246425
 6  5.06969246054605  0.24417094509451 -1.01319419641964
 6  5.00829455505550  0.95820349564956 -2.33273740874087
 6  6.33429970867087  0.33211382738274 -0.25124564896490
 6  7.58251970457046 -0.19678822682268 -1.03371370007001
 6  8.95885359695970 -0.07020883698370 -0.25701180358036
 6  10.24577003760376 -0.63655531873187 -0.95281100110011
 6  10.22960623722372 -2.08100598049805 -1.36332329832983
 6  11.47603226702670 -0.38108299939994 -0.16178414091409
 6  12.86860459595960 -0.54124415791579 -0.92697020212021
 6  13.92634390619062 -0.16924263856386  0.04454086568657
 6  15.33622961396140 -0.12781186478648 -0.60679633213321
 6  15.72237850885089 -1.72316070437044 -1.02547437373737
 6  16.41036802950295  0.38299481678168  0.49773450815082
 6  17.83800138783878  0.54256798639864 -0.10889741674167
 6  18.74019443804380  1.19870794929493  0.89447270397040
 6  20.19433223762376  1.37465689818982  0.39179588558856
 6  20.20567341314132  2.24635194029403 -0.83182787868787
 6  21.04660972797280  2.14589628952895  1.46965090509051
 1 -4.18047841134113  3.59249250065007  1.50134623042304
 1 -10.16331845514551  4.04960723522352 -0.52085661186119
 1 -10.42703712781278 -2.28584411951195 -1.11947976737674
 1 -2.83720100730073 -1.20286048874888  2.11202769346935
 1 -2.23278674497450  1.77833989508951  1.27577122612261
 1 -1.99104219061906  1.01537064346435  3.64926526392639
 1 -2.99572668176818  2.43618284108411  3.60935895809581
 1 -3.56890969146915  0.61519667396740  3.91601328652865
 1 -1.96187130613061 -1.60209087988799 -0.55626363346335
 1 -2.15806217521752  0.25428304810481 -0.58121485608561
 1 -0.17629305800580  0.59283887118712  1.02605646864686
 1 -0.25229364966497 -1.23145391199120  1.42073553185319
 1 -5.72833701140114  6.89417692969297  0.69864969626963
 1 -5.50009148044804  6.10078295969597  2.28919093159316
 1 -4.55557040164016  5.73999826782678  0.95182591519152
 1 -9.40062032183218  5.89151253325332 -0.30769212191219
 1 -8.98223728742874  7.99835955695570  0.56858663436344
 1 -7.44957288938894  7.23667050345034  1.38404736503650
 1 -12.00578105110511  3.01624077117712 -2.19726555805581
 1 -13.10622792049205  2.00048879127913 -1.71132686088609
 1 -12.37018805150515  3.13706104020402 -0.43797423692369
 1 -12.54865683058306 -1.90262118491849 -1.13204670557056
 1 -13.44759705880588 -0.37032974347435 -1.35057081148115
 1 -13.14696989618962 -1.79187284938494 -3.33972493059306
 1 -12.41560196589659  0.00315184388439 -3.63574255265527
 1 -11.29206404580458 -1.50007103430343 -3.31114939313931
 1 -9.43773839243924 -4.66802330313031 -1.82230829382938
 1 -8.04858924412441 -5.65052100540054 -0.94686464156416
 1 -9.23699787878788 -5.01145959435944  0.05189292059206
 1 -3.36552407090709 -3.36315292089209 -0.25554329242924
 1 -1.45343873147315 -4.38175038843884  3.40360207780778
 1 -2.73777021432143 -5.34004352925293  3.77001803950395
 1 -1.55779630013001 -6.03407419221922  2.65475883698370
 1  2.73785183998400 -1.89247587038704 -1.34301575027503
 1  2.93956039733973 -0.39022093729373 -2.23293435093509
 1  4.25375586228623 -0.97366578037804  0.51743314351435
 1  3.94582989448945  1.06051159385939 -2.75005549124912
 1  5.22267920012001  2.08111853575358 -2.24024146254626
 1  5.59814938343835  0.53967515841584 -3.03304956185619
 1  6.36517470137014  1.45110509110911 -0.09996038213821
 1  6.48803667576758 -0.02279961666167  0.85331152665267
 1  7.40293241604160 -1.10947162016202 -1.41976673387339
 1  7.70262282078208  0.13351245424542 -2.04128495139514
 1  9.08196424072407  1.04851434893489 -0.07552512441244
 1  8.70444356515652 -0.57087544024402  0.87735385878588
 1  10.03233786558656  0.02865901370137 -1.89377453545355
 1  9.53247285638564 -2.33107139063906 -2.15434381628163
 1  11.00337947854786 -2.50267366666667 -1.65826118421842
 1  9.68435063216322 -2.73043715841584 -0.52510990469047
 1  11.43583522512251  0.53138957235724  0.13741151195119
 1  11.64947254275428 -0.97185848344834  0.82968928902890
 1  12.91844979747975 -1.60605802510251 -1.12351462296230
 1  12.82657848774877  0.07181211721172 -1.72513684738474
 1  13.66735815611561  0.78895425872587  0.60063489218922
 1  14.05970428102810 -1.02732911181118  1.03173554755476
 1  15.39882028342834  0.46613001000100 -1.48464973377338
 1  15.77056085288529 -2.36415575677568 -0.24016215171517
 1  14.98782042644264 -2.16993151315132 -1.72210358385839
 1  16.65875415501550 -1.70863176017602 -1.65939245254525
 1  16.04463773727373  1.46173450715071  0.82471838813881
 1  16.33026710451045 -0.33417970277028  1.35456395109511
 1  18.18359509720972 -0.37137365136514 -0.40233042864286
 1  17.67965527512751  1.36275516961696 -1.06214195779578
 1  18.35000405730573  2.42474374237424  1.01846379317932
 1  18.84824078657866  0.80518535803580  1.91208445394539
 1  20.56366619891989  0.51826282388239  0.12311820402040
 1  19.86647346584659  3.33412418891889 -0.66871905660566
 1  21.18425222602260  2.56884802690269 -1.16090407160716
 1  19.74466286388639  1.98048833903390 -1.80958934333433
 1  20.88231208470847  1.74588022892289  2.48790245904591
 1  22.26268416121612  1.94097456815682  1.39103575717572
 1  20.65231531003100  3.18409452665267  1.39630676737674

