%nproc=4
%Mem=2GB
# td=(NStates=1) CAM-B3LYP/6-31G(d,p) 

TD

0 1
12 -7.16145671867187  0.58168691679168  0.03681136853685
 6 -4.77835245324532 -1.96661784018402  0.51770830353035
 6 -4.88202813171317  2.78703715101510  1.37751411631163
 6 -9.34367910341034  3.09770526602660 -0.57215007470747
 6 -9.53686400010001 -1.75406091709171 -0.84139056815682
 7 -5.16113953855386  0.42082190029003  0.78720913921392
 6 -4.34710441654165 -0.74829465146515  0.78456647984798
 6 -2.97221622702270 -0.39803922962296  1.25521587578758
 6 -3.05180861926193  0.96167883618362  1.62255298599860
 6 -4.45669266416642  1.42523327212721  1.27205423532353
 6 -2.94110919301930  1.29369165726573  3.19152056095610
 6 -1.87775123612361 -0.64335959735974  0.16284024232423
 6 -0.48225564816482 -0.32334668186819  0.65484961426143
 6  0.51851298849885 -0.58018153105311 -0.46205158565857
 8  0.21852309240924 -1.03999940754075 -1.57702403410341
 8  1.72138394889489 -0.28003539993999 -0.22321911081108
 7 -7.08166861476148  2.58194378417842  0.33406210171017
 6 -6.09270854985499  3.23589456525653  0.90456398999900
 6 -6.43401065416542  4.65011930133013  0.91952263946395
 6 -7.68816152315232  4.82493312481248  0.33340173147315
 6 -8.13354762636264  3.49403859915992 -0.00131758545855
 6 -5.54701265796580  5.82101456735674  1.24390915141514
 6 -8.49569736733673  6.04501553525353  0.11047803320332
 6 -8.37743163446345  7.23997011561156  0.75925217501750
 7 -9.09436170877088  0.58968182928293 -0.53863789748975
 6 -9.81634789448945  1.80340029312931 -0.80351667576758
 6 -11.23600269686969  1.48549688878888 -1.21740345984598
 6 -11.31286369026903  0.07566293039304 -1.19359807380738
 6 -10.00497617831783 -0.43142511681168 -0.88222323842384
 6 -12.31912073577358  2.49442001300130 -1.48822559735974
 6 -12.40830537683768 -0.76731414151415 -1.81336214471447
 6 -12.35465295369537 -0.87398981018102 -3.28339345794579
 7 -7.25677514581458 -1.45373498709871 -0.13204788178818
 6 -8.26992723252325 -2.34226939903990 -0.54964992019202
 6 -7.77373351895189 -3.61235950345035 -0.57484476177618
 6 -6.42387627172717 -3.65106944394439 -0.14154588648865
 6 -6.19567216361636 -2.20700898219822  0.04043684788479
 6 -8.62149961736174 -4.82283512591259 -0.87120559895990
 6 -5.30677514781478 -4.36256013951395  0.13793666626663
 8 -5.17863670157016 -5.55441992539254  0.15616264696470
 6 -4.11099467886789 -3.36625241504150  0.61680154545455
 6 -3.51250188108811 -3.54752997429743  1.91890226312631
 8 -4.01034263486349 -3.11413815001500  2.98736141724172
 8 -2.56313750745074 -4.48645336773677  1.87357593849385
 6 -2.17484807270727 -5.10930515961596  3.02872780828083
 6  2.75565807750775 -0.69042683728373 -1.24368556895690
 6  4.07752984198420 -0.44431260756076 -0.58803895289529
 6  5.07981146554655  0.29613587898790 -1.09920969366937
 6  5.00109853285328  1.31672432173217 -2.18548271357136
 6  6.40963529632963  0.38302015221522 -0.25382186738674
 6  7.63402093999400 -0.23044339123912 -0.99705665616562
 6  8.97753962656266 -0.20232536293629 -0.32388420122012
 6  10.23413403790379 -0.70001707340734 -1.07701867236724
 6  10.17075377557756 -2.14599553565357 -1.41644510951095
 6  11.42058493539354 -0.37807158795880 -0.05855498689869
 6  12.76699160686069 -0.52247629872987 -0.66657668056806
 6  13.97965743414341  0.00040883808381  0.24692175967597
 6  15.41125725062506 -0.26566029512951 -0.36266450625063
 6  15.71599326822682 -1.78812644644464 -0.60427004470447
 6  16.44160826672667  0.50205456545655  0.42238674587459
 6  17.76572116151615  0.56303770217022 -0.08740455505551
 6  18.80008037753775  1.31978019501950  0.64816524952495
 6  20.30730940014001  1.37332766626663  0.12047681088109
 6  20.45530688448845  2.27907620482048 -1.16284727742774
 6  21.15490642144215  2.02528546484648  1.23604896829683
 1 -4.21112259675968  3.42875839723972  1.64776936383638
 1 -10.09875026772677  3.78860969596960 -0.63200859235924
 1 -10.14579786918692 -2.54819416021602 -0.98108476067607
 1 -3.06130258715872 -0.85596391029103  2.19554024522452
 1 -2.20004360956096  1.60555413801380  1.30852150255026
 1 -2.01200565806581  1.06699715261526  3.57961167466747
 1 -3.14113917391739  2.36988104560456  3.38511067646765
 1 -3.72484592729273  0.75437012101210  3.83509592239224
 1 -1.71386387128713 -1.57978793919392 -0.30105401460146
 1 -2.04811648414841  0.04095134553455 -0.80053009260926
 1 -0.33308682608261  0.60801541544154  1.13420381948195
 1 -0.28973677567757 -1.12823733893389  1.49676363156316
 1 -5.71611038643864  6.70388903300330  0.70994670387039
 1 -5.80658764816482  6.18537190029003  2.28293459055906
 1 -4.40128408440844  5.46895806220622  1.23803697929793
 1 -9.23415546804681  6.02531867996800 -0.47874810301030
 1 -8.82835405130513  8.03876461536154  0.49631925372537
 1 -7.62607207300730  7.35488188768877  1.62879126462646
 1 -12.07031113621362  3.17305763176318 -2.45005801050105
 1 -13.20032970217022  1.89644353555356 -1.72920411191119
 1 -12.22744447554756  3.04542319701970 -0.50426167016702
 1 -12.67509228762876 -1.73877332243224 -1.33548850375037
 1 -13.33353207210721 -0.38447518431843 -1.56970249774978
 1 -13.27028338093809 -1.32315700190019 -3.66875676017602
 1 -12.24227779197920  0.09547500990099 -3.88837233293329
 1 -11.49685596489649 -1.41161602870287 -3.48082670267027
 1 -8.92813241624163 -4.75967671057106 -2.09654291839184
 1 -7.91031039583958 -5.59771977617762 -0.84938455145515
 1 -9.34486437133713 -4.92863788508851 -0.23237506010601
 1 -3.46340703660366 -3.45129838053805 -0.36161143264326
 1 -1.57581574807481 -4.29781622132213  3.51969488478848
 1 -2.96908651725173 -5.43030464806481  3.65163800270027
 1 -1.61092920442044 -6.03079235243524  2.85785973887389
 1  2.65480478457846 -1.83403523942394 -1.34695866086609
 1  2.39954743234323 -0.06495221562156 -2.02438559075908
 1  4.32028293389339 -1.06026824202420  0.24421763776378
 1  3.98105706920692  1.16983569396940 -2.69565793549355
 1  5.24054946664666  2.50295055395540 -1.92642911111111
 1  6.00816812441244  1.11953306080608 -2.91990072107211
 1  6.58355041794179  1.44560856085609 -0.13090044724472
 1  6.45096921632163 -0.11626966436644  0.63517323402340
 1  7.22140952565256 -1.28148738393839 -1.31325264886489
 1  7.72131456735674  0.18694190229023 -1.99373229682968
 1  9.26560861246125  0.77179506450645 -0.06959932773277
 1  8.92020050875088 -0.81669717591759  0.63239110281028
 1  10.33182073347335  0.06028856655666 -1.89405429492949
 1  9.28900388588859 -2.38739671617162 -2.17851377617762
 1  10.91143369906991 -2.39417620152015 -1.88156240014001
 1  9.97880076607661 -2.75685762776278 -0.41778121782178
 1  11.35087276817682  0.85423765396540  0.15366685418542
 1  11.30047310071007 -0.76359232053205  1.05199582118212
 1  13.02533585248525 -1.60174833603360 -0.90061772937294
 1  12.80755450795079  0.26602729372937 -1.64402776407641
 1  13.93137457415742  0.88782133813381  0.54827217021702
 1  14.08282103520352 -0.67111671637164  1.15918243474347
 1  15.50012330083008  0.26370585558556 -1.39186354435444
 1  15.86081352425242 -2.31993228532853  0.45821436753675
 1  14.85271832253225 -2.38736111171117 -1.10068748384839
 1  16.57216684608461 -1.89534505940594 -1.08907037653765
 1  16.04418961966196  1.45797363106311  0.65722226652665
 1  16.55927037423742 -0.08418759385939  1.33556631783178
 1  18.11782272097210 -0.57081362876288 -0.50248358875888
 1  17.80688775327533  0.96442376127613 -1.05416899269927
 1  18.34163495609561  2.26172032973297  0.58333633893389
 1  18.90361752205221  0.82646682768277  1.68548854915492
 1  20.65479039173918  0.25251139933993 -0.30323325932593
 1  19.95389949654965  3.29065262716272 -1.01469506290629
 1  21.54105835793579  2.40581723452345 -1.26137750105010
 1  20.03480738513852  1.69865167596760 -1.95271224022402
 1  21.00413638883888  1.32155026412641  1.96840645784578
 1  22.32446415271527  2.12922415211521  0.89343430973097
 1  20.87849757965797  2.94952503580358  1.52109254975498

