%nproc=4
%Mem=2GB
# td=(NStates=1) CAM-B3LYP/6-31G(d,p) 

TD

0 1
<<<<<<< HEAD
12 -7.09553012601260  0.65662441054105  0.11576926432643
 6 -4.83038765676568 -1.97511869026903  0.56077260996100
 6 -4.73707363626363  2.90312876017602  1.20591695659566
 6 -9.36124085958596  3.12282777827783 -0.56743960366037
 6 -9.58374868856886 -1.74436994799480 -0.80923735283528
 7 -5.08216164076408  0.36887670577058  0.69184960326033
 6 -4.30206991309131 -0.66761658365837  0.82360038323832
 6 -2.95241424682468 -0.31702112781278  1.20909126332633
 6 -2.97433087148715  1.10180284858486  1.69340007070707
 6 -4.40359735463546  1.50807155595560  1.21326835673567
 6 -2.98694377647765  1.16403869196920  3.30781219011901
 6 -1.85110857185719 -0.54180944234423  0.09180313861386
 6 -0.51745916851685 -0.13706805400540  0.52954708400840
 6  0.45561669886989 -0.52608612151215 -0.68517389788979
 8  0.14535577567757 -1.00930633823382 -1.75774210591059
 8  1.72357416791679 -0.45468286468647 -0.24231102000200
 7 -7.11590203810381  2.57087267706771  0.31640033553355
 6 -6.08257753675368  3.32197317311731  0.86141967556756
 6 -6.54274152725272  4.75847013641364  0.85311599879988
 6 -7.75458816581658  4.79471010251025  0.23620201150115
 6 -8.07743201480148  3.50295949124913 -0.06013346704670
 6 -5.65057301400140  5.86198866476648  1.36261102160216
 6 -8.53554135173517  5.94606564026403  0.21089807520752
 6 -8.49106299759976  7.08656477507751  0.88918516831683
 7 -9.10580285288529  0.62397525862586 -0.54726876057606
 6 -9.81294755445544  1.73422337543754 -0.74842116621662
 6 -11.20049914651465  1.45181352045205 -1.26165788528853
 6 -11.20730313421342  0.02723808790879 -1.31289000300030
 6 -9.93200888158816 -0.37409938423842 -0.92530754685469
 6 -12.28781760546055  2.39853042404240 -1.66497327212721
 6 -12.33127767406741 -0.80509791989199 -1.78599940844084
 6 -12.33778126652665 -0.99828223942394 -3.31798691729173
 7 -7.17990745904591 -1.38339795339534 -0.26082075907591
 6 -8.30014025382538 -2.23530870297030 -0.47642259745975
 6 -7.93519966556656 -3.62819108660866 -0.44649192649265
 6 -6.49265314941494 -3.42713705070507 -0.04823655555556
 6 -6.19099169556956 -2.11694997629763  0.08938174237424
 6 -8.55642310971097 -4.90283312571257 -0.65477395579558
 6 -5.35152962326233 -4.34486837033703  0.21474434703470
 8 -5.13486232413241 -5.56435091849185  0.11753878457846
 6 -4.14503808320832 -3.31400719051905  0.66761662696270
 6 -3.65275590649065 -3.67567278857886  1.92439281218122
 8 -3.74354595519552 -3.06048278447845  3.04333701480148
 8 -2.86618781248125 -4.87829255165517  1.86860544144414
 6 -2.29696028392839 -5.33473770287029  3.16641157665767
 6  2.74587709940994 -0.60764855945595 -1.29678087848785
 6  4.07408949794980 -0.49119729602960 -0.61650179917992
 6  5.13807729212921  0.32403866926693 -0.95689546224622
 6  5.07224564756476  1.11092374167417 -2.26334049934993
 6  6.42411674447445  0.31983383358336 -0.24711119631963
 6  7.62466000390039 -0.32030237713771 -1.04870182068207
 6  8.94881675427543 -0.02098722912291 -0.18533034583458
 6  10.15564618911891 -0.52332940464046 -0.87483845434543
 6  10.21131783198320 -2.05555649174917 -1.17867133213321
 6  11.36307918481848 -0.08506228702870 -0.10306943834383
 6  12.76811171887189 -0.36050010111011 -0.74159418231823
 6  13.99585905430543  0.01186998419842  0.13687075457546
 6  15.32674879977998 -0.20020374947495 -0.53846208600860
 6  15.68831049994999 -1.70281791559156 -0.99219883758376
 6  16.48382248814881  0.43108746874687  0.32980748794879
 6  17.89559414881488  0.49159055745575 -0.21751756635664
 6  18.84657502700270  1.28248646564656  0.75228566156616
 6  20.32471114031403  1.31514184768477  0.27248201140114
 6  20.48296965076508  2.10810910811081 -0.98615960866087
 6  21.30824175497550  1.88868180448045  1.42597796119612
 1 -3.98300978547855  3.55414093549355  1.57281186808681
 1 -10.04804519721972  3.84403523852385 -0.70079547104710
 1 -10.26071936133613 -2.49095843664366 -1.23113976617662
 1 -2.85187164406441 -0.91848016191619  2.24079477067707
 1 -2.12833643884388  1.89696327892789  1.27449810021002
 1 -2.12372683018302  0.47506795969597  3.79135284878488
 1 -2.85222028202820  2.27167122462246  3.64069623502350
 1 -4.05034847754775  0.76246093009301  3.69324173697370
 1 -1.75704818971897 -1.62074203460346 -0.12293620282028
 1 -2.06832850535054  0.16839408980898 -0.79180922052205
 1 -0.26888040544054  0.83269788368837  0.84187458655866
 1 -0.11505930793079 -0.71597611281128  1.27259121432143
 1 -6.17471624702470  6.89936858095809  0.82172788198820
 1 -5.82583957335734  6.18343170627063  2.41647794489449
 1 -4.59440339633963  5.63165433183318  1.19014218981898
 1 -9.47696974947495  5.91047719581958 -0.56911713991399
 1 -9.22180339623962  7.76038677757776  0.91442106390639
 1 -7.67581704750475  7.52691909140914  1.48074646014601
 1 -12.12539664476448  3.15708603460346 -2.54160716541654
 1 -13.11863153235323  1.86437032823282 -2.12327351885188
 1 -12.62602433353335  3.02311096579658 -0.84965620962096
 1 -12.44293907230723 -1.77638708380838 -1.30879583448345
 1 -13.28256697559756 -0.46003274007401 -1.34344987248725
 1 -13.00227658025802 -1.67837252345234 -3.84115399989999
 1 -12.19060262446245 -0.01119565716572 -3.90866436213621
 1 -11.22651893119312 -1.33240810791079 -3.63559217921792
 1 -9.27742734573457 -4.73326406930693 -1.47104036813681
 1 -7.72367173197320 -5.71032103630363 -0.82050166316632
 1 -9.39831971687169 -5.12967798909891  0.13172134953495
 1 -3.34286498239824 -3.62698594929493 -0.00863613511351
 1 -1.44222238873887 -4.53862030173017  3.39175209050905
 1 -3.05267487608761 -5.61467308490849  3.88260109900990
 1 -1.94312242374237 -6.40370964416442  2.61453540644064
 1  2.68927823192319 -1.57691952785278 -1.86764072907291
 1  2.52457993559356  0.13555783538354 -2.08649180138014
 1  4.20754165976598 -1.13216543174318  0.22060527652765
 1  3.99088805230523  1.32633134353435 -2.43671204090409
 1  5.50469588128813  1.96687694659466 -2.10094656285629
 1  5.55485279287929  0.38860996849685 -3.18563729472947
 1  6.62444450735074  1.36999099909991  0.13252589538954
 1  6.12437655705571 -0.22287032443244  0.83056277297730
 1  7.33637102180218 -1.31638087328733 -1.47510883448345
 1  7.64623705960596  0.05842905100510 -2.05939886348635
 1  8.81447349894989  1.08373625862586  0.21528916111611
 1  8.93031151985199 -0.58856436263626  0.70016788048805
 1  10.20474802620262 -0.01940940324032 -1.88904379387939
 1  9.31998698419842 -2.25740371687169 -1.82324824962496
 1  11.13560611631163 -2.37727451135113 -1.69039328322832
 1  10.15597848384839 -2.66728867086709 -0.14074351405141
 1  11.41755943684369  1.08867109730973  0.19355084258426
 1  11.26522957635764 -0.60775673697370  0.86422704430443
 1  12.79257257615762 -1.51847000820082 -1.07528519611961
 1  12.88773252575258  0.30702139313931 -1.74998836013601
 1  13.93904534123412  0.98231078707871  0.40014735773577
 1  14.20235298839884 -0.63263286798680  1.02282879937994
 1  15.43328661716172  0.34190367536754 -1.58509286728673
 1  15.87256469936994 -2.25503579567957 -0.21150260416042
 1  14.86352940364037 -2.05925830143014 -1.54873228832883
 1  16.67967759715972 -1.75424094899490 -1.44373584308431
 1  16.25277047774777  1.55956379007901  0.77067361166117
 1  16.49015346254625 -0.28979815491549  1.34380714191419
 1  18.21080201890189 -0.62002855025503 -0.30773411381138
 1  18.00589765426543  0.86715403430343 -1.45759933573357
 1  18.54844563716372  2.45288944664466  0.56083408870887
 1  18.63894105440544  0.82895707670767  1.67432743304330
 1  20.48904381708171  0.15426157435743  0.24259132313231
 1  20.32024613121312  3.04918848074807 -0.86698029142914
 1  21.54213846594660  2.38820547334733 -1.24718608190819
 1  19.87773167756776  1.67312912371237 -1.73162013101310
 1  21.11278725392539  1.50705881498150  2.39292891009101
 1  22.31900360666067  1.97999922962296  0.89306427272727
 1  20.98789851975198  2.90258034133413  1.59354979547955
=======
12 -7.12734330733073  0.56051479957996  0.03129081648165
 6 -4.93086770477048 -1.93536471487149  0.47474400710071
 6 -4.81984191309131  2.82719116641664  1.16649301420142
 6 -9.40218495399540  3.10173566906691 -0.53316617631763
 6 -9.54376469016902 -1.70937644864486 -0.85788221732173
 7 -5.08293171777178  0.42706252435244  0.69580999929993
 6 -4.32507221332133 -0.75605542754275  0.77934595779578
 6 -2.91666067146715 -0.37443686938694  1.14567492169217
 6 -2.97380081848185  1.00786345464546  1.58711944264426
 6 -4.43054004890489  1.53504425322532  1.02213924382438
 6 -2.94119920202020  1.24135642374237  3.08862027092709
 6 -1.92400586158616 -0.64333959535954  0.08907286558656
 6 -0.51261868446845 -0.51752609980998  0.56867099639964
 6  0.40117125432543 -0.74466797969797 -0.44304968546855
 8  0.20111135123512 -1.15055046264626 -1.62770910261026
 8  1.67924973547355 -0.53395079147915  0.00583379447945
 7 -7.07921836973697  2.60507609740974  0.27509620512051
 6 -6.05870514951495  3.30917189298930  0.73087662126213
 6 -6.44695194829483  4.68688297769777  0.86876756395640
 6 -7.72525523252325  4.82500313181318  0.30084847614761
 6 -8.18061233283328  3.50234943024302 -0.03742119581958
 6 -5.46869482618262  5.80916338223822  1.26155091559156
 6 -8.52253005060506  5.98996002970297  0.09922690809081
 6 -8.41706559785979  7.10914703330333  0.77202345214521
 7 -9.10624289688969  0.73011587268727 -0.58965299899990
 6 -9.89567582728273  1.84008396149615 -0.76899322342234
 6 -11.12185128172817  1.45135347444745 -1.22453417291729
 6 -11.26607901180118  0.10444580868087 -1.33670238423842
 6 -9.86357203790379 -0.36885886018602 -0.93652866896690
 6 -12.28715753945395  2.51496206720672 -1.39983675847585
 6 -12.49384393069307 -0.57634504460446 -1.80623143164316
 6 -12.32447993639364 -1.01700411161116 -3.31239635823582
 7 -7.31148061636164 -1.35142475607561 -0.18083276027603
 6 -8.30545078487849 -2.19632480458046 -0.49480443564356
 6 -7.94662080768077 -3.64039230673067 -0.52488976627663
 6 -6.54129801390139 -3.48902323932393 -0.03827555945595
 6 -6.27797039343934 -2.18616689798980  0.17998080228023
 6 -8.66612407980798 -4.90105294769477 -0.70903938233823
 6 -5.43607807810781 -4.41435531903190  0.28457132973297
 8 -5.32950178807881 -5.57535201860186  0.26905393609361
 6 -4.26247982738274 -3.33343913371337  0.56921678697870
 6 -3.56756738763876 -3.63385860716072  1.84307468036804
 8 -3.75631723232323 -3.17598433463346  2.97591027212721
 8 -2.62757395109511 -4.71095581798180  1.68578715961596
 6 -2.14508509640964 -5.18067229632963  2.88770370587059
 6  2.83000551225122 -0.55477327192719 -0.86756795719572
 6  4.20946303530353 -0.40033821012101 -0.28865901490149
 6  5.17616110051005  0.42724899029903 -0.76258603130313
 6  5.05888431143114  1.24413706300630 -2.05499966526653
 6  6.59530386318632  0.43422527272727 -0.13755024022402
 6  7.74870240814081 -0.20990133703370 -0.93330028052805
 6  9.04171604420442 -0.07871300170017 -0.16885869866987
 6  10.22831345584558 -0.63547061876188 -0.85598656915692
 6  10.03274997519752 -2.12570350645065 -1.24884834983498
 6  11.53247612451245 -0.33358713951395 -0.07074620602060
 6  12.80167507520752 -0.39519357045705 -0.91193121602160
 6  14.03982345074507 -0.12100330313031 -0.01496442894289
 6  15.39775590049005 -0.28041177027703 -0.65101334113411
 6  15.77845951485148 -1.67443507730773 -1.03452307000700
 6  16.51628573447345  0.34073843384338  0.38567307450745
 6  17.91019560896089  0.54233563196320 -0.21341715631563
 6  18.78582895239524  1.31004922192219  0.77435786878688
 6  20.21029969916992  1.44510484398440  0.24571933513351
 6  20.37582893669367  2.16305460266027 -1.01187217991799
 6  21.13072400320032  2.18840177647765  1.26687205060506
 1 -4.20864234873487  3.48367388878888  1.53538812571257
 1 -10.12777317001700  4.03754458945895 -0.61684707620762
 1 -10.22959624902490 -2.41298063886389 -0.82891954415442
 1 -2.67787424432443 -1.06280459435944  2.14596528772877
 1 -2.19551315651565  1.56717029962996  1.02727337773777
 1 -1.97346180368037  1.14501495439544  3.60136384988499
 1 -3.22860792079208  2.38664272177218  3.43948611401140
 1 -3.71496493919392  0.67442212621262  3.87633004580458
 1 -2.05612809770977 -1.75765572597260 -0.37365127432743
 1 -2.39865153765377 -0.07790053965397 -0.72454249384939
 1 -0.12472598999900  0.28093270717072  1.23095349444944
 1 -0.43357115911591 -1.20988550375037  1.41401535673567
 1 -5.75613438883888  6.89253789788979  0.87083279247925
 1 -5.29426641604160  5.89700306340634  2.25828212531253
 1 -4.35952990899090  5.62099326572657  0.81062423802380
 1 -9.48925097759776  5.90925707380738 -0.52583281148115
 1 -8.98226944284428  7.95167590649065  0.45696531833183
 1 -7.73513297909791  7.10291669116912  1.59881826732673
 1 -11.92816692179218  3.23358368436844 -2.11277428212821
 1 -13.03956362556256  1.95144903610361 -1.60413160466047
 1 -12.56056778787879  3.06076473117312 -0.43138438243824
 1 -12.58722350075008 -1.53637308240824 -1.54043899879988
 1 -13.42535125402540 -0.13648038483848 -1.70541606910691
 1 -13.25833218581858 -1.67599228542854 -3.66414629912991
 1 -12.03138670287029 -0.11356589418942 -3.81772526822682
 1 -11.47895417471747 -1.82669753685369 -3.48895751575157
 1 -8.80667027002700 -5.06204694759476 -1.93637690179018
 1 -7.91814117891789 -5.66508651285128 -0.45277489048905
 1 -9.65317520242024 -4.91261628292829 -0.40852267486749
 1 -3.50560125602560 -3.42355560626063 -0.25242051355136
 1 -1.52902106860686 -4.49903634333433  3.41895481078108
 1 -2.95521513011301 -5.49451106870687  3.69351219011901
 1 -1.56038414991499 -6.12489176237624  2.57744169706971
 1  2.75242454655466 -1.60975281118112 -1.42912687768777
 1  2.55575305290529  0.19316359595960 -1.68041119331933
 1  4.23935484108411 -0.86896911211121  0.79182239823982
 1  3.86762572607261  1.57253596399640 -2.09920829052905
 1  5.73234864656466  2.09584984388439 -1.90292676087609
 1  5.55766307390739  0.48017912541254 -2.93574230523052
 1  6.93149521242124  1.56958095809581  0.09965260806081
 1  6.46665078447845  0.11683364596460  0.83332304900490
 1  7.58128551325133 -1.37866710191019 -1.19663098669867
 1  7.85190762666267  0.46664987308731 -1.82189511311131
 1  9.17429948154815  0.98161604660466  0.09305693789379
 1  8.95806429512951 -0.52215772197220  0.91581944564456
 1  10.21628918031803 -0.03275073737374 -1.68502339183918
 1  9.10850583608361 -2.00519849634963 -2.00452637743774
 1  10.81820437613761 -2.60023680758076 -1.74063830773077
 1  9.74377726372637 -2.71401334333433 -0.34731417111711
 1  11.48441612251225  0.67975020522052  0.43617510501050
 1  11.69431248464847 -1.16412237353735  0.67182780438044
 1  12.76087940684068 -1.47228538973897 -1.41157882548255
 1  12.67375112761276  0.33891458245825 -1.65448881018102
 1  13.89307074377438  0.96384894089409  0.36910425342534
 1  13.82650540364036 -0.83380298499850  0.84855137163716
 1  15.56592988148815  0.29560904590459 -1.65240959895990
 1  15.86464390729073 -2.29163945604561 -0.04293574747475
 1  15.02912596329633 -2.07260963656366 -1.70028744384438
 1  16.75671530093009 -1.75984150905091 -1.68319978947895
 1  16.08266346704670  1.21420925462546  0.68445498979898
 1  16.39718416561656 -0.37410658575858  1.25059782098210
 1  18.38438937763776 -0.49457600500050 -0.51218455885589
 1  17.70339740424043  1.09814713361336 -1.03519709550955
 1  18.35411620422042  2.31500565826583  0.86351435673567
 1  18.79675683598360  1.12834701570157  1.81391139143914
 1  20.54471938463847  0.48822497069707  0.10646771077108
 1  19.89474358095809  3.14989855175518 -0.95942953635363
 1  21.34452870497050  2.31177783058306 -1.49114047734774
 1  19.98785268966897  1.51289310011001 -1.76018298729873
 1  21.34465044024402  1.74992310141014  2.33793341054105
 1  22.18919062536254  2.25875710541054  0.93067803410341
 1  20.76218594849485  3.23766384968497  1.17585802630263
>>>>>>> 8e03b5b5abfc0030b3aa597dc0de36371bfbd096

