%nproc=4
%Mem=2GB
# td=(NStates=1) CAM-B3LYP/6-31G(d,p) 

TD

0 1
12 -7.12924349734973  0.59373812191219 -0.00510282288229
 6 -4.84139875787579 -1.93979515791579  0.38923545624562
 6 -4.90600052895290  2.83843229052905  1.10565693059306
 6 -9.43344808030803  3.13387888338834 -0.35393825352535
 6 -9.61813212691269 -1.76849236023602 -0.83391982108211
 7 -5.15860928552855  0.45803562166217  0.67475789408941
 6 -4.42458216431643 -0.69211903390339  0.68138616181618
 6 -2.97918692409241 -0.31278070377038  1.20538089228923
 6 -3.08833227162716  1.15261793009301  1.62752348304830
 6 -4.46720371527153  1.49904065286529  1.11969899979998
 6 -2.94931001310131  1.43457574567457  3.15819722862286
 6 -1.89224268526853 -0.59519478087809  0.12277623592359
 6 -0.42470989358936 -0.41930627782778  0.57437156645665
 6  0.59320045724572 -0.66924043694369 -0.56056143664366
 8  0.24315555565557 -0.98775418301830 -1.73905023672367
 8  1.85228703920392 -0.41620901730173 -0.23741052995300
 7 -7.10622107000700  2.59424501430143  0.36210490599060
 6 -5.99721900090009  3.33362433823382  0.76943047664766
 6 -6.40819807290729  4.82133642304230  0.77855854305431
 6 -7.80668337533753  4.83220385188519  0.38081647294729
 6 -8.13847811941194  3.42870206550655  0.15890843714371
 6 -5.56550450715071  5.95116758265827  1.17544230473047
 6 -8.64444224182418  6.06376741044104  0.14040102550255
 6 -8.50905479677968  7.14763088168817  0.88876512631263
 7 -9.13034530713071  0.68210107120712 -0.60725475917592
 6 -9.84208046774677  1.74615456855686 -0.62627895199520
 6 -11.20744984158416  1.40917925702570 -1.10964268376838
 6 -11.34162656655666  0.05719108320832 -1.24776349034903
 6 -9.92016769746975 -0.39558153245325 -0.91722673877388
 6 -12.40433925762576  2.39484005500550 -1.31470824562456
 6 -12.33496804310431 -0.85182259235924 -1.71895270377038
 6 -12.27789527792779 -1.24943735493549 -3.23027814641464
 7 -7.27318678697870 -1.44097371097110 -0.25124980198020
 6 -8.33022326212621 -2.23570874297430 -0.52380733593359
 6 -7.88291443704370 -3.56399466696670 -0.46017329462946
 6 -6.58608249234924 -3.57013135013501 -0.15130686258626
 6 -6.20049264566457 -2.23157143844384  0.10384318851885
 6 -8.63386085348535 -4.87170001240124 -0.67559603800380
 6 -5.36604107440744 -4.31761564506451  0.14957783038304
 8 -5.00920975887589 -5.56012049544954  0.08311534223422
 6 -4.22338591799180 -3.23315910571057  0.47901776707671
 6 -3.55430606150615 -3.62171739303930  1.82149252215222
 8 -3.71026262686269 -3.09949668586859  2.87888056915692
 8 -2.63041423512351 -4.56539126152615  1.68181676257626
 6 -2.04143473137314 -5.07674190329033  2.91353628912891
 6  2.83951646334633 -0.46593438803880 -1.19069026942694
 6  4.09123121212121 -0.30888906520652 -0.46119626862686
 6  5.23195668006801  0.36379264466447 -0.84783455615562
 6  5.19770819381938  1.16519916921692 -2.10215438073807
 6  6.50590492329233  0.46285813601360 -0.14016050125013
 6  7.61149868776878 -0.20860120702070 -0.88639559005901
 6  8.94662653525353 -0.30933606400640 -0.04943675647565
 6  10.28792941744174 -0.69614668636864 -0.77885885638564
 6  10.07472417261726 -2.18582951905191 -1.22478594359436
 6  11.48637151405141 -0.38301208200820  0.07421829042904
 6  12.77290219791979 -0.68417246834683 -0.68086810971097
 6  13.96980644904490 -0.26989819261926  0.23435050255025
 6  15.33966009090909 -0.22272600170017 -0.49016725652565
 6  15.82190385928593 -1.76930456425643 -0.66378599629963
 6  16.40998510441044  0.41770613061306  0.42840734793479
 6  17.74426901630163  0.70697209560956 -0.27472328692869
 6  18.76658702820282  1.37540575757576  0.68916934993499
 6  20.23726239543954  1.47869820332033  0.10182494569457
 6  20.26286764056406  2.19746804400440 -1.26994798749875
 6  21.25534646544655  1.88684162046205  1.16689205260526
 1 -4.23938542304230  3.47808332973297  1.47993258015802
 1 -10.22375276797680  3.60305114011401 -0.30186557805781
 1 -10.43657694709471 -2.65208454925493 -0.76143279547955
 1 -2.71404786168617 -0.82105041894189  2.14229492069207
 1 -2.27290089528953  1.82008559115912  1.15732638303830
 1 -1.91641609910991  1.15879633253325  3.41041475497550
 1 -2.92994805480548  2.42288634613461  3.18341050645064
 1 -3.62484592729273  0.72065674967497  3.74091650445044
 1 -2.06769925482548 -1.81121108150815  0.00315640644064
 1 -2.32643431593159 -0.07828057765777 -0.83468350795080
 1 -0.45797931533153  0.60442505640564  0.89925032413241
 1 -0.37693549554955 -1.13217773297330  1.47585154035403
 1 -5.84409318471847  6.86781542564256  0.66513222242224
 1 -5.58586557595760  6.31658502160216  2.19456575367537
 1 -4.42398635463546  5.90541170757076  1.11669484508451
 1 -9.28402045454546  6.28862501060106 -0.82387261546155
 1 -9.07423863976398  7.97497823672367  0.73596321812181
 1 -8.00322978877888  7.00362676217622  2.02925131063106
 1 -12.19368347344735  3.04216454245425 -2.16849985468547
 1 -13.24895456465647  1.83875776697670 -1.52688387988799
 1 -12.68427015811581  3.24344299899990 -0.61811305530553
 1 -12.13878865726573 -1.88663810891089 -1.23916887178718
 1 -13.28728744764476 -0.37844458125813 -1.68683421092109
 1 -13.06390274287429 -1.82499718591859 -3.60635051955195
 1 -12.10914447864787 -0.37080161776178 -3.75762925862586
 1 -11.37189346864687 -1.90107497459746 -3.24319293929393
 1 -8.88523812681268 -4.84185492839284 -1.77224048814881
 1 -7.88577794259426 -5.76200620482048 -0.51839145214521
 1 -9.56567645254525 -5.18774379567957 -0.13798562116212
 1 -3.46665736163616 -3.41669492019202 -0.38993426492649
 1 -1.80336850335034 -4.03654009370937  3.47899081438144
 1 -2.86691630023002 -5.46636825442544  3.47618045694570
 1 -1.18204631613161 -5.84348362156216  2.69143309620962
 1  3.09898920302030 -1.37997983388339 -1.76430039503950
 1  2.82734021162116  0.38346262586259 -1.79557270947095
 1  4.18710961656166 -0.92372458765877  0.32120533653365
 1  4.20331929542954  1.24749345974597 -2.50399876957696
 1  5.64884029572957  2.15112537143714 -2.12982945114512
 1  5.72860016761676  0.58629973747375 -2.87888661966197
 1  6.57942000490049  1.55461946194619  0.01616425922592
 1  6.44255837523752 -0.06782481988199  0.73400311701170
 1  7.21996938163816 -1.20273950915092 -1.17505882948295
 1  7.93542597849785  0.41371457955796 -1.74778770237024
 1  9.12526457805780  0.70384826982698  0.41899953215322
 1  8.93892238093809 -1.04788029422942  0.56156402010201
 1  10.16787433883388 -0.11121858415842 -1.82176706620662
 1  8.98194317981798 -2.32213018951895 -1.75578150295030
 1  11.01690424612461 -2.59708649254925 -1.57173141704170
 1  9.94108699469947 -3.04152609460946 -0.43551299099910
 1  11.40252793369337  0.63518574877488  0.20200168766877
 1  11.41024407780778 -0.97559352065207  1.24299492109211
 1  12.81952527142714 -1.89822798399840 -0.98526619421942
 1  12.97815156765676 -0.11781109010901 -1.53318667996800
 1  13.61835327202720  0.77385994199420  0.58470581358136
 1  14.10946369946995 -0.91993159785979  1.13369988648865
 1  15.22676596509651  0.21303078807881 -1.40287464546455
 1  15.74720216311631 -2.36359665176518  0.26762530863086
 1  14.99208225892589 -2.20751312691269 -1.38851626672667
 1  16.69571920132013 -1.84570009490949 -1.13456492599260
 1  15.76731193189319  1.28571640534053  0.94307085138514
 1  16.45095954315432 -0.26219539463946  1.43949671087109
 1  18.23052399109911 -0.16843339073907 -0.53300664106411
 1  17.72169923442344  1.40424774367437 -1.16812038783878
 1  18.55414620722072  2.31366552425243  1.13448145344534
 1  18.85246240654066  0.59423360436044  1.55585558585859
 1  20.28757367006701  0.35817196539654  0.06605366936694
 1  20.06326043264326  3.19393295519552 -0.80066365976598
 1  21.22209646174618  2.43297995079508 -1.62916427972797
 1  19.61645554995500  1.89313112391239 -1.84440140914091
 1  21.35259123432343  1.03717182628263  2.10789040624062
 1  22.16603831013101  1.81417264696470  0.69249421572157
 1  21.11276100600060  2.94468455175518  1.31902234273427

