%nproc=4
%Mem=2GB
# td=(NStates=1) CAM-B3LYP/6-31G(d,p) 

TD

0 1
12 -7.03095366836684  0.63197194529453  0.07353504090409
 6 -4.93955857385739 -1.94072525092509  0.63381991469147
 6 -4.83132306120612  2.91549999729973  1.24023038793879
 6 -9.36839157465747  3.13447894339434 -0.49161202090209
 6 -9.52265257895790 -1.71581709270927 -0.98540496959696
 7 -5.07360078467847  0.46311612971297  0.83859427772777
 6 -4.27371707780778 -0.74384420642064  0.85076309950995
 6 -2.95259426482648 -0.37508693439344  1.27597795199520
 6 -3.06009944834483  1.11081374967497  1.81943267396740
 6 -4.40114710961096  1.49019976877688  1.18775580548055
 6 -3.01438652075208  1.15207749584958  3.33478488738874
 6 -1.91858531953195 -0.69719498089809  0.14568852715272
 6 -0.53366078867887 -0.66241058825883  0.61475560486049
 6  0.48765990319032 -0.84545805870587 -0.52817819831983
 8  0.19150039013901 -1.28362376997700 -1.59539587128713
 8  1.73769558005801 -0.53543093949395 -0.12609939883988
 7 -7.09527997589759  2.56652224202420  0.31569026452645
 6 -5.97808708770877  3.31918289408941  0.81403493709371
 6 -6.36961421452145  4.73158744814481  0.73783447064706
 6 -7.65008771577158  4.89901053255326  0.32454084538454
 6 -8.08341261286129  3.47642683798380 -0.04724217791779
 6 -5.56314427112711  5.90887335323532  1.06089084958496
 6 -8.40896869446945  6.18103913761376  0.04941192659266
 6 -8.27301119241924  7.20645676427643  0.78838508830883
 7 -9.04997727032703  0.70985384648465 -0.58050208390839
 6 -9.76043230293029  1.85181513461346 -0.76218254235424
 6 -11.09732882948295  1.44814315341534 -1.23903562306231
 6 -11.14659706360636  0.14963032713271 -1.43071178517852
 6 -9.81997767846785 -0.34313628792879 -0.91550656675668
 6 -12.19360818451845  2.48853942494249 -1.27175395019502
 6 -12.37089163546355 -0.71845925602560 -1.88594940344034
 6 -12.21630911931193 -1.16753916511651 -3.39179429802980
 7 -7.26217568586859 -1.35577519111911 -0.11801647864786
 6 -8.26823706350635 -2.18186335843584 -0.60790574577458
 6 -7.90314646024602 -3.57664593209321 -0.56217349464947
 6 -6.55883976807681 -3.52329666666667 -0.05974770667067
 6 -6.32581517791779 -2.20720900220022  0.24115691989199
 6 -8.60697816521652 -4.76406924932493 -1.01810028842884
 6 -5.35691016131613 -4.37870175367537  0.35151802440244
 8 -5.25367420532053 -5.53280776417642  0.25736276697670
 6 -4.19002258165817 -3.29496528632863  0.64058392369237
 6 -3.58765939683968 -3.80479570087009  1.95876624952495
 8 -3.65582718331833 -3.19601633783378  3.08119080018002
 8 -2.77656885058506 -4.72439716211621  1.85804438533853
 6 -2.23915450335033 -5.22597682678268  3.11769670517052
 6  2.77698020972097 -0.76866466106611 -1.17709891029103
 6  4.05593768276828 -0.49031720802080 -0.49739988898890
 6  5.03489697409741  0.20376664206421 -1.00078985168517
 6  5.01930035303530  1.09367201650165 -2.26349051435144
 6  6.31823615641564  0.24801665186519 -0.25232171737174
 6  7.51059859775978 -0.21275162206221 -1.08599555005501
 6  8.81860373297330 -0.11765689608961 -0.17588940174017
 6  10.09126975147515 -0.42959003070307 -0.98276924742474
 6  10.17832453265326 -1.88045898199820 -1.48997246224622
 6  11.48784166106611 -0.13408718951895 -0.16556568796880
 6  12.77557246494649 -0.22412646374637 -0.87956797969797
 6  13.96595606400640 -0.06306750955095  0.06119318681868
 6  15.31944806970697 -0.15785951505151 -0.64256249604961
 6  15.83967563646365 -1.60717835163516 -0.91838145584558
 6  16.38624273017302  0.46270063006301  0.31211571877188
 6  17.77490207960796  0.66709810821082 -0.17953376797680
 6  18.72488285778578  1.22460067706771  0.77584801780178
 6  20.22925159435944  1.34862519601960  0.24355911911191
 6  20.38333968776878  2.35117341454145 -0.86401739443944
 6  21.06547747854786  1.81411434773477  1.37836319971997
 1 -4.03482496699670  3.67683320472047  1.51750633753375
 1 -9.95079547224722  3.91339217421742 -0.59785517701770
 1 -10.18573186258626 -2.35189453025303 -1.40170682288229
 1 -2.51059751665167 -0.86107442134213  2.14903559475948
 1 -2.13180678587859  1.69086266886689  1.19150980138014
 1 -2.04818927642764  0.87896834973497  3.76957067056706
 1 -3.18671373137314  2.26821087858786  3.57077924332433
 1 -3.84130757345735  0.50942562656266  3.78033044584458
 1 -2.05551803670367 -1.73261322172217 -0.16693060226023
 1 -1.93042471497150 -0.09567231683168 -0.68198823842384
 1 -0.06032955035504  0.20049466336634  1.23606400550055
 1 -0.47743554555456 -1.53471798699870  1.29045300050005
 1 -5.90339911531153  6.51230987508751  0.36273198239824
 1 -5.77250423982398  6.36117948104810  2.03543984108411
 1 -4.39687364336434  5.69738090449045  1.19450262586259
 1 -8.99785183768377  6.26793294139414 -0.70980120832083
 1 -8.84423563946395  8.12504324322432  0.74760438223822
 1 -7.73772323812381  7.14323072257226  1.65519390489049
 1 -11.97049115421542  3.41901222722272 -2.04396740144014
 1 -13.18924859405941  2.17043093429343 -1.34237542904290
 1 -12.22646437753775  2.94282293699370 -0.20319156315632
 1 -12.57332211061106 -1.60287973307331 -1.29278423332333
 1 -13.27931665056506 -0.03575031183118 -1.85091061856186
 1 -12.88144449704970 -1.86756144234423 -3.90460034453445
 1 -12.21327489168917 -0.19933447104710 -4.01717521322132
 1 -11.24669094839484 -1.88166303340334 -3.22051067106711
 1 -8.74531413441344 -4.87556829972997 -2.21135439953995
 1 -8.03533289808981 -5.64831483568357 -0.72504211721172
 1 -9.51322120702070 -4.89301432273227 -0.57590941354135
 1 -3.57135783168317 -3.60337358805881 -0.27441271277128
 1 -1.71882004850485 -4.40897733743374  3.50671358665867
 1 -3.14709431803180 -5.60132174977498  3.74776761566157
 1 -1.62584069556956 -6.16989626282628  3.02461641454145
 1  2.66339564366437 -1.84875671157116 -1.49644360936094
 1  2.41210868846885 -0.00859658005801 -2.01068422062206
 1  4.29165007060706 -0.92750496569657  0.38591180718072
 1  4.05832479597960  1.22969167956796 -2.70107847754776
 1  5.45374078577858  2.05181544044404 -2.01402787098710
 1  5.91658896649665  0.91679278677868 -3.09938866986699
 1  6.68711077397740  1.32730673067307  0.31180382318232
 1  6.30346446584659 -0.51950998839884  0.63394311101110
 1  7.19149653435343 -1.14878411361136 -1.37714903850385
 1  7.91634407030703  0.25588879697970 -1.84905782938294
 1  8.94081613321332  0.99372725772577  0.19371700390039
 1  8.70596908560856 -0.64172967916792  0.65953381708171
 1  10.09647719911991  0.11226376407641 -2.04112900240024
 1  9.07757274277428 -2.29364734123412 -1.65822174697470
 1  10.86978953465347 -2.13516029992999 -2.24526877077708
 1  10.49647253325333 -2.51741368336834 -0.41993143284328
 1  11.44523220412041  0.92699492969297  0.26296778427843
 1  11.34904795819582 -0.75226118741874  0.62282290389039
 1  12.66710002890289 -1.25114327552755 -1.28202587018702
 1  12.95027878037804  0.42104279527953 -1.69827318861886
 1  13.85428686538654  1.01204376037604  0.44696203920392
 1  13.92212496559656 -0.76401600630063  0.89336585308531
 1  15.42115540404040  0.51345083008301 -1.63025738373837
 1  16.09402684558456 -2.17496778887889 -0.16060751465147
 1  14.95215826652665 -2.04426680228023 -1.68575599069907
 1  16.79020865026503 -1.58938446334633 -1.59674114361436
 1  15.97753295399540  1.54270210391039  0.54638118241824
 1  16.40909535673567  0.13943476837684  1.29511227242724
 1  17.94227516621662 -0.41960850825082 -0.26819015941594
 1  17.65904296879688  1.08092541144114 -1.22642621842184
 1  18.56759755235523  2.29333349104911  1.07457546284628
 1  18.71017817811781  0.51818599959996  1.72123212351235
 1  20.48659357205721  0.40635678387839 -0.05961889788979
 1  19.98171227782778  3.30768433033303 -0.64029762316232
 1  21.58021227332733  2.47649430223022 -1.13590495379538
 1  19.99744364876488  1.94539635043504 -1.90136710571057
 1  20.69341531673167  1.19883799289929  2.41120073727373
 1  22.15481718801880  1.51387261696170  1.28902386868687
 1  20.91256098599860  2.91958204150415  1.59171961246125

