%nproc=4
%Mem=2GB
# td=(NStates=1) CAM-B3LYP/6-31G(d,p) 

TD

0 1
12 -7.11436200920092  0.51587033513351  0.05643333073307
 6 -4.83248786678668 -2.01020219861986  0.51604813751375
 6 -4.87805773467347  2.84004245154515  1.26397276217622
 6 -9.39284401990199  3.11872736823682 -0.44755761546155
 6 -9.56561687538754 -1.78094360536054 -0.90380680978098
 7 -5.14464788938894  0.35126494459446  0.87168758705871
 6 -4.39337904400440 -0.69733955595560  0.84420244344434
 6 -2.97201620702070 -0.39138856455646  1.18865922012201
 6 -2.99393283168317  1.07740040834083  1.64231496219622
 6 -4.39627662256226  1.52627337613761  1.22725975587559
 6 -2.82010709280928  1.27453974207421  3.08204961386139
 6 -1.94402786378638 -0.60168542994299  0.07029098739874
 6 -0.52565998859886 -0.43715806300630  0.42473660296030
 6  0.47291842904290 -0.67840135303530 -0.63921930243024
 8  0.17753899399940 -1.04703011061106 -1.77308364006401
 8  1.78806061656166 -0.46053344974497 -0.20067685658566
 7 -7.08699914781478  2.65560114991499  0.32041073657366
 6 -6.05382466146615  3.36423739953995  0.91561509510951
 6 -6.43604085718572  4.71102539193919  0.79066975417542
 6 -7.70540324732473  4.88386901840184  0.31899029032903
 6 -8.11571584318432  3.46813600890089  0.04199674597460
 6 -5.44830278697870  5.80482294819482  1.09076383688369
 6 -8.51453925152515  6.10287132083208  0.04589157455746
 6 -8.47352124342434  7.19347546614661  0.70105635543554
 7 -9.15425769836984  0.60821368246825 -0.43254728842884
 6 -9.89847610731073  1.80106005910591 -0.63960028412841
 6 -11.19962905950595  1.53234157325733 -1.09646136563656
 6 -11.20853325722572  0.09987535163516 -1.23875258925893
 6 -9.95141082178218 -0.42727470177018 -0.85417043314331
 6 -12.22415123882388  2.48016858785879 -1.38617539233923
 6 -12.39497404370437 -0.67729513961396 -1.77219802830283
 6 -12.25623311171117 -1.05398780998100 -3.26955207380738
 7 -7.14583405170517 -1.39942955655566 -0.25487016401640
 6 -8.32380262006201 -2.19856502860286 -0.54658961416142
 6 -7.90207635323532 -3.57767603510351 -0.49901717901790
 6 -6.45330921502150 -3.54842917991799 -0.12289402130213
 6 -6.11951454785479 -2.21206948824882  0.05668847304730
 6 -8.66723419081908 -4.81399424182418 -0.78474695309531
 6 -5.35004947524752 -4.36192007550755  0.32301517411741
 8 -5.17781661956196 -5.55053953735374  0.47391442214221
 6 -4.16620019941994 -3.33802959275928  0.52363222852285
 6 -3.53103373427343 -3.68508372967297  1.83914428732873
 8 -3.64020562116212 -3.09193592979298  2.88881156225623
 8 -2.67398859255926 -4.68155287768777  1.72688126902690
 6 -2.08984957285729 -5.15079930903090  2.91894683018302
 6  2.75414792649265 -0.75267306190619 -1.15474667506751
 6  4.05581767076708 -0.57106528282828 -0.54831498049805
 6  5.03400688508851  0.32216848224822 -0.93966373907391
 6  4.94018244124412  1.14474712401240 -2.12332649794979
 6  6.40554488728873  0.42262411261126 -0.19151563676368
 6  7.64467200510051 -0.06688703560356 -1.09783673417342
 6  8.84674654725473 -0.20330546094609 -0.09004081688169
 6  10.11942256675668 -0.49231630333033 -0.91282225272527
 6  10.05259195939594 -1.96582751885189 -1.61564502950295
 6  11.38894177107711 -0.50522430323032  0.08626949554955
 6  12.77839274697470 -0.56075012611261 -0.74009403230323
 6  14.00459992839284 -0.21428263106311  0.22928999649965
 6  15.36262238713871 -0.19557328642864 -0.44954319411941
 6  15.95765743464346 -1.67330496429643 -0.89617923562356
 6  16.43432753865386  0.55948030803080  0.42789729692969
 6  17.83124771417141  0.70071146954695 -0.09259507410741
 6  18.76554692419242  1.34145236223622  0.84706513951395
 6  20.20970964016401  1.39660999449945  0.28519328252825
 6  20.31272262606261  2.13313161036104 -1.11606259895990
 6  21.12684361516152  1.95759869616962  1.29611497489749
 1 -4.23314479897990  3.45767128852885  1.59042362926293
 1 -10.02626301900190  3.98079891489149 -0.65931132263226
 1 -10.23137642704270 -2.52241158195820 -1.15493214541454
 1 -2.71224768166817 -1.02487080098010  2.02140283148315
 1 -2.00015362056206  1.55081866446645  1.07834848524852
 1 -1.68077253475348  1.04960541344134  3.42322603610361
 1 -3.09848490849085  2.39072312981298  3.60091225662566
 1 -3.51290473317332  0.61725640964096  3.75441785458546
 1 -2.22625511041104 -1.58262822322232 -0.23079698889889
 1 -2.05613728622862  0.24291154155416 -0.76259629922992
 1 -0.29546306370637  0.47650226412641  0.92156255535554
 1 -0.45901370337034 -1.23354786998700  1.24693864906491
 1 -5.84673344874487  6.76074471857186  0.54482019121912
 1 -5.46619360876088  6.10939430253025  2.10315661276128
 1 -4.40869482548255  5.43436460286029  0.84909808540854
 1 -9.21155320782078  6.09136528462846 -0.90096032423242
 1 -8.93486470237024  8.09635037393739  0.34015363716372
 1 -7.70581004680468  7.24322072157216  1.63921230673067
 1 -12.04889899499950  3.22174250025002 -2.16498950365037
 1 -13.24258392759276  2.00352424362436 -1.73229442094209
 1 -12.22984471557156  3.27004565926593 -0.67875911991199
 1 -12.47455223362336 -1.54076352145215 -1.18418337323732
 1 -13.30141886078608  0.04153741694169 -1.58490401790179
 1 -13.14258061066107 -1.59923460966097 -3.67997788228823
 1 -12.21765532973297 -0.10015455305531 -3.84571806750675
 1 -11.19421570087009 -1.66032089918992 -3.34071269126913
 1 -9.24819442244224 -4.78344908780878 -1.68455171927193
 1 -8.02602196699670 -5.55178518271827 -0.82007162016202
 1 -9.38940882578258 -4.95771079237924  0.00569874727473
 1 -3.39468016391639 -3.45283853455346 -0.33087835933593
 1 -1.40607877437744 -4.24919135883588  3.33467638293829
 1 -2.95714532313231 -5.44606622422242  3.67421025992599
 1 -1.40489860136014 -5.91004027722772  2.46400035293529
 1  2.61804110821082 -1.92989482538254 -1.46261022602260
 1  2.71024850245024 -0.00315603600360 -2.04549770197020
 1  4.19542044764476 -1.13459567476748  0.42673588958896
 1  3.99185814931493  1.53826253665367 -2.40589895959596
 1  5.75219063076308  2.21669192809281 -1.87246371457146
 1  5.42185949354935  0.69340044754475 -3.00748947994799
 1  6.56728879177918  1.50342434243424  0.08896153895390
 1  6.27689180858086 -0.09055709310931  0.80216993369337
 1  7.18425581028103 -0.98904814001400 -1.32031335493549
 1  7.84166660256026  0.61159436753675 -1.87098002160216
 1  9.07941999359936  0.72798068306831  0.47699533173317
 1  8.75769425812581 -1.11214672087209  0.79367723142314
 1  10.41839939133913  0.24367690539054 -1.57087197669767
 1  9.28355334083408 -2.07356533303330 -2.38628455325533
 1  10.98799135483548 -2.12783956785679 -2.33373761766177
 1  9.93879676567657 -2.68073001500150 -0.81989142884288
 1  11.36079376027603  0.30208243844384  0.69243073057306
 1  11.31160421382138 -1.39788574987499  0.83370399199920
 1  12.84972829172917 -1.50688885008501 -1.07313498109811
 1  12.87207095959596  0.03744443544354 -1.51289465076508
 1  13.77600903760376  0.73242579857986  0.87753509650965
 1  14.00629338243824 -1.16597620232023  0.85202171867187
 1  15.35337862636264  0.20474995999600 -1.35360971897190
 1  15.94126156905691 -2.12526281838184  0.06314486058606
 1  15.28661171187119 -2.33247562316232 -1.62058947404740
 1  16.78221785118512 -1.48954447934794 -1.48130960046005
 1  15.93445864656466  1.51786962066207  0.50815736003600
 1  16.34376882408241  0.21132195709571  1.62964572577258
 1  18.26885782448245 -0.32946949434944 -0.51825516591659
 1  17.64119118361836  1.25813313221322 -1.09159273507351
 1  18.51698249084908  2.56152030973097  0.99565757105711
 1  18.74375153545355  0.88246242724272  1.78504850515051
 1  20.33063797649765  0.21501764996500 -0.04375731173117
 1  19.88101220782078  3.12935649754975 -0.99919351275128
 1  21.23009726182618  2.07608426122612 -1.60312167546755
 1  19.71494539893990  1.66568837963796 -1.85579254825483
 1  21.10565654085408  1.43698180728073  2.13650326752675
 1  22.13790549684968  2.08579980968097  0.90244521082108
 1  20.89214894479448  3.00255033833383  1.73589402990299

