%nproc=4
%Mem=2GB
# td=(NStates=1) CAM-B3LYP/6-31G(d,p) 

TD

0 1
12 -7.13493406640664  0.62369111721172  0.08482617001700
 6 -4.83807842584258 -1.97420859925993  0.49981651435143
 6 -4.83302323122312  2.75704415171517  1.16126249114911
 6 -9.40955569106911  3.09479497499750 -0.40958381808181
 6 -9.51691200490049 -1.69844535553555 -0.78135456455646
 7 -5.11508493309331  0.45331514961496  0.71993241154115
 6 -4.37326703280328 -0.72071189318932  0.82305032823282
 6 -2.95677468286829 -0.41688111381138  1.22800315451545
 6 -3.15096853525353  1.03761642994299  1.71032176287629
 6 -4.37128412331233  1.40671141994199  1.16426345624562
 6 -3.02718780088009  1.14510679877988  3.26135754465447
 6 -1.90101356235624 -0.51297655905591  0.09782374067407
 6 -0.47870529312931 -0.30895524272427  0.54604873417342
 6  0.55770690789079 -0.65220873377338 -0.50941632213221
 8  0.26963820392039 -0.91682709030903 -1.63627995969597
 8  1.76960877137714 -0.34695209160916 -0.11260804970497
 7 -7.07552800070007  2.64465005480548  0.44451314681468
 6 -6.03832311131113  3.31697267306731  0.69430296389639
 6 -6.35311256435643  4.77471176057606  0.69946063326333
 6 -7.64446715371537  4.93304393589359  0.28218660996100
 6 -8.10889516111611  3.47113630893089  0.12162470877088
 6 -5.36124408110811  5.90644311021102  0.88727348784878
 6 -8.42651044864486  6.13621465516552  0.16511349674968
 6 -8.32317620892089  7.25691180978098  0.74480072987299
 7 -9.19350162276228  0.64396725782578 -0.40316435013501
 6 -9.83441970167017  1.80019997309731 -0.57432375647565
 6 -11.18093719031903  1.45803414251425 -1.09862158165817
 6 -11.18400080398040  0.12488785288529 -1.20818953295330
 6 -9.92709839053905 -0.39721169546955 -0.82434745084508
 6 -12.29256808050805  2.40852142314231 -1.34813158795880
 6 -12.50112465876588 -0.64736214631463 -1.72015282378238
 6 -12.31413890229023 -1.24534694589459 -3.10074519311931
 7 -7.21069053735374 -1.43275288888889 -0.10681535853585
 6 -8.27978821862186 -2.28138331043104 -0.53861881708171
 6 -7.76835298089809 -3.64819308680868 -0.62061933923392
 6 -6.49673355745575 -3.54364870187019 -0.09963169506951
 6 -6.23782637903790 -2.17304558585859  0.06744954915492
 6 -8.54402186958696 -4.91602444484448 -0.95048352675268
 6 -5.38701317161716 -4.35361924542454  0.21794466706671
 8 -5.21065990389039 -5.54269875327533  0.22499953065307
 6 -4.18774235363536 -3.33993978377838  0.53007287258726
 6 -3.60083071397140 -3.76050127142714  1.85680605350535
 8 -3.88730033063306 -3.14427116331633  2.87374005510551
 8 -2.73872506620662 -4.63683840624062  1.78997757865787
 6 -2.27712830073007 -5.26591082018202  3.01741667716772
 6  2.81009352105210 -0.69610740534053 -1.15933713411341
 6  4.05685777477748 -0.40884906120612 -0.47365751475148
 6  5.16276976137614  0.27799406480648 -1.03244301700170
 6  5.06882530553055  1.00832348164816 -2.40842500780078
 6  6.47559189198920  0.36934878507851 -0.22312879807981
 6  7.56512405030503 -0.16991733863386 -1.08251520202020
 6  8.91109298189819 -0.17362249264926 -0.33558537133713
 6  10.16263688818882 -0.62598967066707 -1.03103407390739
 6  10.21668836903690 -2.06601753785379 -1.45458892389239
 6  11.52944582148215 -0.32568634943494 -0.13138226962696
 6  12.81674658235823 -0.45686973807381 -0.79185920882088
 6  13.97101657005700 -0.02472367516752  0.13255032253225
 6  15.43438956385639 -0.26072980208021 -0.47473571337134
 6  15.75621729062906 -1.64273190699070 -0.81994161186119
 6  16.36885099099910  0.51236559655966  0.36700120732073
 6  17.84258884828483  0.49141053945395 -0.13240905550555
 6  18.73632400190019  1.32388060506051  0.78094852785279
 6  20.15503417261726  1.40562089558956  0.32780754395440
 6  20.38249960376038  2.25418371557156 -0.94631562426243
 6  21.11345227602760  2.07562049834983  1.49150451385138
 1 -3.86717820232023  3.50876639803980  1.44365895279528
 1 -10.06804719741974  3.92098293329333 -0.43466885838584
 1 -10.41581487088709 -2.27549689048905 -1.07637428962896
 1 -2.63930038693869 -1.04189250315032  2.02438312951295
 1 -2.22017562276228  1.44547813041304  1.36839749014901
 1 -2.33452791029103  0.68956940984098  3.74884859835984
 1 -3.12075713571357  2.13122718021802  3.60697286268627
 1 -4.16085952865286  0.58252293629363  3.37067948074808
 1 -2.03175566046605 -1.55309526992699 -0.14298820802080
 1 -2.36192786528653  0.13039028942894 -0.88951899149915
 1 -0.43377689508951  0.87385199909991  0.80405080418042
 1 -0.33558136013601 -0.83860837603760  1.42033598879888
 1 -5.64081285668567  6.63398204230423  0.39592530173017
 1 -5.54162115151515  6.28113147624762  1.94782107920792
 1 -4.36354031003100  5.68806997339734  0.63663683928393
 1 -9.40753280578058  5.89772592069207 -0.61886211441144
 1 -8.82668388428843  8.14465520442044  0.41633125492549
 1 -7.65019448524852  7.35878227772777  1.69058744424442
 1 -11.93943804890489  2.75840616661666 -2.47330033473347
 1 -13.27135680488049  1.90246413761376 -1.36320751225122
 1 -12.14023575467547  3.23635228992899 -0.59498074207421
 1 -13.06957173557356 -1.57202664776478 -1.14095905080508
 1 -13.48429714861486  0.08413167636764 -1.72073760126013
 1 -13.18870522312231 -1.85077976417642 -3.56135602010201
 1 -12.21357492169217 -0.15690022762276 -3.80055355105511
 1 -11.46302258155816 -1.85344021112111 -3.16356497649765
 1 -9.04667427042704 -4.91419216211621 -1.92594585868587
 1 -7.92699206400640 -5.92946295049505 -0.93720333333333
 1 -9.73639352425243 -5.28454347564757 -0.44462628522852
 1 -3.42752344824482 -3.42153540424042 -0.19921519301930
 1 -1.74890305680568 -4.53030947064706  3.64793770907091
 1 -3.14367397599760 -5.72103372097210  3.69792263116312
 1 -1.58985709720972 -6.03590286348635  2.74533848674867
 1  2.50123942804280 -1.82334417031703 -1.53552751775178
 1  2.66079355695570  0.02606688628863 -2.04397754995500
 1  4.15206611221122 -0.85966818201820  0.56144936093609
 1  4.06585554905490  1.07101581198120 -2.74185255495550
 1  5.59682509420942  2.04399465836584 -2.41123759195920
 1  5.76283359095910  0.27324843234323 -3.30273900490049
 1  6.81639370227023  1.37282128212821  0.12040468326833
 1  6.24051817121712 -0.29457749514952  0.74627434413441
 1  7.44426181088109 -1.07929716491649 -1.56766809040904
 1  7.92509494539454  0.41500470857086 -2.04322724632463
 1  9.02071412301230  0.87042492749275  0.26283391559156
 1  8.80699918861886 -0.92387789398940  0.38054591829183
 1  10.22684023542354  0.14597713541354 -1.98187307680768
 1  9.14387937343734 -2.19410738723872 -1.97695362016202
 1  11.07082963866387 -2.46177296119612 -2.02047629152915
 1  10.31507439343934 -2.40913285528553 -0.50192963266327
 1  11.32953063396340  0.61681391159116  0.23891537903790
 1  11.32861591499150 -1.06144210551055  0.77333795539554
 1  13.06018933783378 -1.58897705890589 -1.10218788638864
 1  12.77452120462046  0.20049074007401 -1.73053641494149
 1  13.86024746144614  0.99259181518152  0.42598994199420
 1  13.87829058215822 -0.77083668836884  1.06455297179718
 1  15.49352264076408  0.12807229222922 -1.33739809780978
 1  15.75327277017702 -2.42987327942794 -0.01606306020602
 1  15.30435348604860 -1.98737111271127 -1.77379479457946
 1  16.88909853925393 -1.89077460236024 -0.95127659715972
 1  16.10468566926692  1.55204303800380  0.40647719201920
 1  16.52060650785078 -0.01440061516152  1.43844660586059
 1  18.18859979867987 -0.56491303870387 -0.34185752615261
 1  17.81059812431243  0.91276859575958 -1.18263183898390
 1  18.25587638023802  2.23848800650065  1.04047205250525
 1  18.85361252155216  0.80853503450345  1.72232223252325
 1  20.72117703040304  0.36969311751175  0.19597666166617
 1  20.10840494709471  3.13480704260426 -0.72302589598960
 1  21.44970922302230  2.41951860466047 -1.11682304560456
 1  19.87208111251125  1.89497130793079 -2.04823179217922
 1  20.95417139233923  1.47984609370937  2.44649426662666
 1  22.08676038233823  1.93400463016302  0.99777474377438
 1  20.91857158705871  3.07925800910091  1.83206364686469

