%nproc=4
%Mem=2GB
# td=(NStates=1) CAM-B3LYP/6-31G(d,p) 

TD

0 1
12 -7.20534110711071  0.64065281338134  0.07911559895990
 6 -4.81715633363336 -1.97908908730873  0.55352188488849
 6 -4.95958588748875  2.91081952925293  1.11050741564156
 6 -9.52735747124713  3.09992548804880 -0.44717757745775
 6 -9.54467478117812 -1.84080959195920 -0.99487591669167
 7 -5.22753617821782  0.50922074017402  0.69029944824482
 6 -4.34436414251425 -0.62671249324932  0.80480850405041
 6 -2.89943894929493 -0.34241366706671  1.15195554975498
 6 -3.07475091349135  1.17338000630063  1.67219795049505
 6 -4.45739273417342  1.59367011581158  1.09953698359836
 6 -3.05224030613061  1.23118540664066  3.31243265216522
 6 -1.93941740274027 -0.48672393379338 -0.00787682938294
 6 -0.46052347494749 -0.26246059325933  0.46814094339434
 6  0.53529466666667 -0.56227974087409 -0.65480086058606
 8  0.19063030313031 -0.91633704130413 -1.70205653735374
 8  1.80812262276228 -0.23248064446445 -0.17667445634563
 7 -7.25749619751975  2.67652324212421  0.30455915141514
 6 -6.17865714471447  3.42426340214021  0.78673220682068
 6 -6.51314856795680  4.80080436983698  0.86423711091109
 6 -7.82739544654465  4.82110274177418  0.36926531783178
 6 -8.30785505710571  3.46518571387139  0.09538208450845
 6 -5.69933789048905  5.93951641754175  1.18200296079608
 6 -8.64795259285929  6.03084411811181  0.29937692309231
 6 -8.50388427972797  7.16951306990699  0.88197444724472
 7 -9.22202447504750  0.56652951405141 -0.56840087378738
 6 -9.93820007970797  1.76527648074807 -0.66137246134613
 6 -11.29332842944294  1.40129846894689 -1.12353407290729
 6 -11.31059346324632  0.08691405550555 -1.37589630363036
 6 -9.96545222592259 -0.44708668296830 -0.91223623972397
 6 -12.40996982068207  2.38683925492549 -1.43498027282728
 6 -12.31466601290129 -0.89700711081108 -1.79211001950195
 6 -12.24182167056706 -1.16611902310231 -3.27106222482248
 7 -7.25581504980498 -1.41290090369037 -0.12381705870587
 6 -8.21214145394540 -2.24950012211221 -0.56454140934093
 6 -7.84453059865987 -3.64799306680668 -0.41800907820782
 6 -6.49168305240524 -3.53387772477248 -0.10459219111911
 6 -6.23950654705471 -2.17495577687769  0.16808961316132
 6 -8.63227069446945 -4.90231307370737 -0.88770724912491
 6 -5.32280675097510 -4.30062394589459  0.22716558915892
 8 -5.23082192009201 -5.52876736013601  0.20459749044905
 6 -4.11562514191419 -3.24120991079108  0.61813167846785
 6 -3.52711334223422 -3.64962018331833  2.02355272817282
 8 -3.69305090569057 -3.13302003820382  3.04145682678268
 8 -2.66053724742474 -4.63648837123712  1.81083966486649
 6 -1.89242983088309 -5.17020124922492  2.87570250575058
 6  2.86333884558456 -0.55977377197720 -1.17524872527253
 6  4.22505459445945 -0.42268044434443 -0.60192034103410
 6  5.15502898729873  0.39564582998300 -1.01010078277828
 6  5.15260368336834  1.18481113041304 -2.27715188048805
 6  6.56951128392839  0.31639348954895 -0.18401488668867
 6  7.75214275217522 -0.34167451435144 -0.95062201270127
 6  8.97379925252525 -0.32675780618062 -0.04987680048005
 6  10.22787341184118 -0.78277534923492 -0.85834680518052
 6  10.20221692189219 -2.25139607570757 -1.18601206620662
 6  11.48750162706271 -0.37592137293729  0.04902577117712
 6  12.83589849754975 -0.62017606870687 -0.68197822072207
 6  14.05157462586259 -0.24929613241324  0.20350741824182
 6  15.50145627052705 -0.30319404850485 -0.58273651345135
 6  15.81526319521952 -1.71862949674967 -0.86873649134913
 6  16.48075218111811  0.47501186118612  0.30792529972997
 6  17.96089067846784  0.67902930133013 -0.29880569516952
 6  18.83137350685069  1.26229444644464  0.71264169716972
 6  20.25459412861286  1.35488582208221  0.13411817501750
 6  20.39535088888889  2.16057435463546 -1.05303629632963
 6  21.14294522532253  1.97656059235924  1.38605396879688
 1 -4.29277076157616  3.75119064046405  1.58301288818882
 1 -10.10942133483348  3.94351518651865 -0.69434482598260
 1 -10.42246553595360 -2.49808914971497 -1.21406805900590
 1 -2.56834329122912 -0.84831314521452  1.88333902510251
 1 -2.22066567176718  1.95343892649265  1.34859550995100
 1 -2.04150860836084  1.07762821572157  3.62117583108311
 1 -3.24220928092809  2.23091714921492  3.71853401880188
 1 -3.66473991669167  0.37421210521052  3.73329574237424
 1 -1.82213469836984 -1.55109506990699 -0.47368127732773
 1 -2.16126779927993  0.23481073147315 -0.80885092469247
 1 -0.38968248564856  0.69869448334834  0.84207460656066
 1 -0.27976577857786 -1.04071858705871  1.26041999719972
 1 -6.05611438683868  6.78501714581458  0.59764547374737
 1 -5.63855084448445  6.33805716881688  2.20382667976798
 1 -4.69868382438244  5.74486565296530  1.08339151475148
 1 -9.45069712221222  6.05903205130513 -0.45612584078408
 1 -9.10656187208721  7.92733347224722  0.60865048684869
 1 -7.89903936973697  7.40827722722272  1.78249663516352
 1 -12.36820092519252  2.93880420642064 -2.28075107980798
 1 -13.37125679487949  1.92513640484048 -1.59602079357936
 1 -12.50755248634863  3.18795745044504 -0.59977122112211
 1 -12.43765854425443 -1.77988743384338 -1.33194814971497
 1 -13.25149386828683 -0.34711144794479 -1.78866439393939
 1 -13.09882623522352 -1.96435112131213 -3.56828671317132
 1 -12.18243180738074 -0.31438597619762 -3.86422991869187
 1 -11.34553083238324 -1.71469633673367 -3.60707932793279
 1 -8.87554715771577 -4.86460720362036 -2.08982224632463
 1 -7.86231559635964 -5.68176818101810 -0.51309092209221
 1 -9.68208809370937 -4.89479450075008 -0.47303912651265
 1 -3.39804049994999 -3.20425367606761 -0.16268153965397
 1 -1.18843701020102 -4.64538097779778  3.31619453475348
 1 -2.56445605420542 -5.39668128572857  3.52618545744575
 1 -1.47635574707471 -6.19695896909691  2.42346629952995
 1  2.77667697179718 -1.53148498439844 -1.48062202720272
 1  2.59586706430643  0.22606688628863 -1.98486163836384
 1  4.14810571617162 -0.88446066126613  0.25936915291529
 1  4.16520548404841  1.17083579397940 -2.71137950765076
 1  5.76844225592559  2.25516577547755 -2.11291775997600
 1  5.85845315291529  0.36863797129713 -2.89460819181918
 1  6.76236829972997  1.38494249424943  0.14593723652365
 1  6.35941006040604 -0.13428146554655  0.73362307900790
 1  7.55078246294629 -1.15391462666267 -1.62805412901290
 1  7.92236467236724  0.38718192629263 -1.64802772637264
 1  8.87760981258126  0.84142202720272  0.14064169636964
 1  8.76612510121012 -0.90739624582458  0.76164402810281
 1  10.18903645504550 -0.31322878517852 -1.75883077257726
 1  9.19034401990199 -2.46442441894189 -1.64879080388039
 1  11.10087264296430 -2.43704048794880 -1.96601084498450
 1  10.48622150815082 -2.80439238123812 -0.20189962966297
 1  11.46340402130213  0.85057728792879  0.15659714721472
 1  11.35360841424142 -0.86510247154715  1.02870349194920
 1  13.16213953285328 -1.59288744994499 -0.97676534413441
 1  13.09479323182318 -0.04000330933093 -1.71304466576658
 1  13.84483592029203  0.74284684068407  0.50662800580058
 1  14.18542129522952 -0.80063966866687  0.98798531503150
 1  15.54092738123812  0.13682316731673 -1.49814417241724
 1  15.84568201110111 -2.30951124322432  0.06314486058606
 1  14.95705875657566 -2.10994336993699 -1.35649306440644
 1  16.76204583398340 -1.80760628552855 -1.41852332183218
 1  16.14307950865086  1.63166099979998  0.57768431273127
 1  16.47203165036504  0.01809263416342  1.23244600580058
 1  18.24470540924093 -0.23872041944194 -0.47701104150415
 1  17.86563362786279  0.89773709260926 -1.54441801760176
 1  18.45047584018402  2.21919607730773  0.77820582588259
 1  18.87630479077908  0.92555673667367  1.88843884418442
 1  20.62355726842684  0.30968711691169  0.22923998799880
 1  20.22489659625962  3.09085264716472 -0.82808640204020
 1  21.49881413351335  2.17085373817382 -1.50282164546455
 1  19.75797970237024  1.74539635043504 -1.90885785478548
 1  21.17555353055306  1.46512462156216  2.16302591979198
 1  22.31329303560356  2.04877610731073  1.04115908220822
 1  20.82350208010801  2.96533661696170  1.82048248874887

