%nproc=4
%Mem=2GB
# td=(NStates=1) CAM-B3LYP/6-31G(d,p) 

TD

0 1
<<<<<<< HEAD
12 -7.11046161916192  0.53473222132213  0.05340302770277
 6 -4.84740935893589 -1.88747992639264  0.65921245394539
 6 -4.80186011491149  2.91419986728673  1.14522088698870
 6 -9.34129886538654  3.14743023852385 -0.36865972567257
 6 -9.54178449214922 -1.76392190319032 -0.77083351245125
 7 -5.08650207480748  0.37471728982898  0.73484390269027
 6 -4.31406111221122 -0.70232005400540  0.81997002020202
 6 -2.89755876127613 -0.35204463016302  1.34594494869487
 6 -2.98785222362236  1.08751141944194  1.73883461416142
 6 -4.43111010591059  1.50967171597160  1.08699572947295
 6 -3.05684076617662  1.28733102120212  3.23888529742974
 6 -1.96233969496950 -0.61143640504050  0.23040699899990
 6 -0.40770819341934 -0.53843819101910  0.44382851215121
 6  0.49698083528353 -0.62712622552255 -0.70877625812581
 8  0.15410665076508 -1.01058646624662 -1.80288662036204
 8  1.79678148864887 -0.63662105850585 -0.23748053695370
 7 -7.02006245414541  2.61737732753275  0.17500619611961
 6 -5.97845712471247  3.33430440624062  0.65698923252325
 6 -6.41782903600360  4.74406869626963  0.70856154335434
 6 -7.69302200920092  4.87210784228423  0.26786517781778
 6 -8.07823209480948  3.52549174447445 -0.05075252895290
 6 -5.50101805850585  5.82268473437344  1.19071383188319
 6 -8.62602039963996  6.00322135583558  0.19274626002600
 6 -8.34481837313731  7.20345646424642  0.84233048284828
 7 -9.07574984758476  0.70405326642664 -0.63527756145615
 6 -9.83035929562956  1.82409236233623 -0.62803912801280
 6 -11.16262535913591  1.59179751885189 -1.12760447994799
 6 -11.16633903780378  0.15726109020902 -1.15607432143214
 6 -9.93619930063006 -0.35361733603360 -0.86090110621062
 6 -12.22884170787079  2.47366793779378 -1.48521529632963
 6 -12.27314186048605 -0.76464387448745 -1.74660546904690
 6 -12.10808829722972 -1.13745615681568 -3.17142226082608
 7 -7.22532200050005 -1.40896050965097 -0.17687236423642
 6 -8.28656889668967 -2.13769894199420 -0.51625658085809
 6 -7.83221936753675 -3.62111037853785 -0.55599287658766
 6 -6.51032491659166 -3.46855119211921  0.03337160526053
 6 -6.17901049744974 -2.14367264856486  0.13360616481648
 6 -8.65835330273027 -4.70926376877688 -0.92355083348335
 6 -5.28570304060406 -4.25674955845585  0.30706357895790
 8 -5.11679051695169 -5.46501098449845  0.11858888958896
 6 -4.20949452885289 -3.31078686848685  0.74450431573157
 6 -3.63679431033103 -3.68673389468947  1.97985835873587
 8 -3.80512211281128 -3.22622935913591  3.00640332143214
 8 -2.79757095079508 -4.81739646204620  1.91280986188619
 6 -2.29902048994899 -5.26541077017702  3.15402033753375
 6  2.77456996869687 -0.67918571317132 -1.28584978537854
 6  4.11637372637264 -0.43030120642064 -0.61340148914892
 6  5.14105759015901  0.30222648804880 -1.03093286598660
 6  5.17808623162316  1.02040468976898 -2.32852701800180
 6  6.47076140894089  0.43458530873087 -0.19445593079308
 6  7.57513505140514 -0.27385773267327 -1.00607755825583
 6  8.88841071367137 -0.45374050445045 -0.13925573837384
 6  10.20606123062306 -0.57169424112411 -0.92372334283428
 6  10.11916861706171 -2.01060199629963 -1.58075154015402
 6  11.34979785668567 -0.41803558435844 -0.05055418681868
 6  12.73743865156516 -0.45275932703270 -0.71136115901590
 6  13.96087555595560 -0.08531973477348  0.06314338183818
 6  15.34357048194819 -0.18710243934393 -0.60500874067407
 6  15.69281094999500 -1.61616925072507 -0.92060167786779
 6  16.36641074697470  0.41519587958796  0.39281378857886
 6  17.76983157255725  0.55714711311131 -0.12188800340034
 6  18.73271364086409  1.26375459245925  0.75048548154815
 6  20.21658032723272  1.57001733523352  0.27466222942294
 6  20.25232658645865  2.59166746394639 -0.86765775847585
 6  21.02729366016602  1.89125206150615  1.45203056645665
 1 -3.97703918841884  3.40215573697370  1.28996358325833
 1 -10.10625101780178  4.08666950195019 -0.32458785028503
 1 -10.43630692009201 -2.50550989178918 -0.74434108630863
 1 -2.78388484538454 -1.09822813671367  2.22520321152115
 1 -2.25740934613461  1.77223080568057  1.27108775917592
 1 -2.28805326282628  0.95418587148715  3.75911962546255
 1 -3.34110917091709  2.28641269876988  3.56098826422642
 1 -4.06907034973497  0.66397108110811  3.51719413221322
 1 -1.94824730963096 -1.52499245964596 -0.29082299149915
 1 -2.08154982748275  0.20408765916592 -0.67690773037304
 1 -0.32339585698570  0.40842545644564  0.97870826992699
 1 -0.21407920992099 -1.19593410861086  1.12439639483948
 1 -5.53195197059706  6.85158380248025  0.59384509370937
 1 -5.59783677307731  5.95305866896690  2.24104040114011
 1 -4.44883883988399  5.52978414481448  1.06377955355536
 1 -9.36752880538054  5.91185733383338 -0.47353758195820
 1 -9.01038225412541  7.99896063496350  0.91699132093209
 1 -7.52619208500850  7.28089448894890  1.56651503700370
 1 -11.78846295139514  3.28511883788379 -2.16639964466447
 1 -13.14772444164416  1.99571346254625 -2.17627881938194
 1 -12.75336706780678  2.80512916761676 -0.29956120012001
 1 -12.30874565296530 -1.73321276637664 -1.27701265616562
 1 -13.30600931983198 -0.32335907270727 -1.73201872937294
 1 -12.73296964956496 -1.95916060226023 -3.60147003150315
 1 -12.40343390759076 -0.23091762936294 -3.94222771847185
 1 -11.17534381368137 -1.61619648674867 -3.34838345834583
 1 -9.04871447444745 -4.70423116601660 -1.99588285238524
 1 -7.96293565836584 -5.80914091829183 -0.88074768776878
 1 -9.53143302820282 -5.12584760606061 -0.03630545314531
 1 -3.51136183208321 -3.55260851155116 -0.09240451195119
 1 -1.84442260876088 -4.45864230393039  3.68465138043804
 1 -3.05912552115211 -5.56274789238924  3.61745458435844
 1 -1.48021613311331 -5.84918419161916  2.86688064096410
 1  2.61191049514952 -1.56570840674067 -1.82843680868087
 1  2.69101657925793  0.33170745034503 -2.01410456265627
 1  4.50361126672667 -0.88567078227823  0.26830004600460
 1  4.28584754825483  0.80015872627263 -2.82030039973997
 1  5.54105951765176  2.10174043294329 -2.35912238043804
 1  5.84038134573457  0.67381848934894 -3.06287501850185
 1  6.77339940284028  1.32909690969097  0.03071571437144
 1  6.52621674107411 -0.11162920032003  0.70477019371937
 1  7.51405879057906 -1.43256249144915 -1.52843416701670
 1  8.00331276717672  0.27124033213321 -1.87730065366537
 1  8.90788283988399  0.46914479947995  0.55175280748075
 1  8.66908539723972 -1.21600710691069  0.57276514021402
 1  10.29136668806881  0.15525806350635 -1.85324021352135
 1  9.16027101260126 -2.17515549204921 -2.05190111491149
 1  10.90949350505050 -2.16299308320832 -2.25035927982798
 1  10.05676856285629 -2.77065900790079 -0.66632607230723
 1  11.35271295219522  0.58915114531453  0.26770825832583
 1  11.50483353675368 -1.17782374367437  0.83317393899390
 1  13.13348666756676 -1.53975213641364 -0.92714038163816
 1  12.66103985648565  0.22038272927293 -1.67658101940194
 1  13.88753018971897  0.96728928492849  0.31550889388939
 1  14.10885363846385 -0.63114271897190  1.13589010551055
 1  15.40809409790979  0.29114859985999 -1.74005836383638
 1  15.85265270817082 -2.04954524662466  0.04735328142814
 1  14.82377542824282 -2.03674605020502 -1.53679109420942
 1  16.65879550895090 -1.91343686858686 -1.36995846534654
 1  15.92469767046705  1.48886672037204  0.68965550985099
 1  16.35380982818282 -0.17516669176918  1.22745550675067
 1  18.12063300200020 -0.49686623402340 -0.06076941734173
 1  17.68392545704571  1.04854217311731 -1.10619419521952
 1  18.31421221382138  2.24890904860486  0.72618062336234
 1  18.66651381168117  0.66066024702470  1.59859986028603
 1  20.68123303600360  0.57814396259626 -0.06354929092909
 1  19.83725783238324  3.62205576747675 -0.84736833023302
 1  21.13545779787979  2.73908056085609 -1.49140050335034
 1  19.53589749414942  2.22212402320232 -1.62870983998400
 1  21.22063803900390  1.01945005410541  2.33214283148315
 1  22.07692939923992  2.14619584928493  1.15649061536154
 1  20.72578230813081  2.86394647794779  2.02734317481748
=======
12 -7.08837941094109  0.58491723982398 -0.00341265386539
 6 -4.85388000600060 -1.87955913431343  0.54193072577258
 6 -4.85828575747575  2.84491293859386  1.25605197009701
 6 -9.41211594709471  3.01801729722972 -0.52794565426543
 6 -9.44885519921992 -1.83884939593959 -0.94423085218522
 7 -5.08482190679068  0.46600641874187  0.73405382368237
 6 -4.40864057015702 -0.63763358535854  0.88319634283428
 6 -2.93513251865187 -0.29199862556256  1.26077643184318
 6 -3.05229866826683  1.16158882718272  1.83296402710271
 6 -4.42560955585559  1.57913866266627  1.27503453335334
 6 -3.16349143124312  1.20010229832983  3.32362377127713
 6 -1.89600306130613 -0.53018828022802  0.10649460776078
 6 -0.47797522012201 -0.19119346654665  0.52261639093909
 6  0.42605374257426 -0.46675018791879 -0.64897027752775
 8  0.17160840094009 -0.79621502910291 -1.74179051075107
 8  1.78520033053305 -0.36273366976698 -0.17784457335734
 7 -7.15189563746375  2.58779436923692  0.34557325282528
 6 -6.11020029902990  3.37966894269427  0.74458799239924
 6 -6.43945119821982  4.80696498589859  0.76744743194319
 6 -7.77889059605961  4.84531516301630  0.32682107340734
 6 -8.17852212381238  3.51899109440944  0.08974152045205
 6 -5.64242219891989  5.88142060796080  1.24288904940494
 6 -8.62290008760876  5.93464449814982  0.24152113751375
 6 -8.53370726202620  7.24476059465947  0.70085633543354
 7 -9.10520279287929  0.60189305040504 -0.62335636933693
 6 -9.87284354405440  1.71452140524052 -0.77711403550355
 6 -11.28057715431543  1.35712405150515 -1.07339905940594
 6 -11.18257066096610 -0.01753638953895 -1.33100181418142
 6 -9.85352103280328 -0.47773974827483 -1.02107712381238
 6 -12.32296111981198  2.24341491249125 -1.38089486428643
 6 -12.39098364466447 -0.79746715681568 -1.77856866536654
 6 -12.31092858125813 -1.04388679987999 -3.33358847744775
 7 -7.16043551185119 -1.33394300790079 -0.23226790379038
 6 -8.14313455325533 -2.25688086018602 -0.50109506470647
 6 -7.77315346094609 -3.62466073357336 -0.44268154545455
 6 -6.50280416451645 -3.58605294229423 -0.11822355425543
 6 -6.18887148354835 -2.13742202350235  0.16469927412741
 6 -8.67259472687269 -4.78432127452745 -0.66995547394739
 6 -5.21625609590959 -4.39372325582558  0.16935980858086
 8 -5.10869970787079 -5.59148363176318  0.21554858555856
 6 -4.07110068946895 -3.25239102890289  0.59818968426843
 6 -3.57283791469147 -3.63146836813681  1.89660003290329
 8 -3.72429403000300 -3.05157189338934  2.97154983608361
 8 -2.78311950565057 -4.73135785818582  1.78898747964797
 6 -2.15898648654866 -5.08892312141214  3.06846178167817
 6  2.82111462316232 -0.58966676127613 -1.19811101150115
 6  4.13231532053205 -0.43574175047505 -0.58171832083208
 6  5.14029751415142  0.35658192359236 -0.95152492519252
 6  5.04889331233123  1.20240288958896 -2.30088425372537
 6  6.47723205600560  0.38506035623562 -0.21632811801180
 6  7.61931946984699 -0.24399474637464 -0.99004595509551
 6  9.00647251985199 -0.16456158655866 -0.11791360416042
 6  10.24978560306030 -0.62055912761276 -0.81766273677368
 6  10.20081678187819 -2.10938187428743 -1.28817228222822
 6  11.57622049894990 -0.36039982078208 -0.08578771017102
 6  12.86491139883988 -0.54577862896290 -0.76417644054405
 6  14.01169063746375 -0.15062626542654  0.13750081758176
 6  15.42957908280828 -0.20240396949695 -0.61373961376138
 6  15.75406707560756 -1.66692432623262 -1.08621823952395
 6  16.47769187508751  0.37850221022102  0.34389889708971
 6  17.81144573397340  0.47672907130713 -0.22190800540054
 6  18.69947031653165  1.16348456545655  0.79886031903190
 6  20.13945261446144  1.33976430993099  0.23836860006001
 6  20.39409076287629  2.19870816801680 -0.92326331903190
 6  21.10232116291629  1.87728066436644  1.34560992439244
 1 -4.11510299479948  3.62259778117812  1.59451403830383
 1 -10.04373476617662  3.85584641964196 -0.76896228772877
 1 -10.13603689308931 -2.58294763556356 -1.05329198139814
 1 -2.72511896879688 -1.25062337623762  2.00119081028103
 1 -2.19350295549555  1.71307489008901  1.43596424682468
 1 -2.20168462596260  1.16282673557356  3.69484319781978
 1 -3.42846790679068  2.22149620712071  3.54766693209321
 1 -3.82470591329133  0.58917360136014  3.83752616541654
 1 -1.83251573647365 -1.52876283668367 -0.25958986818682
 1 -2.18972064456446  0.17094434483448 -0.64523456305631
 1 -0.26518003540354  0.57385199909991  1.40253065216522
 1 -0.29811761376138 -1.09050356555656  1.13250720592059
 1 -6.04990376577658  6.77582622672267  0.68879458865887
 1 -6.00452744214421  6.07331069416942  2.27427372447245
 1 -4.63602755875588  5.80183134953495  1.19289246484648
 1 -9.31952400490049  5.78773492159216 -0.58736896509651
 1 -9.17572878877888  8.21822256115612  0.41686130793079
 1 -7.67429689548955  7.47637403690369  1.54352273777378
 1 -12.33669777487749  2.89666999299930 -2.04808781348135
 1 -13.09000867006701  1.51582547374737 -1.75086627812781
 1 -12.64650638173817  2.87008566326633 -0.36009725372537
 1 -12.47289206760676 -1.78077752285229 -1.08044299919992
 1 -13.25522424132413 -0.13127986478648 -1.84964049154916
 1 -12.93893024562456 -1.80107479367937 -3.76388627312731
 1 -12.55658922312231  0.03200866326633 -3.75958945464546
 1 -11.22893917321732 -1.47619248634863 -3.86364498449845
 1 -9.00174977797780 -5.04533527642764 -1.82394565866587
 1 -8.28362772757276 -5.74310431463146 -0.65319493249325
 1 -9.66383626852685 -4.94114913621362 -0.18125994859486
 1 -3.35524622052205 -3.44417766846685 -0.01186645814581
 1 -1.84957312381238 -4.20035647534753  3.64749766506651
 1 -2.95902551115111 -5.79244086168617  3.64470730963096
 1 -1.13230134163416 -5.63824309750975  2.90357431033103
 1  2.69738904300430 -1.48705054095410 -1.49098306330633
 1  2.60607808540854  0.16105038463846 -1.92846599879988
 1  4.21204210981098 -1.20039225442544  0.35799901590159
 1  3.87194615811581  1.33202191259126 -2.67821619131913
 1  5.52808822052205  2.05790604950495 -2.06383285148515
 1  5.47375468306831  0.72440354785479 -3.07887661866187
 1  6.81556361926193  1.38979297929793 -0.02670002720272
 1  6.48073219261926 -0.07071510891089  0.94828454515452
 1  7.34484186888689 -1.31880111531153 -1.11828315191519
 1  7.64944738063806  0.09067227532753 -1.88747167076708
 1  9.32128418001800  0.81737962296230  0.42619025122512
 1  8.62322081078108 -0.81842734893489  0.71627949164917
 1  10.43529108050805 -0.03197065936594 -1.75909079857986
 1  9.25417040254025 -2.26573454995500 -1.85595151995200
 1  11.15091764746475 -2.59125590949095 -2.05141938583858
 1  10.13112599859986 -2.91034297629763 -0.51039047874787
 1  11.58010569146915  0.58470070027003  0.65759724722472
 1  11.41643469686969 -1.04012997429743  0.81917253885389
 1  13.02666598549855 -1.38179634083408 -1.17890555815582
 1  12.98200195269527  0.12112280328033 -1.71768512981298
 1  13.82891432813281  0.85144770077008  0.72480982398240
 1  13.93552630573057 -1.08335794049405  1.01547806430643
 1  15.19954324282428  0.52189167416742 -1.52001635963596
 1  15.64545198809881 -2.31963225532553 -0.32746420032003
 1  14.91043409410941 -2.03844622022202 -1.89024643974397
 1  16.66026565596560 -1.91853737863786 -1.85983745324532
 1  15.98839404010401  1.25215304900490  0.82582912721272
 1  16.48927337453745 -0.50155933103310  1.05152791399140
 1  18.44972591129113 -0.42832938033803 -0.66001934233423
 1  17.75427249174918  1.27932525142514 -1.26861043684368
 1  18.43078387098710  2.14707886558656  1.00580858615862
 1  18.81948910921092  0.59402358335834  1.78613861416142
 1  20.58868378107811  0.28304445264527  0.10562762676268
 1  20.02329643624362  3.18124168606861 -0.68363195659566
 1  21.47517176927693  2.26271292409241 -1.08102946624662
 1  19.93970787518752  2.00225203600360 -2.05884285328533
 1  21.12033800900090  1.35372348144814  2.16040565776578
 1  22.04347605390539  2.17530876057606  0.87382234853485
 1  20.78669839973998  2.85856593989399  1.65024546504651
>>>>>>> 8e03b5b5abfc0030b3aa597dc0de36371bfbd096

