%nproc=4
%Mem=2GB
# td=(NStates=1) CAM-B3LYP/6-31G(d,p) 

TD

0 1
<<<<<<< HEAD
12 -7.17397797079708  0.56838558665867  0.02105979337934
 6 -4.77828244624462 -1.90879205760576  0.49497603030303
 6 -4.72366229512951  2.90920936823682  1.07555392029203
 6 -9.42295703120312  3.13745924142414 -0.40168302800280
 6 -9.47122743644364 -1.79204471547155 -0.79733616271627
 7 -5.01189461406141  0.47784760286029  0.64368478677868
 6 -4.33391309740974 -0.72052187418742  0.84391241444144
 6 -2.84117312271227 -0.41008043374337  1.18965932013201
 6 -2.93815725412541  1.08876154445445  1.66881761246125
 6 -4.28004499939994  1.55665641444144  1.02049907980798
 6 -2.88435351745175  1.36988927702770  3.19673108200820
 6 -1.84712817381738 -0.56159142054205 -0.04524056575658
 6 -0.39823724632463 -0.62794714191419  0.46679080838084
 6  0.44736587378738 -0.73670718361836 -0.67600298079808
 8  0.11899313941394 -1.01173658125813 -1.82199853155316
 8  1.72236404690469 -0.45047244364436 -0.23540032893289
 7 -7.07957840574057  2.66131172097210  0.30328902440244
 6 -6.00631991099110  3.38670964676468  0.77996152975298
 6 -6.37541479457946  4.74867915731573  0.82123281048105
 6 -7.65856856385639  4.81997262876288  0.34976336763676
 6 -8.12385665726573  3.50491968726873 -0.09295674937494
 6 -5.51252920962096  5.91673413931393  1.16115087558756
 6 -8.49943774137414  6.06060709440944  0.14947193259326
 6 -8.58708259955996  7.15140125872587  0.99165541534153
 7 -9.22122439503950  0.64724758585859 -0.43636767046705
 6 -9.86935319501950  1.77599755285529 -0.69697602170217
 6 -11.26188528512851  1.45304364346435 -1.11391311081108
 6 -11.25316772067207  0.08452381648165 -1.15064377837784
 6 -10.00553623432343 -0.45115709000900 -0.83039805590559
 6 -12.38866769046905  2.37303787478748 -1.38094486928693
 6 -12.34146869316932 -0.81492890299030 -1.68815962446245
 6 -12.33011049944995 -1.20769318051805 -3.21925704430443
 7 -7.22882235053505 -1.35380499409941 -0.14368904590459
 6 -8.18686892669267 -2.25942111421142 -0.52216717191719
 6 -7.80127627322732 -3.56738500600060 -0.51514879217922
 6 -6.49614349844984 -3.54549888688869 -0.13616534843484
 6 -6.13940653705370 -2.15168344964496  0.10404320852085
 6 -8.54956242364236 -4.84444728712871 -0.83025150355036
 6 -5.33680815111511 -4.31347523102310  0.21540441304130
 8 -5.22335117301730 -5.53778826222622  0.16172320302030
 6 -4.13780736013601 -3.28920471027103  0.58653851915192
 6 -3.59581021192119 -3.70471569286929  2.03727410031003
 8 -3.75413701430143 -3.12234897109711  3.08512119321932
 8 -2.78233942764276 -4.68881360376038  1.88927750865087
 6 -2.15098568646865 -5.15608983808381  3.07592252775278
 6  2.79862237393739 -0.69597739233923 -1.25447664806481
 6  4.07562965196520 -0.44581275757576 -0.66853700270027
 6  5.15085857025703  0.32323858925893 -1.11454122682268
 6  5.13607203020302  1.15176782608261 -2.39062322762276
 6  6.43513784658466  0.48730058025803 -0.29394587978798
 6  7.61571910981098 -0.16048639553955 -0.99941689218922
 6  8.92163403600360 -0.06265139553955 -0.23761557435744
 6  10.21867249174917 -0.55639271097110 -0.94692566306631
 6  10.08693539373937 -2.05017595369537 -1.18462192719272
 6  11.44045692259226 -0.28623240404040 -0.12485161656166
 6  12.80338524622462 -0.46264031513151 -0.71142116501650
 6  13.93456292469247 -0.02851405420542  0.12231929942994
 6  15.31026715161516 -0.15814954405441 -0.46880512031203
 6  15.60233190209021 -1.58562619641964 -0.99024864256426
 6  16.41152525842584  0.43869822982298  0.44819932713271
 6  17.77324191359136  0.46961836023602 -0.13741955655566
 6  18.77260763026303  1.18732694969497  0.86140657365737
 6  20.21493016221622  1.23775410891089  0.35337010021002
 6  20.38048940274027  2.28039633683368 -0.92706369906991
 6  21.09870080088009  1.79096203250325  1.44393975737574
 1 -3.95706719121912  3.53850937233723  1.61891647854785
 1 -10.21699209190919  4.02198303330333 -0.50676606810681
 1 -10.23655694509451 -2.64840418121812 -1.10463711591159
 1 -2.56697315421542 -0.98771708560856  2.01288197939794
 1 -2.10056366156616  1.72895647824782  1.27843849424942
 1 -1.72453691119112  1.07500795369537  3.35628934243424
 1 -2.99302436243624  2.59715377287729  3.32495466086609
 1 -3.65593903660366  0.73393807780778  3.80052246504650
 1 -2.03128561346135 -1.43101306170617 -0.59408331753175
 1 -1.96473814631463  0.15574282468247 -0.81141118071807
 1 -0.37184070147015  0.29279389328933  1.13242364146415
 1 -0.29311711371137 -1.38973348854886  1.10929488468847
 1 -5.77741651705171  6.88362700680068  0.67628333753375
 1 -5.77051404080408  6.02250561366137  2.15206150325033
 1 -4.46648060406041  5.72352351875187  1.13671684728473
 1 -9.32902495499550  5.58772492059206 -0.59067929612961
 1 -9.18733994989499  8.03009374827483  0.80715033683368
 1 -7.93840330613061  7.37862426192619  1.81353973947395
 1 -12.25662976807681  3.12213253925392 -2.09325232993299
 1 -13.36983665286528  1.87222111331133 -1.32983417491749
 1 -12.24738646974698  3.12355100980098 -0.50134137813781
 1 -12.15534031243124 -1.66334577967797 -1.16740169506951
 1 -13.32429114801480 -0.56176291309131 -1.50895642314231
 1 -13.30283663626363 -1.80689537573757 -3.44940482498250
 1 -12.35301886608661 -0.36150068766877 -3.68570206590659
 1 -11.52228850815082 -1.80274514161416 -3.47634625462546
 1 -8.79103870687069 -4.83143388628863 -1.88937220132013
 1 -7.90932029682968 -5.73408341254125 -0.52551216421642
 1 -9.57417730263026 -4.75615063636364 -0.40116193879388
 1 -3.30475117101710 -3.45376862756276 -0.22118739023902
 1 -1.65432359885989 -4.45122156185619  3.60975389068907
 1 -3.06128573717372 -5.48251986958696  3.57076991589159
 1 -1.50981909340934 -5.90169944314431  2.79435338823882
 1  2.63068237233723 -1.65265710161016 -1.74000796579658
 1  2.66466394399440 -0.14344006440644 -2.13683683588359
 1  4.31790269586959 -1.01497371257126  0.21925514151415
 1  4.10081904540454  1.13260197059706 -2.98159652935294
 1  5.40829624132413  2.05667592649265 -1.94043051125113
 1  5.89138644624462  0.68789989748975 -2.94534326532653
 1  6.54870693359336  1.56041004100410 -0.11358871607161
 1  6.34920904030403  0.06006796939694  0.84704442114211
 1  7.47432481718172 -1.15831506670667 -1.14802612621262
 1  7.84864730063006  0.33641684978498 -2.06697962156216
 1  9.06703875547555  1.04431231623162  0.07404503670367
 1  8.80311880058006 -0.56497200340034  0.75781364506451
 1  10.49936748814881 -0.09029649194920 -1.99675456495650
 1  9.28186317181718 -2.15845382188219 -1.99283520832083
 1  10.99208176387639 -2.30461724562456 -1.82974721862186
 1  10.15180806680668 -2.62226416841684 -0.11600103980398
 1  11.49236691759176  0.70167239743974  0.21400288778878
 1  11.49727278067807 -0.81661762306231  0.82894351595159
 1  12.83464678357836 -1.32455061626163 -1.04211187878788
 1  12.66994074657466  0.14981567256726 -1.56757011831183
 1  13.82429386608661  0.99032158815882  0.30659800280028
 1  13.96359911301130 -0.64586419111911  1.03393991049105
 1  15.36557984648465  0.57489697469747 -1.40182454045405
 1  15.67429487238724 -2.31349164126413 -0.16069752365237
 1  14.77921097179718 -1.93791616721672 -1.65188260336034
 1  16.48331796119612 -1.73944946984698 -1.45911738123812
 1  15.83502870357036  1.60388822252225  0.77168371267127
 1  16.45106955415541 -0.12806198129813  1.37290005120512
 1  17.88206914561456 -0.48166471387139 -0.46703004340434
 1  17.79269633413341  1.09225654455446 -1.18898247404740
 1  18.29816060866087  2.14803896159616  1.30669867516752
 1  18.81967912821282  0.52414659565957  1.81261126142614
 1  20.43666857955796  0.18780492869287 -0.05869880588059
 1  20.18392249884988  3.26817037893789 -0.65489908330833
 1  21.44379863196320  2.42121877467747 -1.25995735903590
 1  20.01766567096710  1.81424323512351 -2.01799876887689
 1  21.11169714491449  1.22691080018002  2.41652126932693
 1  22.12962466876688  1.81822305200520  1.15940090639064
 1  20.71309103900390  2.56699678297830  1.89284972547255
=======
12 -7.13300387338734  0.69299804790479  0.03072075947595
 6 -4.87468208620862 -1.96001718011801  0.61651818451845
 6 -4.71805173407341  2.89757820512051  1.07034339923992
 6 -9.44755949144914  3.06535203070307 -0.45337819751975
 6 -9.50202051575157 -1.70504601560156 -0.85604203330333
 7 -5.08526195079508  0.54058387648765  0.83126354465447
 6 -4.33707341344134 -0.64627444944494  0.81828985218522
 6 -2.91114011941194 -0.40238966466647  1.24425477967797
 6 -2.90450388878888  1.09522219051905  1.68890962166217
 6 -4.25306230113011  1.50343109190919  1.15994302420242
 6 -2.89163424552455  1.22510479857986  3.27567897679768
 6 -1.80260372137214 -0.55316057745775  0.12107606590659
 6 -0.45976339893989 -0.52490683788379  0.62128625792579
 6  0.45476661386139 -0.69597311021102 -0.59215459595960
 8  0.16619785988599 -0.95832123972397 -1.66938327002700
 8  1.70958276877688 -0.66057345374537 -0.18001479037904
 7 -7.13908435633563  2.57791338113811  0.39423811931193
 6 -6.03974325332533  3.34924590039004  0.72905643924392
 6 -6.35457271037104  4.70847513691369  0.78195888308831
 6 -7.72995570257026  4.83185381688169  0.32347073837384
 6 -8.14433870547055  3.40294949024903  0.03199574587459
 6 -5.39272722942294  5.80167263316332  1.04221898239824
 6 -8.49872767036704  5.99202023572357  0.05250223562356
 6 -8.42448633993399  7.22364848344835  0.66756300610061
 7 -9.09872214481448  0.70555341644164 -0.58995302900290
 6 -9.85351161086109  1.70884083718372 -0.76799312341234
 6 -11.18498759535954  1.48770710981098 -1.13319503900390
 6 -11.20264266816682  0.08191355545555 -1.20291900590059
 6 -9.93473915461546 -0.35989796409641 -0.96406142224222
 6 -12.32000082378238  2.57056762776278 -1.38732550735074
 6 -12.33697824412441 -0.75438284838484 -1.68868967746775
 6 -12.40846833523352 -1.11016342754275 -3.23359847844785
 7 -7.27226669496950 -1.35637525112511 -0.07781245824582
 6 -8.23154339413941 -2.21685685778578 -0.60135509070907
 6 -7.75068121372137 -3.64346261376138 -0.60907818511851
 6 -6.55357924202420 -3.51084542154215 -0.09719145104510
 6 -6.11196379277928 -2.16977525882588  0.17574037823782
 6 -8.62329979737974 -4.88085092749275 -0.91274975337534
 6 -5.25081955225523 -4.25127901140114  0.15351822442244
 8 -5.12126096399640 -5.58386286968697  0.17707473817382
 6 -4.17815139453945 -3.30086587638764  0.60243010831083
 6 -3.60936156705671 -3.78142336363636  1.99848022092209
 8 -3.87127872847285 -3.24675141134113  3.02776545764576
 8 -2.72397359105911 -4.80207492989299  1.76841542244224
 6 -2.25343593149315 -5.20173440254025  3.01841677717772
 6  2.77548005970597 -0.68993678827883 -1.26157735813581
 6  4.03662575157516 -0.45533370967097 -0.52951310031003
 6  5.13697718211821  0.39848611401140 -0.93125289798980
 6  5.08493691669167  1.21047369666967 -2.23853801910191
 6  6.33751808460846  0.39975182538254 -0.18080456565657
 6  7.51334887278728 -0.37855820272027 -0.84635158565857
 6  8.90021189378938 -0.13976910731073 -0.13766557935794
 6  10.11432205670567 -0.58425549724973 -0.89305027552755
 6  10.13018971917192 -2.09448038413841 -1.31477494249425
 6  11.42740561746175 -0.30179396019602 -0.08668780018002
 6  12.83123803150315 -0.35714976607661 -0.77332735563556
 6  13.96785625402540  0.01296009320932  0.11260832833283
 6  15.29618574347435  0.04434070497050 -0.56001424122412
 6  15.76909857875788 -1.42603023682368 -1.09324894259426
 6  16.34463856975698  0.53247760776078  0.50242474967497
 6  17.72843743314331  0.61564296269627 -0.07704351895190
 6  18.74912528202820  1.38658687568757  0.79000943394339
 6  20.20154882408241  1.26974730823082  0.25944070727073
 6  20.33503485728573  2.06552484968497 -1.01168216091609
 6  21.22667359815982  1.74311724802480  1.28701406480648
 1 -4.11673315781578  3.57270279167917  1.31537612451245
 1 -10.06913730643064  3.92044287928793 -0.82016740824082
 1 -10.31845513491349 -2.62242158295830 -1.19711636383638
 1 -2.53727018391839 -1.01826013991399  2.10849154035403
 1 -2.11282488768877  1.71741532413241  1.17866851725173
 1 -1.90785524302430  0.86093654655466  3.78105181868187
 1 -2.81718677867787  2.34297835533553  3.41827399279928
 1 -3.67256069876988  0.81658634263426  3.72391480428043
 1 -1.90020250515051 -1.48414837523752 -0.34635854505450
 1 -2.18496016851685 -0.14577732733273 -0.77961800140014
 1 -0.15250876827683  0.51639625352535  1.08934933403340
 1 -0.33042084408441 -1.13268778397840  1.48202215741574
 1 -5.63787256265627  6.64649329342934  0.47716342554255
 1 -5.55887287668767  6.27081044414441  2.11974827192719
 1 -4.38966292229223  5.62561372777278  1.08444161976198
 1 -9.33718577107711  5.85826197429743 -0.71387161536154
 1 -9.22981419731973  8.07083782268227  0.48891851365136
 1 -7.54112357815782  7.45654205370537  1.26649503500350
 1 -12.06630073517352  3.15799612561256 -2.15850885558556
 1 -13.28433810301030  2.00557444864486 -1.46325751725173
 1 -12.53075480658066  3.24154280898090 -0.40912215621562
 1 -12.10736551495149 -1.60001944704470 -1.11337629252925
 1 -13.27772649154915 -0.40876761356136 -1.36843237073707
 1 -13.21591794439444 -1.62173685988599 -3.58371825632563
 1 -12.40748431263126 -0.10785532313231 -3.60589408510851
 1 -11.45042132143215 -1.94360922802280 -3.28797741774177
 1 -9.18877848084809 -4.71796253915392 -1.86612987708771
 1 -7.94600396519652 -5.82506251045104 -0.83541315431543
 1 -9.28937882278228 -5.00606562786279  0.03857203460346
 1 -3.38881957785779 -3.33174642534253 -0.42635790729073
 1 -1.68842700920092 -4.35245168486849  3.41596451175117
 1 -2.81620122872287 -5.63434505210521  3.80534337323732
 1 -1.59734784628463 -5.93312258545855  2.80921487438744
 1  2.75578488258826 -1.72160399629963 -1.58551251625163
 1  2.45887336493649  0.11160544014401 -1.80673382558256
 1  4.12530343594359 -1.06339855505551  0.25498871487149
 1  4.07596656015602  1.40775948634863 -2.45566393609361
 1  5.55615102680268  2.26112637153715 -1.82034850305031
 1  5.65524283188319  0.80720182768277 -3.12130086108611
 1  6.57793985688569  1.35566956695670  0.25554819761976
 1  6.10418453785379 -0.23411144854485  0.63576329302930
 1  7.21340872557256 -1.57163639883988 -0.94251557515752
 1  7.51473390929093 -0.09321611351135 -1.98739166276628
 1  8.93669572117212  1.01533941894189  0.13538117031703
 1  8.73123161186119 -0.79692519871987  0.75791365506551
 1  10.25435298669867 -0.14374183648365 -1.81923681318132
 1  9.44314930043004 -2.36646462296230 -1.95375129992999
 1  11.10159271497150 -2.04818160206021 -2.10007425132513
 1  10.32100498649865 -2.85617755975598 -0.60664010371037
 1  11.41621930283028  0.69828205840584  0.33673516101610
 1  11.46143919731973 -1.06558251955195  0.66151677327733
 1  13.01808512741274 -1.52368052925292 -1.22208987658766
 1  12.52866661916192  0.20565125612561 -1.57729109040904
 1  13.58895033173317  0.92624518051805  0.71424876787679
 1  13.91220397349735 -0.66992659735974  0.96021253775378
 1  15.58222151065107  0.88046753175317 -1.45998035603560
 1  15.90520796369637 -2.21404169626963 -0.36177763166317
 1  14.88308135883588 -1.82036441204120 -1.79878729382938
 1  16.74058368776878 -1.33402892779278 -1.82640410991099
 1  15.98018321902190  1.49587742144214  0.88971551585159
 1  16.29801424862486 -0.18643781888189  1.22611537273727
 1  18.13539447814782 -0.15382192959296 -0.30222356275628
 1  17.82924998949895  1.11528884778478 -1.11581515731573
 1  18.57025781838184  2.42260641834183  0.80912891819182
 1  18.70334749504951  0.86983116411641  1.80666066636664
 1  20.43175808850885  0.22676882508251  0.09543660766077
 1  19.95535964256425  3.04731829372937 -0.86550014341434
 1  21.38399265136514  2.05727238003800 -1.30240160346035
 1  19.72307621202120  1.60945275607561 -1.81303827282728
 1  21.09144511971197  1.20653876297630  2.27440705790579
 1  22.30384209050905  1.50180140984098  0.87881284758476
 1  21.00687041694169  2.74723480678068  1.64109454995500
>>>>>>> 8e03b5b5abfc0030b3aa597dc0de36371bfbd096

