%nproc=4
%Mem=3GB
# td=(NStates=1) iop(3/107=0140000000,3/108=0140000000) CAM-B3LYP/6-31G(d,p) 

TD

0 1
12 -7.13158785048505  0.59799818331833  0.05270164016402
 6 -4.83114193069307 -1.99250648124812  0.49330473287329
 6 -4.76197222782278  2.75496421432143  1.22898300350035
 6 -9.33661042554255  3.07681523452345 -0.48524099939994
 6 -9.53973007100710 -1.70632239793979 -0.75848265316532
 7 -5.09880691189119  0.38935502610261  0.76015383938394
 6 -4.35753800110011 -0.79674081728173  0.78519641434143
 6 -2.93851007160716 -0.45905430343034  1.18407407650765
 6 -3.08222144904490  0.92615131673167  1.75656193549355
 6 -4.39478971367137  1.44512916401640  1.16417081098110
 6 -3.05062124292429  1.15462828212821  3.24200951555156
 6 -1.92032776247625 -0.53754974417442 -0.00100629032903
 6 -0.48501421062106 -0.37472072007201  0.37412079437944
 6  0.50388231143114 -0.63113973587359 -0.69804959505951
 8  0.33224344114411 -1.15452923062306 -1.83095048814881
 8  1.70097869626963 -0.39569950835083 -0.19461484908491
 7 -7.04502214561456  2.64817802770277  0.27832875697570
 6 -5.88599874367437  3.32390615801580  0.79566544264426
 6 -6.29254416281628  4.79169603320332  0.86613487218722
 6 -7.64214900020002  4.90532233743374  0.39163528992899
 6 -8.08742827032703  3.54833177197720  0.06927492609261
 6 -5.41496353025302  5.80888036173617  1.33816397159716
 6 -8.42423243124312  5.99725999559956  0.12781339383938
 6 -8.27288569856986  7.16764591429143  0.78081214051405
 7 -9.06261530263026  0.65903289768977 -0.62963953785379
 6 -9.83092057835784  1.84761808610861 -0.78988180168017
 6 -11.18656260896090  1.55432487698770 -1.23420828052805
 6 -11.18844833203320  0.15303284908491 -1.28079810811081
 6 -9.88216582018202 -0.30120031343134 -0.86970917221722
 6 -12.24944588228823  2.56378161956196 -1.55643509620962
 6 -12.35266905980598 -0.74589071287129 -1.75288461906191
 6 -12.35496740564056 -1.23221341364136 -3.16050670187019
 7 -7.20128309070907 -1.42087692339234 -0.10370304540454
 6 -8.27297162346235 -2.27070561606161 -0.54938651855185
 6 -7.86395843564356 -3.64264481588159 -0.45906620642064
 6 -6.48426621712171 -3.53699668176818 -0.11348343004300
 6 -6.17833156485649 -2.23135109090909  0.09674150955095
 6 -8.79409174867487 -4.74241033943394 -0.77398078117812
 6 -5.31814727762776 -4.39295285868587  0.24812978707871
 8 -5.36173716601660 -5.59900675767577  0.13657960656066
 6 -4.16386088868887 -3.34093154055406  0.57419574117412
 6 -3.53171734853485 -3.73921186388639  1.97564353285329
 8 -3.73427621102110 -3.06265362326233  3.02558591679168
 8 -2.80122547534753 -4.82341095959596  1.77184622212221
 6 -2.21302025902590 -5.31548675457546  3.01772917331733
 6  2.81787810821082 -0.59797808670867 -1.15945946314631
 6  4.07386827202720 -0.31716698459846 -0.47456001880188
 6  5.04890038133813  0.56234276227623 -0.81157403440344
 6  5.09966369196920  1.21906958225823 -2.08397253225323
 6  6.40017629632963  0.49068968496850 -0.20182070647065
 6  7.57726917951795 -0.08804735273527 -0.96805713441344
 6  8.87302501410141 -0.08936075217522 -0.19917602000200
 6  10.22133759435944 -0.43148481168117 -0.99325504550455
 6  10.00473374997500 -1.86745462536254 -1.48523548954895
 6  11.37274193799380 -0.12999789088909 -0.13470143264326
 6  12.77069480498050 -0.55699573307331 -0.67277478257826
 6  14.00580185198520 -0.14622033633363  0.28044445604560
 6  15.34253024402440 -0.19699878347835 -0.46920257275728
 6  15.57206347734773 -1.73696208450845 -0.81820364666467
 6  16.40083707640764  0.48014453175318  0.50391512621262
 6  17.84386197389739  0.45229895949595 -0.21337786478648
 6  18.72697311591159  1.31759983848385  0.65618887558756
 6  20.22846565096510  1.30299973247325  0.28587529352935
 6  20.47037988378838  1.99286659175918 -1.11180587648765
 6  21.05222028902890  1.88508020792079  1.28455239523952
 1 -4.04148451195119  3.50396364776478  1.55305140094009
 1 -10.06028815211521  3.90618289278928 -0.41065559175918
 1 -10.44168859295930 -2.21443697879788 -1.07950576997700
 1 -2.43902118931893 -1.09866006870687  2.01823831453145
 1 -2.02793625992599  1.63422548364836  1.31374502350235
 1 -2.10157324372437  0.54278338473847  3.64571490889089
 1 -3.19582669176918  2.11118034083408  3.42296031823182
 1 -3.85648844934493  0.50505565986599  3.58955064026403
 1 -2.18493361236124 -1.51866253705371 -0.36832483958396
 1 -2.23383975297530  0.12624024382438 -0.78140487508751
 1 -0.43990941964196  0.73046263356336  0.74783864686469
 1 -0.16964538483848 -0.97501826842684  1.14022748104811
 1 -5.71685586328633  6.78864637663766  0.77630746204620
 1 -5.42324379567957  6.12299518091809  2.46978899139914
 1 -4.22681752635263  5.68464273227323  1.02355308790879
 1 -9.16102636243624  5.88643202520252 -0.91844319701970
 1 -8.95982504620462  8.09580930193019  0.60562033773377
 1 -7.80142807490749  7.12528936533653  1.86348530883088
 1 -12.01587206020602  3.00892003910391 -2.48837466896690
 1 -13.17794509220922  1.99053779617962 -1.87639336753675
 1 -12.49386041874187  3.37014434853485 -0.61612205170517
 1 -12.23821578647865 -1.69618054085409 -1.15230873177318
 1 -13.49639193829383 -0.36688939943994 -1.63008876327633
 1 -13.07930312951295 -1.98211187328733 -3.41401235933593
 1 -12.42717312301230 -0.35116358765877 -3.77411639003900
 1 -11.33448828822882 -1.62329335653565 -3.52034031223122
 1 -9.13464808340834 -4.58512501330133 -1.76585264826483
 1 -8.19773415861586 -5.65666161946195 -0.64104405950595
 1 -9.63923810281028 -4.80431888028803 -0.04308657735774
 1 -3.48163568206821 -3.55700230583058 -0.26546428452845
 1 -1.59332271987199 -4.55412762616262  3.26380809840984
 1 -2.90724716201620 -5.29981950685069  3.82934397209721
 1 -1.52084260476048 -6.10315109990999  2.80120348144815
 1  2.70645870067007 -1.59473609640964 -1.71790323902390
 1  2.58263470477048  0.13734181898190 -2.10863192069207
 1  4.16417690439044 -0.76007442124212  0.55284668486849
 1  4.04886019751975  1.07613315601560 -2.70670115581558
 1  5.49772670487049  2.18952937683768 -2.15822326072607
 1  5.74731429992999  0.70975216611661 -2.88528478537854
 1  6.51759994389439  1.50948092869287  0.24159377327733
 1  6.30516838893889 -0.09211654835484  0.80029622512251
 1  7.34800692349235 -1.06735740874087 -1.11758651585159
 1  7.46717927642764  0.31242034503450 -1.84705552845285
 1  9.01628767306731  0.89590908840884  0.24483691179118
 1  8.66459958075808 -0.96088444114411  0.63115923932393
 1  10.27622225402540  0.20596674447445 -1.75876103410341
 1  9.13312292139214 -1.76488477197720 -2.17848623052305
 1  11.09026816741674 -2.08979237853785 -2.00201555965597
 1  9.79735193229323 -2.62879699439944 -0.70075746944694
 1  11.44480612221222  1.00156659005901 -0.05916814601460
 1  11.19827742324233 -0.58476977457746  0.91641796189619
 1  12.79389734223422 -1.91748916821682 -0.64022629412941
 1  12.95914174407441  0.07838277427743 -1.69902423612361
 1  13.69095051535153  0.85005036833683  0.61281611031103
 1  13.98437674827483 -0.68435481438144  1.12792516651665
 1  15.42042244364436  0.42041543854385 -1.32274354315432
 1  15.58998279507951 -2.34329367056706  0.15630749524952
 1  14.71583322772277 -2.22515703570357 -1.32822419591959
 1  16.50746902650265 -2.03631452845285 -1.51299781308131
 1  15.95867914141414  1.48451678537854  0.61024694099410
 1  16.34347842564257 -0.15427171197120  1.47310580528053
 1  18.37378411611161 -0.61765827982798 -0.19811000660066
 1  17.95032234183418  0.78478737283728 -1.18770451405140
 1  18.71180023692369  2.41482275027503  0.70619256605661
 1  18.74328029052905  1.07527236673667  1.86857010251025
 1  20.45183501580158  0.13299429702970  0.27340323252325
 1  20.21517833633363  3.13858463496350 -1.03357554225423
 1  21.61340514131413  2.05734687678768 -1.41890987218722
 1  20.00534893249325  1.51330162036204 -1.93975235963596
 1  20.95502935643564  1.45402104300430  2.31505517431743
 1  22.17835572837284  2.08755922662266  0.89795644924492
 1  20.80973105160516  2.98793491069107  1.48534567126713

