%nproc=4
%Mem=3GB
# td=(NStates=1) iop(3/107=0140000000,3/108=0140000000) CAM-B3LYP/6-31G(d,p) 

TD

0 1
12 -7.20886557825783  0.58995737923792  0.10244661466147
 6 -4.87325614211421 -1.99469670027003  0.41172657505751
 6 -4.75721175177518  2.81810052795280  0.99929003420342
 6 -9.51716848134814  3.12145969896990 -0.27036951225123
 6 -9.53062916091609 -1.58935070077008 -0.96294309920992
 7 -5.12651968316832  0.44003009360936  0.72276010001000
 6 -4.42026427372737 -0.72333347654765  0.65853374807481
 6 -2.97663388398840 -0.36684508250825  1.13212888198820
 6 -3.04691791869187  1.06955565716572  1.52900918021802
 6 -4.46520675537554  1.52493714481448  1.15940033393339
 6 -2.91366754755476  1.26791961126113  3.06520183478348
 6 -1.90554628432843 -0.61321731093109  0.09419322962296
 6 -0.39657536673667 -0.49401264926493  0.56230961326133
 6  0.51881380458046 -0.70639726162616 -0.53429321942194
 8  0.36784700150015 -1.00409418711871 -1.68543593669367
 8  1.80601920032003 -0.37875781418142 -0.13606899449945
 7 -7.12366000940094  2.62722593249325  0.44190511461146
 6 -6.02811295509551  3.36734050145014  0.68188406450645
 6 -6.43454836323632  4.75944280788079  0.74264252295230
 6 -7.74953973927393  4.83567537273727  0.48802492889289
 6 -8.16782631013101  3.43527046584658  0.13996199479948
 6 -5.50442247614761  5.97364683838384  1.11601175637564
 6 -8.61037104510451  6.00607087668767  0.22691330383038
 6 -8.36800521052105  7.21449059875988  0.77397145644564
 7 -9.15421446254626  0.67712470687069 -0.55845241914191
 6 -9.93415090139014  1.82591591589159 -0.67065987948795
 6 -11.30382433513351  1.57691713621362 -1.04186904660466
 6 -11.29733922112211  0.14128167396740 -1.23742377067707
 6 -9.99257686128613 -0.34160435383538 -0.93665586688669
 6 -12.39583052075208  2.51503674507451 -1.18755820852085
 6 -12.44680847374737 -0.67227335113511 -1.82037136773677
 6 -12.28539044794480 -1.17792798509851 -3.24761541274127
 7 -7.34122708510851 -1.38792362806281 -0.21533420852085
 6 -8.35354968126813 -2.20748929442944 -0.50333191309131
 6 -7.94983702350235 -3.64894544594459 -0.50502080188019
 6 -6.65953374387439 -3.55978896099610 -0.11211329302930
 6 -6.31126485818582 -2.14908286408641  0.04740657605761
 6 -8.83507584708471 -4.87132323072307 -0.85993937703770
 6 -5.36426188908891 -4.37168073147315  0.16787176127613
 8 -5.25435642794279 -5.57235409240924  0.15539148774877
 6 -4.27300180278028 -3.33207065446545  0.44812313391339
 6 -3.58630280708071 -3.59660760346035  1.83228919741974
 8 -3.76335911931193 -3.02564992289229  2.80869422762276
 8 -2.84219957275728 -4.77505612411241  1.75942497999800
 6 -2.17684664166417 -5.26624183008301  2.92182958335834
 6  2.87439375977598 -0.66472476137614 -1.11690520772077
 6  4.18971985718572 -0.60732600050005 -0.56242880568057
 6  5.22157764906491  0.21217774577458 -0.88779165616562
 6  5.17897162276228  1.06566424172417 -2.11115525052505
 6  6.46839311801180  0.24350496649665 -0.05167569196920
 6  7.67920937353735 -0.30593914191419 -0.80028035673567
 6  9.03521123272327 -0.24168598469847 -0.07722382478248
 6  10.26992245284529 -0.67893955715572 -0.80091581158116
 6  10.17233050965097 -2.16791467136714 -1.25827279327933
 6  11.53670833463346 -0.24426931803180  0.13955599309931
 6  12.93892162766277 -0.53425345884588 -0.67029453455346
 6  14.04706597839784 -0.09960567486749  0.22093850545054
 6  15.45519151015102 -0.21124020762076 -0.45919157165717
 6  15.75855212621262 -1.57979636793679 -0.84525635193519
 6  16.46299329202920  0.56875339263926  0.30918565326533
 6  17.86787437513751  0.73800753035304 -0.32450897789779
 6  18.97035745434543  1.31704978347835  0.65295855255526
 6  20.35102790719072  1.44652408490849  0.18579528552855
 6  20.46748959475948  2.11243854895490 -1.17276197209721
 6  21.27910297729773  1.96100780068007  1.26653059305931
 1 -4.04832519601960  3.63646689808981  1.26900299609961
 1 -10.16253837713771  3.87546982148215 -0.44083861006101
 1 -10.41386581068107 -2.28980451555156 -1.16599441884188
 1 -2.73944123132313 -0.83145334803480  2.10094658535854
 1 -2.52608607490749  1.55080714181418  0.97350099909991
 1 -1.91628471487149  1.03802290869087  3.52053239063906
 1 -3.14598170727073  2.21836105890589  3.24003202540254
 1 -3.72046484698470  0.74707986228623  3.62067375257526
 1 -2.11725684468447 -1.54939561036104 -0.32273028012801
 1 -2.15113148214821  0.08669628942894 -0.66194292889289
 1 -0.11401683038304  0.57347693499350  1.01834569756976
 1 -0.16755517581758 -1.27680844744474  1.29931338963896
 1 -5.67740191789179  6.88483599559956  0.56880671197120
 1 -5.50267173847385  6.30792367376738  2.01680369286929
 1 -4.41590643524352  5.71597586558656  0.87676840944094
 1 -9.60311057085709  5.78770215221522 -0.48444979767977
 1 -9.11829089278928  7.95292501350135  0.72243201890189
 1 -7.57678561066107  7.41510834723472  1.57256621692169
 1 -12.26578705170517  3.08394754185419 -2.06504233573357
 1 -13.18569586728673  1.89287803020302 -1.37959368756876
 1 -12.48185921862186  3.05701303540354 -0.04417485698570
 1 -12.63404536943694 -1.44483540634063 -1.14063756465647
 1 -13.27988028712871 -0.25348805930593 -1.83966972137214
 1 -13.24324952415242 -1.52825648774878 -3.50413137123712
 1 -12.05352575827583 -0.29722819411941 -3.82471144954495
 1 -11.53209804920492 -1.97131815901590 -3.27396567476748
 1 -8.82244686328633 -4.98720522132213 -2.10487655065507
 1 -8.33514789999000 -5.94964091739174 -0.38800875597560
 1 -9.84610878987899 -4.59140758915892 -0.57729999869987
 1 -3.70567808630863 -3.60981758735874 -0.27263500160016
 1 -1.75612900050005 -4.30829304270427  3.45315703330333
 1 -2.88031446874687 -5.61525105000500  3.54487552525253
 1 -1.39807032753275 -5.90066085088509  2.68813217431743
 1  2.38687674247425 -1.57399402220222 -1.54646609530953
 1  2.70689713101310  0.17874595939594 -1.95115617311731
 1  4.17370785748575 -1.17593600740074  0.48717011721172
 1  4.28124343584358  1.00473601630163 -2.49693017871787
 1  5.93005993819382  1.99220964486449 -1.95204264266427
 1  5.74748431693169  0.33333452435244 -3.01865812271227
 1  6.74711289518952  1.33064304490449  0.29396901080108
 1  6.19558743084308 -0.42065940264026  0.75521171667167
 1  7.40868299109911 -1.28124879787979 -1.18317307450745
 1  7.89144170267027  0.29174827782778 -1.79774059695970
 1  9.15554159845985  0.65419491699170  0.24307673577358
 1  8.81708482928293 -0.67741609430943  0.93070919431943
 1  10.35900053185319  0.14005015281528 -1.60696585458546
 1  9.37022663176318 -2.32592087558756 -2.12080046194619
 1  11.15160430103010 -2.62734613391339 -1.98888424652465
 1  10.01731392849285 -2.91114522922292 -0.37839523322332
 1  11.43075471707171  0.86283271667167  0.37950572137214
 1  11.53288088358836 -0.77613891149115  1.18388470857086
 1  13.02957090959096 -1.52427984728473 -0.89882215371537
 1  13.00413624352435 -0.11959702370237 -1.60959529322932
 1  13.93135455575558  0.96121148444845  0.38914374307431
 1  14.04153246384639 -0.55315169406941  1.32707508150815
 1  15.32991339273928  0.39527292429243 -1.44955622442244
 1  15.96620041684168 -2.18544788598860  0.06117798229823
 1  15.22425406980698 -2.04122864286429 -1.55329670317032
 1  16.71371965156516 -1.71341223822382 -1.26245275857586
 1  16.06711998549855  1.56359469316932  0.72729864616462
 1  16.62438651645164 -0.20866715151515  1.23253174787479
 1  18.30762750045005 -0.23745025902590 -0.63866406200620
 1  17.72014932453245  1.49977887198720 -1.07103284688469
 1  18.62222127902790  2.35344661266127  0.83100504730473
 1  18.67962392489249  0.95921076057606  1.71233447894790
 1  20.73625345764577  0.46216721432143 -0.00882499029903
 1  20.17964478297830  3.17288806530653 -1.15964814951495
 1  21.60625442624263  2.01463260536054 -1.39355733693369
 1  20.04574297189719  1.43922421262126 -2.11955033943394
 1  21.30602445594559  1.37213285418542  2.19176284508451
 1  22.34187208000800  1.82811328202820  1.11996865046505
 1  21.15130520902090  3.04368048524852  1.54439157585759

