%nproc=4
%Mem=2GB
# td=(NStates=1) CAM-B3LYP/6-31G(d,p) 

TD

0 1
12 -7.11173174617462  0.63849259735974  0.12288997639764
 6 -4.87691230923092 -1.90153133153315  0.40025655835584
 6 -4.80352028092809  2.86896534383438  1.13453981888189
 6 -9.42698743424342  2.99315481098110 -0.36204906460646
 6 -9.53332364606461 -1.79012452345235 -0.78949537863786
 7 -5.01356478107811  0.46558637673767  0.73172359065907
 6 -4.30734044014401 -0.66139596159616  0.71735975917592
 6 -2.82428143354335 -0.31840126582658  1.17798815301530
 6 -3.01025446384638  1.13551621992199  1.56857758845885
 6 -4.32731972687269  1.50770151895190  1.08499552945295
 6 -2.83059814191419  1.41058334643464  3.12055346424642
 6 -1.88113157415742 -0.58154341574157  0.05793975227523
 6 -0.32370979357936 -0.49478382558256  0.54342847214721
 6  0.56616775397540 -0.78917243014301 -0.59251463196320
 8  0.21152239233923 -1.08020342794279 -1.71926825852585
 8  1.76557836833683 -0.51670906730673 -0.17315410431043
 7 -7.09543999189919  2.75008059785979  0.29211790729073
 6 -6.09314859385939  3.43933490929093  0.73953748734873
 6 -6.53180043314331  4.77611190059006  0.76264695189519
 6 -7.75034774177418  4.88993962546255  0.44219261056106
 6 -8.20605487708771  3.46729592489249  0.03771631793179
 6 -5.49460741744174  5.94321678757876  1.13984874537454
 6 -8.66049384698470  5.99185021872187  0.17411439683968
 6 -8.54495838713872  7.19791591019102  0.79285553535354
 7 -9.09799207180718  0.64990785188519 -0.49698373207321
 6 -9.92361862156216  1.71473142624262 -0.53572989708971
 6 -11.25112420902090  1.36267460656066 -1.04063578307831
 6 -11.27305970987099  0.02046741084108 -1.19943865786579
 6 -9.96762244294429 -0.46745872017202 -0.78127314341434
 6 -12.25842466616662  2.42621319231923 -1.35655243004300
 6 -12.43468801510151 -0.83508091819182 -1.74961577007701
 6 -12.24384187258726 -1.30462287348735 -3.19057417601760
 7 -7.18979844814482 -1.36103571717172 -0.08452312931293
 6 -8.31207144694469 -2.28451362346235 -0.51803675887589
 6 -7.85618176377638 -3.63525179267927 -0.44530180748075
 6 -6.55812969706971 -3.59318365536554 -0.11234296619662
 6 -6.19847244364436 -2.19256753805381  0.05876868106811
 6 -8.58631609900990 -4.88346118851885 -0.89606808520852
 6 -5.28802327262726 -4.34034791829183  0.16748962156216
 8 -5.02098093599360 -5.48413289668967  0.12115914661466
 6 -4.16861044044404 -3.20091588138814  0.54479434473447
 6 -3.51182181308131 -3.60385560686069  1.87868824172417
 8 -3.79855145574557 -3.03563029922992  2.92651533263326
 8 -2.67664885858586 -4.63589831223122  1.76815539643964
 6 -2.09550013791379 -5.00198442754275  2.94429936543654
 6  2.83879639133913 -0.54124191879188 -1.26351755215522
 6  4.12092418141814 -0.43231140744074 -0.48918906790679
 6  5.14415790019002  0.40326659205921 -0.91318109080908
 6  5.18109653265326  1.27749039833983 -2.18037220252025
 6  6.42080641344134  0.47838968916892 -0.11535802100210
 6  7.62987052495250 -0.07532787968797 -0.96348329882988
 6  9.01641351395140 -0.07800293069307 -0.35150696349635
 6  10.19309993449345 -0.61457852955296 -1.01521249174917
 6  10.04669136933693 -2.09680061616162 -1.53257672267227
 6  11.34168704560456 -0.37437121792179 -0.08822795419542
 6  12.74422933063306 -0.53271732283228 -0.72340236313631
 6  13.93658312671267 -0.07882908570857  0.24253132063206
 6  15.17984410931093 -0.26691042014201 -0.48808704850485
 6  15.62618428732873 -1.70411804560456 -0.90900051775177
 6  16.30874498039804  0.33028738873887  0.50939544674467
 6  17.70911550095009  0.52355375377538 -0.11467728232823
 6  18.77174754425442  1.21398961596160  0.80544097709771
 6  20.17043571277128  1.33220355385539  0.30295505870587
 6  20.33270462426243  2.11219951715172 -1.00829182188219
 6  21.21018194899490  1.93170610691069  1.34011937533753
 1 -4.21053253775378  3.52751827322732  1.47434202110211
 1 -10.13504389708971  3.81147198219822 -0.33707909940994
 1 -10.21684497389739 -2.67739708050805 -1.10846749894990
 1 -2.64552100900090 -0.84100241414141  2.00512120332033
 1 -1.98947255245525  1.84054763736374  1.11674232463246
 1 -2.01950640814081  0.98290874377438  3.64609832333233
 1 -3.10092515251525  2.44852891039104  3.21734389978998
 1 -3.74577802050205  0.95062974697470  3.65700811361136
 1 -2.22170465536554 -1.55273523392339 -0.51337524672467
 1 -2.03901557405741  0.22221947234723 -0.65701574117412
 1 -0.11199471687169  0.45744035793579  0.95978637773777
 1 -0.05094289628963 -1.25040955615562  1.33381733693369
 1 -5.81754052945294  6.88059670377038  0.63669937913791
 1 -5.65229221862186  5.89843320642064  2.27593389048905
 1 -4.53092704870487  5.62107327372737  0.93297647324733
 1 -9.37361941444144  5.88117426552655 -0.41081130933093
 1 -9.25482669856986  7.86391713061306  0.46793641544154
 1 -7.77192665846585  7.50274667416742  1.44088247374737
 1 -11.93118722382238  2.56630695669567 -2.51247425212521
 1 -13.35422509170917  1.86623051425142 -1.33097428892889
 1 -12.22548427952795  3.53433208790879 -0.76746799079908
 1 -12.46501127952795 -1.72293173827383 -1.07832278717872
 1 -13.35472419131913 -0.30210694749475 -1.55692121962196
 1 -13.08141449404940 -1.93023770997100 -3.56764664916492
 1 -12.06826039023903 -0.41608614621462 -3.74159765546555
 1 -11.30988726802680 -1.89996486358636 -3.29036765676568
 1 -9.14067367036704 -4.90025076797680 -1.93761702580258
 1 -7.89269863466347 -5.86581658585859 -0.70027964096410
 1 -9.52398228312831 -5.01273629492949 -0.19095091769177
 1 -3.37185788168817 -3.46078932963296 -0.19286455795580
 1 -1.08624679117912 -4.32364880458046  3.05740865616562
 1 -2.82960256885689 -4.87912953055305  3.83857669656966
 1 -1.79884799629963 -6.08261753495350  2.78881283418342
 1  2.91134043814381 -1.57308914481448 -1.77546151115112
 1  2.78595607320732  0.27218149774978 -2.01994514671467
 1  4.24604551015102 -0.92949516471647  0.55370858685869
 1  4.13427239073907  1.44554326472647 -2.61233960366037
 1  5.78396380808081  2.34218447734773 -1.93005947414741
 1  5.81609891749175  0.88080918841884 -2.98213694469447
 1  6.44272633553355  1.59120312031203  0.33289593239324
 1  6.12767688708871 -0.24967300470047  0.78272798949895
 1  7.32873025772577 -0.96086532173217 -1.34891621522152
 1  7.75543797969797  0.49131233933393 -1.89146206980698
 1  9.25064711631163  0.87512539753975  0.13569120132013
 1  8.98920740944094 -0.71353685988599  0.55949381308131
 1  10.44404195559556 -0.07598506080608 -1.93517840734073
 1  9.12245723122312 -2.42601057755776 -2.19518544334434
 1  11.17902045774578 -2.38743552745275 -1.97297154105411
 1  9.89365225122512 -2.77232917491749 -0.75279471917192
 1  11.44987266816682  0.72401463166317  0.31924341184118
 1  11.49183223662366 -1.01762772407241  0.86166678827883
 1  13.02282560146015 -1.57479564076408 -0.92437010461046
 1  12.99065281778178  0.09691038203820 -1.61945530683068
 1  13.82941437813781  0.88624118011801  0.53081042404240
 1  13.71573432653265 -0.68839844454445  1.16731324782478
 1  15.40721400990099  0.24049353435344 -1.41327568556856
 1  15.44251169406941 -2.51400169226923 -0.06053750765076
 1  14.72793584428443 -2.12287466306631 -1.57052446754675
 1  16.67370700010001 -1.85513103800380 -1.31615308480848
 1  15.96663186388639  1.25992382608261  0.98506505080508
 1  16.22832727992799 -0.17954712981298  1.41408416961696
 1  18.29542048074807 -0.39689623702370 -0.22626596699670
 1  17.81305837033704  0.91222854175417 -0.97490106590659
 1  18.31408220082008  2.24440859855986  0.99619762506251
 1  18.48202536283629  0.94272845384538  1.96286628692869
 1  20.57324223692369  0.12198834703470  0.25073213721372
 1  19.90170427702770  3.05441900380038 -0.76872046544654
 1  21.44324857695770  2.13884053685369 -0.98690005330533
 1  19.85688959335934  1.50220203100310 -1.76155312431243
 1  21.26489246444644  1.36309441854185  2.24099371657166
 1  22.18422012831283  1.72370360006001  0.76857182348235
 1  20.97358708860886  2.93125320862086  1.48209865036504

