%nproc=4
%Mem=3GB
# td=(NStates=1) iop(3/107=0140000000,3/108=0140000000) CAM-B3LYP/6-31G(d,p) 

TD

0 1
12 -7.09927461916192  0.60187857135714  0.01326769676968
 6 -4.93219203570357 -2.01044827542754  0.43535893829383
 6 -4.65162119271927  2.84202292019202  1.05127523272327
 6 -9.31829859435944  3.15974352735274 -0.40734320962096
 6 -9.66431252925293 -1.73495526122612 -0.84382118701870
 7 -5.00546757795780  0.37721381198120  0.63018084208421
 6 -4.32543479077908 -0.74046518971897  0.76832472717272
 6 -2.96964318491849 -0.55903430143014  1.14957062616262
 6 -2.98005123202320  0.96564526612661  1.64217049634963
 6 -4.28217845254525  1.53879853095310  1.02682707660766
 6 -2.83057923872387  1.09537235653565  3.20980629522952
 6 -1.89089481918192 -0.60656664586459  0.07258106840684
 6 -0.50882659185919 -0.61696494449445  0.53047642994299
 6  0.50784270747075 -0.83248987088709 -0.64251404150415
 8  0.15613583038304 -1.08972274997500 -1.75969336243624
 8  1.66160475887589 -0.54801473987399 -0.22047743534353
 7 -6.95693333673367  2.60156336623662  0.23527445154515
 6 -5.95764590839084  3.25505927332733  0.69964584068407
 6 -6.27283219161916  4.69204606820682  0.81088934763476
 6 -7.58334311961196  4.83065487068707  0.31786791319132
 6 -8.01896142364236  3.53435037383738  0.02257025562556
 6 -5.30365239913991  5.77385685938594  1.13445360056006
 6 -8.41277128512851  6.00754102370237  0.24378499099910
 6 -8.25841425142514  7.17201635133513  0.75852991229123
 7 -9.09374841594159  0.61912890729073 -0.55139171307131
 6 -9.84327181348135  1.85562888718872 -0.64734754825483
 6 -11.04416836953695  1.56786623112311 -1.23173803350335
 6 -11.21069055625562  0.24464201000100 -1.29262929122912
 6 -9.90397800140014 -0.35632582598260 -0.92372457375738
 6 -12.14817575527553  2.61306654805481 -1.33263271597160
 6 -12.34746853975398 -0.66492261606161 -1.66357568816882
 6 -12.31005291419142 -1.02180237253725 -3.17955860706071
 7 -7.29697265966597 -1.36310114581458 -0.12607528262826
 6 -8.39677400370037 -2.21715026052605 -0.45201678157816
 6 -7.94432647244725 -3.69600015141514 -0.43255355515552
 6 -6.55346313681368 -3.57670065216522 -0.12962504420442
 6 -6.22758649034903 -2.22648060386039  0.08829066446645
 6 -8.69029136863686 -4.82273837223722 -0.78738212131213
 6 -5.39192465536554 -4.33203676707671  0.16742171627163
 8 -5.26486747904791 -5.55568242524252  0.18118406700670
 6 -4.23153765636564 -3.40554800220022  0.54462278387839
 6 -3.66709088588859 -3.67805574827483  1.90598656715672
 8 -3.85796858025803 -3.13358071597160  2.94714807300730
 8 -2.86042139493949 -4.72339095759576  1.87508654615462
 6 -2.35987494449445 -5.23941914781478  3.16042344274427
 6  2.66578289868987 -0.68679696859686 -1.14714823202320
 6  4.05150603580358 -0.35117038493849 -0.50751331413141
 6  5.08427391869187  0.48851537953795 -0.88370124712471
 6  5.02710643624362  1.36996467176718 -2.12537667266727
 6  6.41952823152315  0.51388200420042 -0.07505803020302
 6  7.59499095169517 -0.11242979097910 -0.89930025872587
 6  8.93991170277028 -0.15477729382938 -0.05492159455946
 6  10.16539199979998 -0.67737940114011 -0.89876559655966
 6  10.06833010961096 -2.01077895779578 -1.32776974297430
 6  11.45164982878288 -0.30193508460846 -0.02391035353535
 6  12.78566630213021 -0.48143817731773 -0.65267277237724
 6  13.96298757055705 -0.04167988228823  0.09140555215522
 6  15.31308729972997 -0.08699778337834 -0.50746639913991
 6  15.62885915691569 -1.55435382368237 -1.12945477177718
 6  16.37680467316732  0.37618413571357  0.39747448214821
 6  17.85250283798380  0.45069879947995 -0.15400192719272
 6  18.81106152475247  1.16887496599660  0.79955321202120
 6  20.27665046944695  1.42657208970897  0.25412211821182
 6  20.29802264806481  2.32969027412741 -1.05711040694069
 6  21.15865093209321  2.02978467836784  1.32033597359736
 1 -3.93687405090509  3.45767901930193  1.45627172297230
 1 -9.92263438673868  3.93173544804480 -0.78525305150515
 1 -10.42481690579058 -2.27333286838684 -1.24564238363836
 1 -2.55686297349735 -1.05860606330633  1.99171566226623
 1 -2.05483895019502  1.47430949204920  1.29302295129513
 1 -1.79373245964596  0.60613972037204  3.40750108750875
 1 -2.95273238233823  2.25063428622862  3.37309533173317
 1 -3.68956175667567  0.59994514881488  3.85721740694069
 1 -2.18505362436244 -1.63712438323832 -0.47622562966297
 1 -1.94939130813081  0.14142176197620 -0.56296303090309
 1 -0.31943737243724  0.27424701200120  1.19693355635564
 1 -0.53634205450545 -1.39444021062106  1.14911837013701
 1 -5.60774495219522  6.77622513451345  0.82624245554555
 1 -5.41702317361736  5.91752463386339  2.30176218871887
 1 -4.48025286988699  5.69552382038204  0.93432416501650
 1 -9.02550281008101  5.97853123512351 -0.68043939663966
 1 -8.78214727842784  7.89476919791979  0.60852062776278
 1 -7.60217814991499  7.10348718511851  1.59227818811881
 1 -11.87252772577258  3.24806395349535 -2.20405623712371
 1 -13.10866816451645  2.27068581098110 -1.62035776397640
 1 -11.94238527122712  3.16336367046705 -0.42612305180518
 1 -12.51376334123412 -1.59299022182218 -1.01289479037904
 1 -13.16172847194720 -0.12520523102310 -1.45710146454645
 1 -13.00684588378838 -1.86061972407241 -3.43803476157616
 1 -12.54717512321232 -0.05165363666367 -3.65142412081208
 1 -11.27382222162216 -1.34892591979198 -3.63699197739774
 1 -9.25950056865686 -4.53515001580158 -1.77101316431643
 1 -8.01182556775677 -5.56323227652765 -0.83408336343634
 1 -9.39321350035004 -5.07693614201420 -0.04137640634063
 1 -3.38423594209421 -3.48974558015802 -0.18910664876488
 1 -1.82479586718672 -4.64905711911191  3.68647036463646
 1 -3.31155759305931 -5.24817434233423  3.71345238293829
 1 -1.71511203170317 -6.29047983278328  2.92088544964496
 1  2.72021007580758 -1.68066468926893 -1.53577502620262
 1  2.60953739503950 -0.09994190939094 -2.02044310181018
 1  4.25311579827983 -1.00456887068707  0.45756715691569
 1  4.00811612311231  1.42903844654465 -2.50706119181918
 1  5.50851778397840  2.35807623152315 -1.95374281268127
 1  5.60101967046705  1.01199239013901 -2.89565582248225
 1  6.55912409630963  1.51080106070607  0.22423203710371
 1  6.46966483858386 -0.29284662136214  0.66045224072407
 1  7.47161928472847 -1.11006167916792 -1.24521927912791
 1  8.04893745224522  0.51758086108611 -1.88753957685769
 1  9.21323736803680  0.81049054655466  0.41844427252725
 1  8.86545966676668 -0.64710306300630  0.78902502590259
 1  10.22867749954996  0.03284943274327 -1.67555271327133
 1  9.15661527062706 -2.32996127962796 -1.91939032093209
 1  10.90493963456346 -2.55898929822982 -2.02004736283628
 1  10.10324252135214 -2.78497261196120 -0.45821321502150
 1  11.32738438003800  0.80402683608361  0.32047981878188
 1  11.49070666616662 -0.73669496709671  1.09913623372337
 1  12.81721967446745 -1.66721414071407 -0.87482975447545
 1  12.68105393529353  0.03437837383738 -1.69262359605961
 1  13.79611103140314  0.88627399069907  0.64930975967597
 1  13.95635394599460 -0.71009738863886  0.87885025902590
 1  15.20122052345235  0.61840523752375 -1.50256152495249
 1  15.68678247504750 -2.29849919111911 -0.30509864536454
 1  14.76168781318132 -1.73409792979298 -1.84732610611061
 1  16.71786006560656 -1.53155405240524 -1.49328584188419
 1  15.82158543204320  1.42258059175918  0.67179309560956
 1  16.12838691649165 -0.27123340814081  1.20567906260626
 1  18.22676941464146 -0.46823333733373 -0.27983817941794
 1  17.74281159075908  0.96488538263826 -1.18000374397440
 1  18.25438449534953  2.29484075207521  0.92220416721672
 1  18.89948591109111  0.67178201770177  1.67506075157516
 1  20.59822965526553  0.27586858445845  0.03355924812481
 1  19.77124394289429  3.41137191369137 -0.85136732143214
 1  21.30777457825783  2.51547268936894 -1.33508148934893
 1  19.70741913951395  1.93603389358936 -1.96520490489049
 1  20.88032188568857  1.75391103200320  2.40999466826683
 1  22.06977487028703  2.11840231093109  1.13107976157616
 1  20.79242932143215  3.05423154035403  1.35181231793179

