%nproc=4
%Mem=2GB
# td=(NStates=1) CAM-B3LYP/6-31G(d,p) 

TD

0 1
<<<<<<< HEAD
12 -7.16832740574057  0.60372912101210  0.07757544494449
 6 -4.85189980798080 -1.93028420682068  0.59462599529953
 6 -4.81078100700070  2.82584103140314  1.13072943784378
 6 -9.39294402990299  3.09904540004000 -0.38399125882588
 6 -9.47072738643864 -1.75050056105611 -0.92173860296030
 7 -5.05681910651065  0.45718553665367  0.70972139043904
 6 -4.32904261036104 -0.68600842284228  0.81271929512951
 6 -2.91079008440844 -0.41419084478448  1.27851820602060
 6 -3.04198763716372  1.01063373167317  1.70971170187019
 6 -4.37433442834283  1.54118486728673  1.23331036093609
 6 -3.03299838193819  1.08447073517352  3.32144355325533
 6 -1.85498895989599 -0.59065432683268  0.15595955425543
 6 -0.42168959155916 -0.45116946414641  0.57437156645665
 6  0.50987212441244 -0.78065157805781 -0.63330871137114
 8  0.19039027912791 -1.26042144974497 -1.65159149084908
 8  1.79558136863686 -0.41625902230223 -0.31451824072407
 7 -7.05739618751875  2.61122671247125  0.29973866936694
 6 -6.01484076307631  3.33144412021202  0.72071560516052
 6 -6.36442369546955  4.72840713011301  0.73937462466247
 6 -7.70274298129813  4.90380101160116  0.32318070937094
 6 -8.08171244284429  3.53842303760376  0.03498604490449
 6 -5.36737469416942  5.74725719161916  1.03044780528053
 6 -8.55662345994599  6.08345937963796  0.14908189358936
 6 -8.35906979827983  7.31177729632963  0.74568081788179
 7 -9.11108338093809  0.68302116321632 -0.43519755345535
 6 -9.89424568426843  1.81771172427243 -0.66511283538354
 6 -11.20615971257126  1.42496083518352 -1.20712243174317
 6 -11.20789319321932  0.09687505160516 -1.30020873487349
 6 -9.85897157785779 -0.34518649294929 -0.84366938303830
 6 -12.36903572727273  2.42471304230423 -1.34845161996200
 6 -12.48297284358436 -0.69517692779278 -1.76130693919392
 6 -12.38155564396440 -1.13700611181118 -3.14141926052605
 7 -7.14530399869987 -1.30833044664466 -0.19382405940594
 6 -8.14711495129513 -2.17907307940794 -0.61580653585359
 6 -7.64564070967097 -3.56695496299630 -0.53767104440444
 6 -6.42905678977898 -3.48602293929393 -0.10699243114311
 6 -6.07889048544854 -2.16737501880188  0.04146695089509
 6 -8.54590205760576 -4.76256909930993 -0.78144662306231
 6 -5.35971044134413 -4.32634651815181  0.31286415901590
 8 -5.14389322722272 -5.54425890929093  0.39495652635264
 6 -4.17468104750475 -3.29142493229323  0.62875274057406
 6 -3.53205383628363 -3.72119734103410  1.95904627752775
 8 -3.66184778537854 -3.18109484568457  3.08005068616862
 8 -2.78233942764276 -4.81254597699770  1.73844242514251
 6 -2.22620320822082 -5.33591782088209  2.95809074457446
 6  2.73033554525453 -0.69008680328033 -1.35698689908991
 6  4.11152324132413 -0.49858803510351 -0.75114526352635
 6  5.07798128252825  0.35848211361136 -1.01299107180718
 6  5.01711013401340  1.27912056135614 -2.23604777007701
 6  6.46207053985399  0.40695254545455 -0.25114159935994
 6  7.62217975587559 -0.11425177207721 -1.09481643214321
 6  8.91142301490149 -0.02503763416342 -0.37295910871087
 6  10.17338796329633 -0.62842991469147 -1.06407737823782
 6  10.11660836103610 -2.10286122222222 -1.41515498049805
 6  11.32572544944495 -0.30717449824982 -0.15925505690569
 6  12.74169907760776 -0.41762581368137 -0.77495751865186
 6  13.91718118651865 -0.06908811161116  0.21245831333133
 6  15.37269339423942 -0.15040876997700 -0.46818505830583
 6  15.61045271417142 -1.51371900570057 -0.95966558425843
 6  16.41019512541254  0.44511887188719  0.46798130533053
 6  17.77433202260226  0.59699109750975 -0.12610842544254
 6  18.75957632713271  1.22648086508651  0.92142257525753
 6  20.21849051825182  1.33019335283528  0.38639340254025
 6  20.25976733053306  2.06912520972097 -0.97121811451145
 6  21.04803573437344  2.01013394969497  1.42939830323032
 1 -3.84632611711171  3.51928745014501  1.41637622452245
 1 -9.90835122782278  3.89661049604960 -0.71554694619462
 1 -10.34369765916592 -2.37786712751275 -1.12135878807881
 1 -2.82175863276328 -0.96823513741374  1.96153684488449
 1 -2.16522012721272  1.65133871647165  1.33293394379438
 1 -2.06545100260026  0.85164561746175  3.38472218571857
 1 -3.41937699769977  2.17683174067407  3.64776694209421
 1 -3.75102854555456  0.33392807680768  3.68568098089809
 1 -2.09488197309731 -1.60845080548055 -0.21679558875888
 1 -2.12654432693269  0.14940219061906 -0.66546658625863
 1 -0.23803732113211  0.34003861776178  0.98783918301830
 1 -0.28589639163916 -1.23976849204921  1.45569952515252
 1 -5.66283505890589  6.41427007110711  0.39649535873587
 1 -5.28447543694369  6.25169853295330  2.01408770587059
 1 -4.29563351935194  5.55312647904790  0.82887606320632
 1 -9.25066711921192  6.05985213331333 -0.69064929312931
 1 -9.06259747564756  8.27094783368337  0.56977659945995
 1 -7.83639310511051  7.25344174367437  1.69944833033303
 1 -12.04432853795380  3.08838916491649 -2.30317332203220
 1 -13.43760342954295  2.03286717791779 -1.46349754125412
 1 -12.35635736683668  3.37272592729273 -0.64633587758776
 1 -12.47619239763977 -1.72848229332933 -1.06836179107911
 1 -13.43377209610961 -0.16969370617062 -1.44278980648065
 1 -13.46037238983898 -1.57706239243924 -3.43026291079108
 1 -11.96416998119812 -0.30787532513251 -3.77280077577758
 1 -11.46584286358636 -1.76030089718972 -3.21249986998700
 1 -8.72829243224323 -4.83672441534153 -1.86371963606361
 1 -8.00258962376238 -5.69951995619562 -0.55433504650465
 1 -9.48203808870887 -4.81001602290229 -0.26347817041704
 1 -3.16147684358436 -3.33905715641564 -0.06273154465447
 1 -1.78103627012701 -4.50980742044204  3.50441335663566
 1 -3.10233984258426 -5.87171878947895  3.48044088298830
 1 -1.53236134763476 -6.13574284748475  2.71498545144514
 1  2.73834313841384 -1.71108294419442 -1.70791475647565
 1  2.50976845444545 -0.29471519191919 -2.40871402360236
 1  4.13394430003000 -1.08799101430143  0.19813302930293
 1  4.03245220872087  1.53102181258126 -2.67982635233523
 1  5.21576698839884  2.19001926082608 -2.11779824802480
 1  5.55748305590559  0.85434654215422 -3.00961969296930
 1  6.69082114501450  1.38270227022702  0.11382402520252
 1  6.07048116751675 -0.37141517891789  0.67801751845185
 1  7.55033241794179 -1.22764199939994 -1.48563988758876
 1  7.55115755165517  0.51102431053105 -2.06880980458046
 1  9.14196624822482  1.07450533553355 -0.14084645244524
 1  8.78965745444544 -0.32252775897590  0.79471733543354
 1  10.17713526492649 -0.22855031733173 -2.10425531503150
 1  9.18501348684869 -2.43572154865487 -1.99413533833383
 1  10.99469202490249 -2.38640542444244 -1.92138638253825
 1  9.97271015701570 -2.72358430043004 -0.37606704640464
 1  11.15837351825182  0.86970920112011  0.12780426792679
 1  11.11049410281028 -0.76118207950795  0.85544616621662
 1  13.06504982388239 -1.49716787798780 -1.06636430403040
 1  12.78071182368237  0.20798148914891 -1.67241060236024
 1  13.76864830153015  0.98870142614261  0.74920226322632
 1  13.79309206230623 -0.81632123682368  1.19970648714872
 1  15.43411670017002  0.51601108610861 -1.20157451545154
 1  15.32628007090709 -2.13475376747675  0.03840238633863
 1  14.93436648734873 -1.80076245184518 -1.61012842794279
 1  16.69056868626863 -1.66948247314732 -1.34398586808681
 1  16.13095829652965  1.43171100480048  0.82202874717472
 1  16.52944739193919 -0.14516369146915  1.30704346554655
 1  18.23598453715372 -0.38697524492449 -0.48958229862986
 1  17.84030109460946  0.94180149904990 -1.24765834163416
 1  18.39368016061606  2.22970712841284  1.00287829312931
 1  18.78719587988799  0.54969915091509  1.87539754005401
 1  20.39312422512251  0.25321146934693  0.09445650965097
 1  19.87344145074507  3.17175073697370 -0.84657825122512
 1  21.14326857895790  2.10460711351135 -1.36073743704370
 1  19.80568447284729  1.44049586038604 -1.79369633863386
 1  21.02707868306831  1.38019612871287  2.46696631383138
 1  22.00609231553155  2.26700793049305  1.11180614691469
 1  20.62016174607461  3.02853293659366  1.94308474897490
=======
12 -7.12153272627263  0.58327707580758  0.10129781718172
 6 -4.81170578857886 -2.01088226662666  0.39784631733173
 6 -4.66661659055906  2.83998244554455  1.07691405630563
 6 -9.37543227872787  3.14861035653565 -0.35270813051305
 6 -9.48713902760276 -1.70236574757476 -0.69774620372037
 7 -5.09153257785779  0.49552937103710  0.68866928522852
 6 -4.34588429452945 -0.70986080808081  0.73152117531753
 6 -2.84718372377238 -0.42250167586759  1.20710106430643
 6 -2.92071550995100  1.02189485778578  1.67253798449845
 6 -4.26487348224823  1.51106185498550  1.14189121902190
 6 -2.96572165426543  1.17188947704770  3.23946535543554
 6 -1.80303376437644 -0.63383864526453  0.04501846014601
 6 -0.38371579417942 -0.57933228042804  0.61836596589659
 6  0.54202533973397 -0.71519503240324 -0.58256363686369
 8  0.12222346244624 -1.07131253885389 -1.68542487418742
 8  1.74930674117412 -0.50859825622562 -0.20716750565056
 7 -7.05426587448745  2.59074466426643  0.38358705420542
 6 -6.00016929592959  3.31155213101310  0.83841737533753
 6 -6.39657691079108  4.76262055145515  0.83831451865187
 6 -7.67084979197920  4.80046067756776  0.38299669096910
 6 -8.09579385098510  3.45668486378638  0.11084363066307
 6 -5.34903285998600  5.76558902480248  1.25840060056006
 6 -8.39729752735273  6.06361739543954 -0.08167118171817
 6 -8.24826871817182  7.28439455805581  0.63527977777778
 7 -9.09041131373137  0.76683954505451 -0.53000703440344
 6 -9.90703696339634  1.88606855995600 -0.72778910301030
 6 -11.13607270387039  1.45539387848785 -1.17025874537454
 6 -11.17533993789379  0.11207657175718 -1.30528924292429
 6 -9.95309098979898 -0.30010198449845 -0.84393941004100
 6 -12.27432625632563  2.42198276927693 -1.56598337313731
 6 -12.38082262856286 -0.64565197529753 -1.68853966246625
 6 -12.28738622702270 -1.02635504670467 -3.26374149274927
 7 -7.16368583688369 -1.34141375497550 -0.21847652465247
 6 -8.18015825562556 -2.18019319141914 -0.55519047424742
 6 -7.76515266086609 -3.62381064856486 -0.51385866316632
 6 -6.38228211231123 -3.50592492949295 -0.12523425532553
 6 -6.05953855025503 -2.16506478777878  0.06281908610861
 6 -8.61546901430143 -4.87141998439844 -0.76551502990299
 6 -5.22774724502450 -4.40766464996500  0.06701957455746
 8 -5.11325016291629 -5.55868035143514  0.01007803850385
 6 -4.08767234663466 -3.41887767756776  0.51972183748375
 6 -3.65210584148415 -3.76702192349235  1.91518189108911
 8 -3.85847744834483 -3.13753048924892  2.95510819191919
 8 -2.83344453815382 -4.90858558095810  1.87862644354435
 6 -2.36066665456546 -5.25711994109411  3.28076301180118
 6  2.76192870457046 -0.67598539313931 -1.19574077447745
 6  4.13736582558256 -0.51920009630963 -0.64471462046205
 6  5.05888937333733  0.37579384478448 -0.89653942664266
 6  5.02386080908091  1.36981963126313 -2.08771293659366
 6  6.37009134193419  0.49633148334833 -0.14753123832383
 6  7.54237177507751 -0.18930927782778 -0.95413236373637
 6  8.79028090069007 -0.16566169656966 -0.19923173597360
 6  10.12736336083608 -0.67452452415242 -0.81120209070907
 6  9.97931463166316 -2.08927986408641 -1.24954841984198
 6  11.43190606750675 -0.32511629242924  0.04522539113911
 6  12.69224413211321 -0.53064711581158 -0.72770279317932
 6  13.86619608800880 -0.18334953775378  0.30851791929193
 6  15.29686581148115 -0.12928665776578 -0.46426466626663
 6  15.52989465836584 -1.60532816661666 -0.82047166486649
 6  16.36337044294429  0.49795415541554  0.36426093329333
 6  17.72494708410841  0.69104050245024 -0.25790160476048
 6  18.67407777727773  1.45886410341034  0.63495392839284
 6  20.15198386758676  1.46176651015102  0.16875163836384
 6  20.32919427322732  2.06438473567357 -1.24713570627063
 6  20.98274920572057  2.04346728302830  1.29911527492749
 1 -4.07941942644264  3.40251577297730  1.74747933483348
 1 -10.18852924562456  3.86927776277628 -0.47639303080308
 1 -10.28284157355736 -2.30449979077908 -1.00013666586659
 1 -2.53645010191019 -1.10761907580758  2.02131282248225
 1 -1.95833943914391  1.70918450105010  1.30072072247225
 1 -2.02129658715872  0.91621207410741  3.55984969846985
 1 -2.98619367936794  2.19831388888889  3.44980714611461
 1 -3.64573801650165  0.43061774577458  3.82903531633163
 1 -1.95356784168417 -1.71564152455246 -0.58084199339934
 1 -1.96199787228723 -0.04637738733873 -0.65993603320332
 1 -0.21986550395039  0.38777339123912  1.09086948604860
 1  0.06917911591159 -1.17128164336434  1.42813676887689
 1 -5.49575835123512  6.74715335943594  0.92148785798580
 1 -5.41349833923392  5.53414677777778  2.30888718581858
 1 -4.34695865186519  5.51847301370137  0.88760193579358
 1 -9.01761381388139  6.10770691879188 -0.73630385858586
 1 -8.92044326022602  8.17865860476048  0.15977559935994
 1 -7.47855732153215  7.36724312381238  1.42131051655166
 1 -12.02527663276328  3.14450477647765 -2.44028703340334
 1 -13.30332000120012  1.94151804300430 -1.57501869336934
 1 -12.31290302140214  3.27040569526953 -0.79153039703970
 1 -12.48619339773978 -1.70391983708371 -1.32295725062506
 1 -13.46040475937594 -0.16056279307931 -1.63662919041904
 1 -13.29000535313531 -1.36434112031203 -3.70410029452945
 1 -12.05887945214522 -0.09111364896490 -3.76361985768577
 1 -11.55607188648865 -1.76050091719172 -3.47914653465346
 1 -9.22589219221922 -4.75268601150115 -1.77304056815682
 1 -8.03592295709571 -5.67782778697870 -0.79992960596060
 1 -9.26752663756376 -4.87138215951595 -0.01379320192019
 1 -3.34057475337534 -3.29385263596360 -0.12429770127013
 1 -1.79469763626363 -4.54371081078108  3.69262217751775
 1 -2.84065367396740 -5.56558817641764  4.15578841774177
 1 -1.59868798029803 -5.98550782398240  2.74016796969697
 1  2.61830113421342 -1.77843967986799 -1.64037800280028
 1  2.70753823142314  0.08155243484348 -1.81620477267727
 1  4.42157306290629 -1.13523573877388  0.24320753675368
 1  4.07523648714871  1.64195290569057 -2.51483985368537
 1  5.53453886558656  2.18278853775378 -1.85727219541954
 1  5.50732804040404  1.30117122462246 -3.09052778377838
 1  6.73705576847685  1.46984098409841  0.20291293409341
 1  6.06976109550955  0.05779774237424  0.78303802050205
 1  7.18509589428943 -1.18573780898090 -1.48429975357536
 1  7.61052348824883  0.47861106920692 -1.77447037063706
 1  9.13674572617262  0.82686057105711  0.16505413761376
 1  8.70224871357136 -0.84093960016002  0.71028889258926
 1  10.21706925832583 -0.22729019131913 -1.86658154765477
 1  9.12029701520152 -2.49183716021602 -1.83011893669367
 1  10.73982653835384 -2.50099688358836 -1.81057530143014
 1  9.86356924292429 -2.62613455545554 -0.37850729042904
 1  11.17728540944094  0.68604083428343  0.28832031953195
 1  11.10450350375038 -1.11377733903390  0.87796841844184
 1  12.72849616851685 -1.49204736593659 -1.07690535813581
 1  12.96418017051705  0.12356304730473 -1.63305666696670
 1  13.71046248294829  0.77045960196020  0.74909225222522
 1  13.79991274437444 -0.84426403110311  1.34610112661266
 1  15.20973426192619  0.65743522852285 -1.22719707770777
 1  15.93241068396840 -1.85327561966197  0.20911945804581
 1  14.64194724542454 -2.12782515811581 -1.41517893299330
 1  16.47338696809681 -1.54192971787179 -1.45527699719972
 1  16.08231343204320  1.47174500820082  0.71445799009901
 1  16.44449889708971 -0.24411358645865  1.23851661286129
 1  18.16358729742974 -0.51528807620762 -0.51522486288629
 1  17.75689275377538  1.17259457835784 -1.22596617241724
 1  18.29751054365437  2.48791294899490  0.56687469276928
 1  18.64664182448245  1.01422560356036  1.62580258055806
 1  20.38297321002100  0.46935308350835 -0.02218515451545
 1  20.09001310791079  3.01323488538854 -1.07018061146115
 1  21.43836808890889  2.10170682348235 -1.62162352565257
 1  19.65364926932693  1.67344915571557 -2.06743371237124
 1  20.87572354755476  1.53373148224822  2.09588920612061
 1  21.96406811311131  2.21913314301430  1.17073203950395
 1  20.34346407630763  3.08688877217722  1.49756019651965
>>>>>>> 8e03b5b5abfc0030b3aa597dc0de36371bfbd096

