%nproc=4
%Mem=3GB
# td=(NStates=1) iop(3/107=0140000000,3/108=0140000000) CAM-B3LYP/6-31G(d,p) 

TD

0 1
12 -7.20687537923792  0.62034041754175  0.16689305930593
 6 -4.91359017551755 -1.99366659725973  0.54165956835684
 6 -4.75474150475048  2.75984470237024  1.20038014321432
 6 -9.25796256075608  3.09248680168017 -0.49775225052505
 6 -9.57417351535154 -1.67116888258826 -0.87921472637264
 7 -5.14275130633063  0.35003109370937  0.74488231223122
 6 -4.33990623792379 -0.74387553075308  0.82917081178118
 6 -2.97766398699870 -0.34625302330233  1.33210887998800
 6 -3.05690891779178  0.99452815441544  1.66382266156616
 6 -4.37379761446145  1.39589424052405  1.30281467536754
 6 -2.93245942674267  1.18762158145815  3.23124843944394
 6 -1.92349807950795 -0.62780877007701  0.23424723502350
 6 -0.48831454065407 -0.42098534653465  0.66404978727873
 6  0.54321624482448 -0.80630725262526 -0.44953474357436
 8  0.28742895969597 -1.04736851455146 -1.62670006310631
 8  1.75292389078908 -0.69736967536754  0.00087469986999
 7 -6.98928657205721  2.56475968586859  0.42971389548955
 6 -5.94114425822582  3.28806257365737  0.89085496159616
 6 -6.27041194959496  4.73071993559356  0.79470772947295
 6 -7.54536932223222  4.79744154935494  0.35954208060806
 6 -7.98480800830083  3.47175411421142 -0.01590359175918
 6 -5.35343737763776  5.89113858755876  1.06131628682868
 6 -8.42139214721472  6.02673294289429  0.03184379687969
 6 -8.36170458045805  7.21643079277928  0.61427548684868
 7 -9.15682472357236  0.69305630003000 -0.50039661356136
 6 -9.73378086438644  1.89449277357736 -0.78518133163316
 6 -11.22853680638064  1.54809425392539 -1.16779163886389
 6 -11.21972145934593  0.18758630443044 -1.27545757405741
 6 -9.91608921252125 -0.33378357175718 -0.85964816611661
 6 -12.21567250495050  2.50453569496950 -1.47101655435544
 6 -12.37574136703670 -0.61891801560156 -1.87937726832683
 6 -12.15071698059806 -0.92653284558456 -3.32425307650765
 7 -7.32687564996500 -1.35741057675768 -0.12090476557656
 6 -8.34222854915492 -2.20962950845085 -0.59866144604460
 6 -7.95602764256426 -3.60881143254325 -0.52767306710671
 6 -6.62205999649965 -3.50430341244124 -0.06116819851985
 6 -6.27848157985799 -2.14530248604860  0.17122895829583
 6 -8.72524486398640 -4.83069916831683 -0.86862024512451
 6 -5.46458192109211 -4.40272383578358  0.10677565166517
 8 -5.20919191149115 -5.63680053705371  0.07834378297830
 6 -4.29776427902790 -3.32999044644464  0.62815113671367
 6 -3.61069524632463 -3.67851579427943  1.88288425692569
 8 -3.94741752515251 -3.23370072797280  2.95819917811781
 8 -2.71425677847785 -4.69665828432843  1.74497353485349
 6 -2.17669662666267 -5.10430563646365  2.98332573297330
 6  2.81790811121112 -0.86929521842184 -1.08743226042604
 6  4.09568045324532 -0.58013328122812 -0.42399496229623
 6  5.00137562886289  0.33698022602260 -0.86015889288929
 6  4.96018974457446  1.06708438373837 -2.09601373637364
 6  6.50359663836384  0.36779739573957 -0.18026855125513
 6  7.65900735333533 -0.13034158215822 -1.02836316501650
 6  8.95978368996900 -0.15604742084208 -0.24632073447345
 6  10.17616307690769 -0.45349701290129 -0.98788450845084
 6  10.09630290689069 -1.79765764566457 -1.57603456945695
 6  11.48816348014801 -0.24899979107911 -0.04356231873187
 6  12.74719245474548 -0.50363039653965 -0.80340784588459
 6  13.93890516231623  0.03064735043504  0.06158256985699
 6  15.32393838483848 -0.11275035863586 -0.53323897639764
 6  15.67335360636064 -1.50670905920592 -0.98381020732073
 6  16.47695468816882  0.44099061636164  0.47588232293229
 6  17.81541912961296  0.62271600120012 -0.18653518051805
 6  18.76327674627463  1.28178625712571  0.78494175087509
 6  20.19797260166017  1.40897032953295  0.19717642364236
 6  20.43815666146615  2.07823512861286 -1.04019871577158
 6  21.13353842084208  1.92659435933593  1.31924586458646
 1 -4.14569493299330  3.44944819621962  1.76399249504950
 1 -9.88082020532053  3.97572984748475 -0.62814734093409
 1 -10.27263168726873 -2.28901443654365 -1.44799261866187
 1 -2.62752003920392 -1.13918412111211  2.17884437513751
 1 -2.27409087538754  1.67754981608161  1.24470811981198
 1 -2.03362644904490  0.57914702110211  3.60079041644164
 1 -2.99191630073007  2.30774999779978  3.69495751795179
 1 -3.81754455495550  0.64397955225523  3.89495118031803
 1 -2.14868998799880 -1.57264793559356 -0.14682268936894
 1 -2.24478084708471  0.00531815161516 -0.65526226082608
 1 -0.28344377307731  0.56416600390039  1.06087995099510
 1 -0.17801622192219 -1.11839260586059  1.40912437073707
 1 -5.80335451315131  6.69726723872387  0.54562439373937
 1 -5.16336780808081  5.91772465386539  2.07750976347635
 1 -4.31779662426243  5.71838610661066  0.60717144974497
 1 -9.09064932473247  5.86319970197020 -0.76205755845585
 1 -9.14726379007901  8.02195191619162  0.37186696239624
 1 -7.66884481658166  7.25789262566257  1.59180814111411
 1 -11.85810628362836  3.19061820892089 -2.32517834933493
 1 -13.19869716741674  2.03375211761176 -1.67463319151915
 1 -12.48477951065107  3.01280861496150 -0.56130657015702
 1 -12.67035900080008 -1.40829175197520 -1.29745324622462
 1 -13.34330662976298 -0.05202791329133 -1.73218897329733
 1 -12.75361056025603 -1.56454011611161 -3.54307526562656
 1 -11.98586899259926 -0.15933440474047 -4.08741772017202
 1 -11.22842768216822 -1.61547257445745 -3.29475775397540
 1 -8.87528214681468 -5.14269076987699 -1.97098316131613
 1 -8.04379876507651 -5.70923687698770 -0.64566452155216
 1 -9.94212839183919 -4.64308275667567 -0.34929719841984
 1 -3.42794031253125 -3.33203980958096 -0.21089882798280
 1 -1.90053344094409 -4.29565177857786  3.76865858345835
 1 -3.09543598089809 -5.43024254915492  3.54999603730373
 1 -1.45511603210321 -5.91509229402940  2.78272163326333
 1  2.64189224402440 -1.82033865666567 -1.41873332203220
 1  2.28153459475948 -0.08823073827383 -1.79763082058206
 1  4.32631311801180 -1.16283469726973  0.45855725592559
 1  3.85718102960296  1.18478402110211 -2.44596508220822
 1  5.77829476167617  1.96415683958396 -2.02218965736574
 1  5.56462603110311  0.44932612351235 -2.87927418431843
 1  6.71494967886789  1.31559153975398  0.36780639453945
 1  6.47282515461546 -0.22388972567257  0.74775097059706
 1  7.52001412421242 -1.01563223622362 -1.52699745694569
 1  7.85659821832183  0.45610471347135 -1.89761058395840
 1  9.23513955825583  0.77988748624862  0.24682711081108
 1  8.97501062186219 -1.05356370907091  0.46975309870987
 1  10.18109274107411  0.38430457825783 -1.80813597159716
 1  9.26068567766777 -2.00321860536054 -2.28569695159516
 1  10.96549569016902 -2.26098949824982 -2.14875023312331
 1  10.04017621472147 -2.50948506320632 -0.90884827852785
 1  11.59113075467547  0.71948838223822  0.19652742354235
 1  11.42484007950795 -0.97077837543754  0.81786810691069
 1  12.90651860436044 -1.53197061636164 -1.01062333383338
 1  12.89135496539654  0.15318025402540 -1.73278761246125
 1  13.84945636593659  1.01859722302230  0.34937976667667
 1  14.00105841644164 -0.70374675357536  1.02773514751475
 1  15.40977137853785  0.47585098209821 -1.37255852465246
 1  15.44977877467747 -2.22864220542054 -0.13232136763676
 1  15.04448609300930 -1.84496901690169 -1.68190956445645
 1  16.68801708130813 -1.63556445344534 -1.41126764006401
 1  15.99909318281828  1.51415974967497  0.51440735703570
 1  16.47408148594860 -0.12077836263626  1.45492398709871
 1  18.29102584028403 -0.31581809580958 -0.30698089368937
 1  17.77944525412541  1.20612950705071 -1.04641038463846
 1  18.13071212811281  2.33141440944094  1.00507245404540
 1  18.97119308180818  0.80943578307831  1.75431867736774
 1  20.39491932423243  0.37231822942294  0.09270516271627
 1  20.01279809830983  3.09554033053305 -0.94869705440544
 1  21.46201000180018  2.35075621772177 -1.39601758295830
 1  19.90997939553955  1.58107839803980 -2.03874225862586
 1  21.09683353685368  1.24701034193419  2.17666133493349
 1  21.98240613341334  2.01941241194119  0.90011666526653
 1  20.85617569606961  2.91448756595660  1.53597073377338

