%nproc=4
%Mem=2GB
# td=(NStates=1) CAM-B3LYP/6-31G(d,p) 

TD

0 1
12 -7.15513608660866  0.59510825892589  0.03839152655266
 6 -4.81495611361136 -1.88923010141014  0.34089062176218
 6 -4.80151007990799  2.91037948524852  1.24785115001500
 6 -9.45843057855786  3.17656315181518 -0.26105896559656
 6 -9.62324263796380 -1.79692520352035 -0.73929035813581
 7 -5.13738716331633  0.53198301640164  0.64794521282128
 6 -4.45113481958196 -0.62976279827983  0.70909893309331
 6 -2.97636664206421 -0.40400982668267  1.07252760696070
 6 -2.98474191259126  1.10548321662166  1.49480021072107
 6 -4.25601259615962  1.53899464826483  1.11206823672367
 6 -2.72632771487149  1.26123841194119  3.08846025492549
 6 -1.94164762576258 -0.64592985438544 -0.11414745644564
 6 -0.50323774637464 -0.48416276347635  0.43410754005401
 6  0.59285042224222 -0.75291880478048 -0.61740712121212
 8  0.36730797089709 -1.14232964056406 -1.80695702740274
 8  1.85954776527653 -0.40229762616262 -0.32022881178118
 7 -7.13579402730273  2.69140473027303  0.27684638013801
 6 -6.09055833483348  3.36645762156216  0.80680421402140
 6 -6.45553280638064  4.78309259865987  0.73242392959296
 6 -7.80560326732673  4.76054668616862  0.41180957225723
 6 -8.22066633823382  3.46307550285029  0.13930647694769
 6 -5.42795075177518  5.88605107100710  1.02146690719072
 6 -8.66017381498150  5.94247528122812  0.17969495489549
 6 -8.48764265556556  7.16402252085209  0.73649989978998
 7 -9.23046531913191  0.70243310441044 -0.43659769346935
 6 -9.95700195989599  1.84516446954695 -0.61939826392639
 6 -11.20912000860086  1.44482282138214 -0.95324704420442
 6 -11.21570397429743  0.16436180028003 -1.19001771577158
 6 -9.98774445514551 -0.37688966326633 -0.76835185128513
 6 -12.42432125582558  2.36005657665767 -1.22376915171517
 6 -12.42324687098710 -0.65197260736074 -1.56111692019202
 6 -12.37559504790479 -1.04018642984298 -3.10485560416042
 7 -7.24920438873887 -1.48398801240124 -0.05456013301330
 6 -8.27477771757176 -2.33612878497850 -0.43979893509351
 6 -7.86849299489949 -3.74284255175518 -0.35120239753975
 6 -6.56186007010701 -3.56155049204920 -0.03245497739774
 6 -6.16821941834183 -2.15974425572557  0.00355315951595
 6 -8.56822428982898 -4.91050389278928 -0.74713319171917
 6 -5.29690416071607 -4.40051393489349  0.14461733433343
 8 -5.16373521142114 -5.57274175757576  0.20758778947895
 6 -4.20258383778378 -3.31121691149115  0.46341620692069
 6 -3.58961959285929 -3.67772299359936  1.85320569346935
 8 -3.78116971757176 -3.01166790299030  2.89389207030703
 8 -2.71416260996100 -4.74083880628063  1.81434001490149
 6 -2.15269585748575 -5.12906713581358  3.09306424192419
 6  2.85291780348035 -0.61806960156016 -1.23890509090909
 6  4.19474156315632 -0.39893807010701 -0.64470461946195
 6  5.19959344374437  0.35908217361736 -1.14593436613661
 6  5.12234065706571  1.08964161346135 -2.47513167846785
 6  6.46185051785179  0.43288513871387 -0.32360884608461
 6  7.71582912081208 -0.24966531343134 -1.14831178167817
 6  8.87476934953495 -0.09956508690869 -0.24124593739374
 6  10.19970059455946 -0.52622969466947 -0.97034800530053
 6  10.02100880108011 -2.07106804290429 -1.39706317131713
 6  11.41230410731073 -0.37677145794579 -0.07046617801780
 6  12.75026993469347 -0.59514356545655 -0.76712673557356
 6  14.01700116851685 -0.21008221102110  0.18930599809981
 6  15.33747987288729 -0.19966369546955 -0.49008724852485
 6  15.77723939283928 -1.66434406820682 -0.82096171387139
 6  16.45718982488249  0.52213657365737  0.39858436563656
 6  17.85312990239024  0.65952735113511 -0.02721853645365
 6  18.77703807330733  1.42336055305531  0.94476490949095
 6  20.25920458965896  1.35515584908491  0.41434619781978
 6  20.47861921572157  2.15501379857986 -0.76660765346535
 6  21.14132506330633  1.92316525282528  1.48928429182918
 1 -4.31650313481348  3.57465298669867  1.67593218011801
 1 -10.23562395509551  4.01301213621362 -0.39512490399040
 1 -10.35251854125412 -2.42527186798680 -1.09264591679168
 1 -2.83458991589159 -1.14482279617962  1.82750344154415
 1 -2.24762836803680  1.81421500410041  0.85785643604360
 1 -1.70518497599760  0.87631808470847  3.37510122362236
 1 -2.75471053105311  2.27055111261126  3.42605477087709
 1 -3.47391083378338  0.66737142114211  3.77508992179218
 1 -1.93153563846385 -1.69772973337334 -0.47675158435844
 1 -2.20539221172117  0.09473672407241 -0.90133017261726
 1 -0.32334585198520  0.52439705360536  0.90332073117312
 1 -0.23603140514051 -1.02866738193819  1.37610156535653
 1 -5.75120389578958  6.73775241934193  0.64456016521652
 1 -5.24916190559056  6.04103746684668  2.22008830593059
 1 -4.49604356035604  5.81692285868587  0.63496667226723
 1 -9.61618367086709  5.73865001310131 -0.32263249144914
 1 -9.20262147804780  8.07655839473947  0.39829945174517
 1 -7.57954742054206  7.61151755125513  1.27694608010801
 1 -12.34286839193919  2.94364469046905 -2.16103910861086
 1 -13.32395206440644  1.85769966116612 -1.43605479697970
 1 -12.72966469756976  3.10564921962196 -0.40107135113511
 1 -12.48180295869587 -1.53142258735874 -1.05435038993899
 1 -13.32674139303930 -0.08113485028503 -1.42198772627263
 1 -13.01465781838184 -1.98967365356536 -3.33263314781478
 1 -12.51199476367637 -0.14259879747975 -3.74984848054805
 1 -11.37970424972497 -1.46509137623762 -3.36623524352435
 1 -8.64695429842984 -5.00110085298530 -1.65285854995500
 1 -7.93298266306631 -5.83947395159516 -0.64602421542154
 1 -9.52865275017502 -4.94277929922992 -0.08923074567457
 1 -3.22381307720772 -3.48467171787179 -0.20891616311631
 1 -1.55140330683068 -4.43336977667767  3.44086700200020
 1 -2.75635524412441 -5.31204282188219  3.78274111301130
 1 -1.43712182368237 -5.98706797999800  2.91418537143714
 1  2.90080938503850 -1.58453028892889 -1.78820278527853
 1  2.76494397199720 -0.07441316171617 -2.23208636083608
 1  4.20936184178418 -0.83720593579358  0.49632284828483
 1  4.19958892239224  1.22802151255125 -3.06536490619062
 1  5.30221563326333  2.09666992589259 -2.35115158335834
 1  5.76918422602260  0.59251035853585 -3.07568629962996
 1  6.85377744064406  1.49573357335734 -0.10966832403240
 1  6.36414053345335 -0.21531956935693  0.52894261096110
 1  7.57357474217422 -1.17068630383038 -1.44837616121612
 1  7.83019545544554  0.36789999809981 -2.09120204380438
 1  9.16291834343434  0.92020990599060 -0.07409977777778
 1  8.70480896959696 -0.70966647284728  0.71036890059006
 1  10.42763031443144  0.12777531523152 -1.81851674117412
 1  8.97819280478048 -2.15633360986099 -1.92424834963496
 1  10.80535309100910 -2.23124990889089 -1.97034127802780
 1  9.77353023902390 -2.62350429242924 -0.52050148984899
 1  11.41875955685568  0.50799302950295  0.58878036553655
 1  11.43382643604360 -1.11131709300930  0.68825944754475
 1  12.81575489438944 -1.67324548574858 -0.88839650725072
 1  12.94925867836784 -0.08275758475848 -1.70278363966397
 1  13.77086852355236  0.80239279527953  0.65944328732873
 1  13.86602935603560 -1.03504310901090  0.86960347684769
 1  15.06240952945294  0.39739922492249 -1.43070742874287
 1  16.16359380228023 -2.27307759985999  0.27950649674967
 1  15.13850690139014 -2.34814719031903 -1.43529094419442
 1  16.65036466586659 -1.72406793169317 -1.45924739423942
 1  16.15407060776078  1.51604943864386  0.61517806210621
 1  16.54439888708871 -0.02007118221822  1.53693645484548
 1  18.24434537323732 -0.31483803120312 -0.37767110751075
 1  17.66323338783879  1.10084740364036 -1.03493706950695
 1  18.41480227282728  2.50713487118712  1.24043204850485
 1  18.67182434273428  0.72377655865587  1.79252925322532
 1  20.42495740844084  0.34034018221822 -0.00543347934793
 1  20.24249835643564  3.15862942484248 -0.76734032743274
 1  21.55733998609861  2.27603425622562 -0.89464082738274
 1  20.12920682508251  1.55820763156316 -1.73420038903890
 1  21.10267624282428  1.01192930203020  2.36029564676468
 1  22.23741544784478  2.05986721642164  1.12453742004200
 1  20.59124885478548  2.82037212051205  2.02605304580458

