%nproc=4
%Mem=2GB
# td=(NStates=1) CAM-B3LYP/6-31G(d,p) 

TD

0 1
12 -7.15260583358336  0.60880962906291  0.06346403380338
 6 -4.88050266826683 -2.00381155955596  0.51064759745975
 6 -4.87928785768577  2.78471691899190  1.08829519441944
 6 -9.41818655415542  3.19141463696370 -0.51979483918392
 6 -9.53497381108111 -1.75054056505651 -0.87404383348335
 7 -5.10110353495350  0.41809162726273  0.60043046134613
 6 -4.33136284238424 -0.69730955295530  0.73453147634763
 6 -2.91366037143714 -0.41975140084008  1.23982433663366
 6 -2.99388282668267  1.07646031433143  1.59231996269627
 6 -4.42039903480348  1.44005475427543  1.10384741464146
 6 -2.98282336443644  1.30287257535754  3.12026343524352
 6 -1.86812027302730 -0.54625988738874  0.02972693099310
 6 -0.47500492309231 -0.45438978617862  0.41887601690169
 6  0.53212434963496 -0.67621113401340 -0.60127550805081
 8  0.26234747484748 -0.89489489708971 -1.80472680438044
 8  1.79007081758176 -0.52100949734973 -0.21763855275528
 7 -7.13973442134213  2.63112870267027  0.24232292779278
 6 -6.03559283828383  3.25925690149015  0.74862839643964
 6 -6.32725997909791  4.67348163756376  0.90832151935194
 6 -7.62997570457046  4.86804743624362  0.33030142144214
 6 -8.10539481108111  3.55263445874587 -0.01315876957696
 6 -5.45472342904290  5.80079254515452  1.24741950245025
 6 -8.34885268286829  6.01819285298530  0.11208819421942
 6 -8.41804569586959  7.20204632323232  0.72441869166917
 7 -9.15948822142214  0.59301216231623 -0.53638767246725
 6 -9.88317457715772  1.87610756385639 -0.60942726682668
 6 -11.18305740234023  1.49007734683468 -1.15820754025403
 6 -11.23192559645964  0.09579494359436 -1.22251096509651
 6 -9.99975565626563 -0.43708568286829 -0.84487950405041
 6 -12.30623944764476  2.53039361036104 -1.28356513131313
 6 -12.36773131943194 -0.68139554965497 -1.70493130163016
 6 -12.44512200060006 -0.92153456465647 -3.20678579717972
 7 -7.18082755105511 -1.40654026762676 -0.15450012701270
 6 -8.31791203100310 -2.22602777487749 -0.47752270747075
 6 -7.85443158875888 -3.57768603610361 -0.59242651995200
 6 -6.52826671077108 -3.51745608260826 -0.19889162106211
 6 -6.18874147054705 -2.23676195749575  0.08754155835584
 6 -8.60110757815782 -4.82365520792079 -0.80684916331633
 6 -5.28198266856686 -4.37828171167117  0.14680755335534
 8 -5.15581441934193 -5.61428591199120  0.20388741944194
 6 -4.18872245164516 -3.30679646944694  0.63626349164917
 6 -3.55991662256226 -3.72530775207521  2.01623199609961
 8 -3.84044564516452 -3.22505924212421  3.11207388848885
 8 -2.76880807450745 -4.72093681608161  1.78704728562856
 6 -2.37521810971097 -5.31059528862886  2.96235117061706
 6  2.78386089778978 -0.64746254085409 -1.26677787818782
 6  4.13971606060606 -0.48043621992199 -0.58791894089409
 6  5.20337382178218  0.33939020442044 -0.99919969266927
 6  5.18219664266427  1.23464611391139 -2.16066023132313
 6  6.47371170397040  0.35253710391039 -0.11300778597860
 6  7.65642318021802 -0.18635898279828 -0.80134708520852
 6  8.87084895749575 -0.17495262566257  0.00761894909491
 6  10.16496712121212 -0.72354942664266 -0.66877784828483
 6  10.03250995119512 -2.12908384448445 -1.12175564056406
 6  11.49640251715172 -0.30819460026003  0.04725559415942
 6  12.81614652235223 -0.66217026812681 -0.64963498639864
 6  13.96054552295229 -0.33412461526153  0.31387845534553
 6  15.40869699459946 -0.25342907200720 -0.39941818161816
 6  15.81685335423542 -1.64444207800780 -0.95216483418342
 6  16.45610971687169  0.38183254325433  0.51847635483548
 6  17.76604119351935  0.64520591899190 -0.30625644024402
 6  18.77004737423742  1.41859007600760  0.67634806780678
 6  20.23999266846685  1.50247058055806  0.12141690489049
 6  20.33666502030203  2.27978627582758 -1.20977196989699
 6  21.06029696049605  2.30665360166017  1.16662202560256
 1 -4.19452093659366  3.51432695409541  1.68603319021902
 1 -9.89595998869887  4.20135097009701 -0.77562295379538
 1 -10.32644593399340 -2.65681502230223 -1.56054270647065
 1 -2.49938639553955 -0.85252356625663  1.97854854605461
 1 -2.28928253345335  1.64675825842584  1.13297394779478
 1 -1.98856331383138  0.99378983188319  3.53539725322532
 1 -3.02040710071007  2.38946300380038  3.34093625902590
 1 -3.87045048774877  0.60976566056606  3.52612502530253
 1 -1.99105159005901 -1.54306426682668 -0.49636354555456
 1 -2.23678535103510  0.23709095949595 -0.71043108270827
 1 -0.15090860826083  0.49656427032703  0.87827822692269
 1 -0.16413421542154 -1.23707822302230  1.20826478167817
 1 -5.84749352475248  6.67032567666767  0.62791850105010
 1 -5.53308029742974  6.14904826792679  2.23628992609261
 1 -4.28047200320032  5.55413658005801  1.04919809540954
 1 -8.89613166566657  5.94261040914091 -0.78999922812281
 1 -9.01814303020302  8.09698043694369  0.45157477927793
 1 -7.88796826262626  7.27548394789479  1.78301668716872
 1 -11.85870997609761  3.51925225122512 -1.74044704940494
 1 -13.18709837903790  2.21268515971597 -1.98324951645165
 1 -12.46624835593559  2.77484613931393 -0.26060730473047
 1 -12.51009578797880 -1.56673611871187 -1.21783673857386
 1 -13.43666238513851 -0.21612834963496 -1.42351787928793
 1 -13.25576192879288 -1.76598128432843 -3.59026891139114
 1 -12.63619718391839  0.04763022542254 -3.65346884258426
 1 -11.45652193149315 -1.15882074917492 -3.55874449444945
 1 -8.97356695969597 -5.05559630253025 -1.89896316041604
 1 -8.23262262706270 -5.93508351255125 -0.71509112211221
 1 -9.70180006490649 -4.90733575487549 -0.25106692929293
 1 -3.36002669856986 -3.47446069676968 -0.01964723622362
 1 -1.77399556605660 -4.67187362706271  3.69052196749675
 1 -3.22871247984798 -5.55758737633763  3.52563540244024
 1 -1.71153926542654 -6.15547482068207  2.85472942584258
 1  2.74700400450045 -1.60962279817982 -1.78762272727273
 1  2.56140361796180  0.17729200880088 -1.89894304650465
 1  4.34032493809381 -1.28029024422442  0.18112132813281
 1  4.13918288178818  1.40761947234723 -2.44793316301630
 1  5.55738114981498  2.18528878777878 -2.17731419961996
 1  5.62422973057306  0.92866397389739 -3.09370810181018
 1  6.76192825572557  1.35031903190319  0.00287293009301
 1  6.44396851625163 -0.05100313771377  0.94433415011501
 1  7.29072645734573 -1.23318255345535 -1.00023134673467
 1  7.96633906980698  0.30048325642564 -1.75584850845085
 1  8.93349540114011  0.91906979197920  0.21675930813081
 1  8.50282877157716 -0.92208771497150  0.84792265596560
 1  10.10776832823282 -0.05095255755576 -1.58579346884688
 1  9.29724470997100 -2.55240321682168 -1.68833475827583
 1  10.91062361806181 -2.32938972287229 -1.95786002990299
 1  10.30686357235724 -2.85238718071807 -0.20766020572057
 1  11.42793047394740  0.72037426762676  0.16560804830483
 1  11.47273032643264 -0.66756271757176  1.03177379897990
 1  12.72427574647465 -1.82928108930893 -0.92163983158316
 1  12.79635338783878 -0.23154246324632 -1.68473183448345
 1  14.00299173587359  0.78561111711171  0.68349569256926
 1  14.00580333343334 -1.01632123682368  1.28262477897790
 1  15.21045433393339  0.30438992399240 -1.41865622362236
 1  15.91505894879488 -2.32090238233823 -0.15212666656666
 1  15.24566761746175 -2.07048942454245 -1.72098951405141
 1  16.70690031943194 -1.47564308920892 -1.32545401490149
 1  16.09106430713071  1.26580441414141  1.05881242554255
 1  16.75872031923192 -0.33024219931993  1.20206296749675
 1  18.18103904260426 -0.38617516491649 -0.71532487288729
 1  17.42716978147815  1.38363568246825 -1.05870944674467
 1  18.24549534213421  2.37400155785579  0.81092909820982
 1  18.77150431073107  0.87759194019402  1.54114411471147
 1  20.64635954865486  0.48331447964796  0.03696076007601
 1  20.10712481908191  3.31952551445145 -1.43756735013501
 1  21.39648390049005  2.06853350615062 -1.60830219351935
 1  19.59953385778578  1.62758456925693 -1.80040700970097
 1  21.25226120132013  1.70784889398940  2.13805342254225
 1  22.04020572687268  2.51138236793679  0.78751371767177
 1  20.80451018091809  3.43991407470747  1.30085052555256

