%nproc=4
%Mem=3GB
# td=(NStates=1) iop(3/107=0140000000,3/108=0140000000) CAM-B3LYP/6-31G(d,p) 

TD

0 1
12 -7.15668035973597  0.63634201770177  0.20739710971097
 6 -4.84822363886389 -1.96276350695070  0.53005840824082
 6 -4.82680871147115  2.84483320122012  1.13799390459046
 6 -9.46314307880788  3.07796534953495 -0.25692816811681
 6 -9.48004410241024 -1.72339410511051 -0.98741554645465
 7 -5.15525255645565  0.42522861346135  0.73990181418142
 6 -4.37428967626763 -0.69977112031203  0.79941783648365
 6 -2.94289050965097 -0.42500089808981  1.28616428552855
 6 -3.02161538843884  1.05499420102010  1.63053933323332
 6 -4.37068730343034  1.47857250835084  1.20789518341834
 6 -2.99898607940794  1.30003282258226  3.16141145574557
 6 -1.93796952665267 -0.65596158535854  0.14680849114911
 6 -0.49072478167817 -0.63247649564956  0.67236061836184
 6  0.45011693489349 -0.59609623152315 -0.46444623472347
 8  0.20965118191819 -1.06953073077308 -1.61683907700770
 8  1.76435503390339 -0.35888582698270 -0.10845623322332
 7 -7.15226286968697  2.56938014791479  0.39526045014501
 6 -5.97711785558556  3.40771453885389  0.67227310341034
 6 -6.37667257565757  4.78654551815182  0.63944220292029
 6 -7.67631241654165  4.87096890209021  0.31567769416942
 6 -8.13288281578158  3.48982592139214  0.05766376497650
 6 -5.29397143104310  5.84857433113311  0.84858501370137
 6 -8.54482449044905  6.06177644724472  0.25672628512851
 6 -8.33979238923892  7.28668781848185  0.78445250455045
 7 -9.08418745984599  0.65219221362136 -0.54480105400540
 6 -9.83681116741674  1.87693101740174 -0.62686550005001
 6 -11.24902885558556  1.51852129662966 -0.96181104080408
 6 -11.27114660186018  0.14317186298630 -1.20130015831583
 6 -9.98743634723472 -0.31089128252825 -0.82511471277128
 6 -12.31328226592659  2.48356359775978 -1.44003345604560
 6 -12.45411920482048 -0.78391451525153 -1.67120645124512
 6 -12.37179908880888 -1.11887207950795 -3.21744239543954
 7 -7.22953591599160 -1.33402823852385 -0.22692536763676
 6 -8.24354868116812 -2.22135068056806 -0.65808738863886
 6 -7.84937697749775 -3.63415396679668 -0.68399869966997
 6 -6.56535432593259 -3.61426440854085 -0.08797087878788
 6 -6.19978371007101 -2.19438739453945  0.07840967636764
 6 -8.73559589908991 -4.76398249664966 -0.92553593669367
 6 -5.32220768366837 -4.38950251365137  0.23202817691769
 8 -5.20139113141314 -5.56474333133313  0.10212616121612
 6 -4.19075357795780 -3.23430087748775  0.48398672027203
 6 -3.52763694049405 -3.68200614331433  1.81761773027303
 8 -3.83558634203420 -3.14799215711571  2.81424478267827
 8 -2.78040339313931 -4.72435105360536  1.68205724322432
 6 -2.23563252025203 -5.33352855875588  2.91445884628463
 6  2.84163048344834 -0.64684297319732 -1.11728524572457
 6  4.15654653985399 -0.50002527042704 -0.51670423322332
 6  5.13682917421742  0.28912544054405 -0.87367024402440
 6  5.28734245984598  1.16136381168117 -2.19350348534853
 6  6.49992627132713  0.26752736873687 -0.13565408980898
 6  7.58807025962596 -0.43543209120912 -0.87335766446645
 6  8.94715242684268 -0.28687050315032 -0.14347044944494
 6  10.18071353195320 -0.61692335553555 -0.82763848384838
 6  10.17621089768977 -2.09972785268527 -1.49224619061906
 6  11.48708337213721 -0.29171406250625  0.07391942944294
 6  12.80741847734773 -0.40757079057906 -0.70184768986899
 6  13.95651692349235 -0.03975969026903  0.24943135473547
 6  15.34794078507851 -0.15547463106311 -0.34054970747075
 6  15.78063433443344 -1.55371375967597 -0.78612043834383
 6  16.47967496019602  0.43476999429943  0.50533526822682
 6  17.76996458415842  0.58042177177718 -0.21113764076408
 6  18.72245266386638  1.42059013751375  0.65879913661366
 6  20.23148595299530  1.36280571307131  0.17236394239424
 6  20.37461030683068  2.09977728282828 -1.16649134503450
 6  21.16729179617962  2.00459215911591  1.18482242224222
 1 -4.13850421392139  3.50902415381538  1.40157625342534
 1 -10.05015713901390  4.18764103860386 -0.24331885808581
 1 -10.22318674277428 -2.30816635173517 -1.51053887328733
 1 -2.80810809800980 -1.24731493419342  2.11403789448945
 1 -2.38650211651165  1.71487354845485  1.00721437043704
 1 -1.93122620902090  0.99921902830283  3.48439877727773
 1 -3.01956906600660  2.31489071187119  3.41803982618262
 1 -3.66584938543854  0.70981613591359  3.64928661386139
 1 -1.95872099109911 -1.63802447324732 -0.13968197529753
 1 -2.30203657265727 -0.08234061426143 -0.74919165376538
 1 -0.59916534523452  0.32524211151115  1.18577244024402
 1 -0.02535095539554 -1.48337910451045  1.17680113841384
 1 -5.73952813051305  6.82908042004200  0.20477030833083
 1 -5.12227369866987  6.21215409680968  1.86044805730573
 1 -4.32970781538154  5.62328659665967  0.45593632623262
 1 -9.15177543734374  6.17371075307531 -0.64581593429343
 1 -9.12719178287829  8.06511623262326  0.76738651435144
 1 -7.62031996409641  7.50401723812381  1.53606256655666
 1 -12.06426689968997  3.11567071417142 -2.41739757125713
 1 -13.26570386808681  1.94095283768377 -1.23326905510551
 1 -12.16183721642164  3.36860419451945 -0.51008144764476
 1 -12.61345331023102 -1.56950787358736 -0.87082058295830
 1 -13.38995129422942 -0.03499621012101 -1.74585033943394
 1 -13.20760595979598 -1.73439710181018 -3.71407236533654
 1 -12.18122852855285 -0.11983045434543 -3.69636861526153
 1 -11.50744558395840 -1.93115414261426 -3.24875315351535
 1 -8.88299291789179 -4.60362686348635 -2.07245330833083
 1 -8.16262064726473 -5.74503045634563 -0.48260821592159
 1 -9.70694487348735 -4.64833328172817 -0.35295756445645
 1 -3.61590910941094 -3.36291289688969 -0.42033977207721
 1 -1.54965835343534 -4.60152236563656  3.37825954355436
 1 -3.08192462976298 -5.58265779067907  3.52356339403940
 1 -1.49691021152115 -6.05390617541754  2.50303366446645
 1  2.72932098689869 -1.68507513031303 -1.37972942164216
 1  2.63624006530653  0.00333841864186 -1.93177423492349
 1  4.43385387208721 -0.82347076087609  0.49341074127413
 1  4.38241355285529  1.34594013671367 -2.76871735743574
 1  5.63167009920992  2.20369079297930 -1.99943738213821
 1  6.15701527002700  0.51373256415642 -2.87005326222622
 1  6.80361854575458  1.25505548614861  0.26745635953595
 1  6.47206507860786 -0.20654799149915  0.88782497799780
 1  7.21166328912891 -1.44696536953695 -1.04600935813581
 1  7.36978953745375  0.05649475247525 -1.84941576447645
 1  9.14309035333533  0.88502800030003  0.03274570267027
 1  8.99652277307731 -0.76697505020502  0.71356748014802
 1  10.30262489428943  0.27234338213821 -1.70526568456846
 1  9.35258486758676 -2.25344362786279 -2.21834021592159
 1  11.32858199879988 -2.11392479177918 -2.06039139723972
 1  10.07791998909891 -2.72009612431243 -0.59839723342334
 1  11.11934357595760  0.72390882428243  0.41275904670467
 1  11.52699029452945 -1.03503480108011  0.95370169026903
 1  12.94910286278628 -1.47412483178318 -1.02620489198920
 1  12.74408023792379  0.37113204920492 -1.61078541224122
 1  13.88031945224522  0.79329469276928  0.94380920962096
 1  13.97854616521652 -0.96958333723372  0.96567894189419
 1  15.04013441484148  0.61034443144314 -1.32177344614461
 1  16.11909570637064 -2.23327266846685  0.03734559905991
 1  15.17252889728973 -2.06319083908391 -1.54515588908891
 1  16.71312959255926 -1.53129402640264 -1.58314482778278
 1  16.09261253475347  1.27182551625163  0.70419633593359
 1  16.70676475427543 -0.26789307410741  1.39729822452245
 1  18.32577931563156 -0.34843135713571 -0.73257345294529
 1  17.60255756535653  1.06765565966597 -1.05346108970897
 1  18.26267532443244  2.37538880688069  0.55525747254725
 1  18.75916187868787  1.17172201170117  1.65140838633863
 1  20.34622445474547  0.26273727132713  0.09599549174918
 1  19.90182700120012  2.94489526602660 -1.14220640534053
 1  21.34274807560756  1.87417855995599 -1.39187716891689
 1  19.75042343994399  1.58689898009801 -2.01493987838784
 1  21.13262711621162  1.56723236413641  2.08747241604160
 1  22.14620251305130  2.07600807150715  0.83623027662766
 1  20.80825090359036  3.09659577677768  1.26472360906091

