%nproc=4
%Mem=2GB
# td=(NStates=1) CAM-B3LYP/6-31G(d,p) 

TD

0 1
12 -7.18213878687869  0.62720146824682  0.16718440584058
 6 -4.86624124212421 -1.99513069146915  0.53871040374037
 6 -4.73431336023602  2.78290673797380  1.10011637653765
 6 -9.38778351385139  3.15203069856986 -0.44719757945795
 6 -9.60996130983098 -1.79698520952095 -0.73991042014201
 7 -5.11526495109511  0.45334515261526  0.58945936423642
 6 -4.35973567966797 -0.67850767276728  0.77954597779778
 6 -2.96183518891889 -0.53426285198520  1.18158851305131
 6 -3.02059549794979  0.99406207450745  1.59483021372137
 6 -4.40648764366437  1.50734148294829  1.09773680358036
 6 -2.93771885398540  1.28951123922392  3.21429283818382
 6 -1.98476193719372 -0.73735899729973  0.12978693699370
 6 -0.47685510811081 -0.34529887708771  0.43724785408541
 6  0.54293543074307 -0.68277179007901 -0.71894727522752
 8  0.24306554665467 -1.30369577717772 -1.74693102480248
 8  1.74107591809181 -0.47114451085108 -0.22171896079608
 7 -7.04354480238024  2.62369795959596  0.28578727422742
 6 -5.98809808880888  3.37602857865787  0.81587512111211
 6 -6.24389164226423  4.74180847024703  0.69133982118212
 6 -7.67045975297530  4.87185781728173  0.30048844014401
 6 -8.13807807940794  3.47208640394039  0.02364491079108
 6 -5.30807876457646  5.81831429732973  0.99166392689269
 6 -8.34932272987299  6.09854088778878  0.05097208260826
 6 -8.19630352165217  7.26611272987299  0.79767601740174
 7 -9.07506977957796  0.73459632073207 -0.52894692839284
 6 -9.92283854355436  1.82348230133013 -0.61229755385539
 6 -11.12135123172317  1.49173751285129 -1.04540626012601
 6 -11.21469387328733  0.16894225832583 -1.18645735973597
 6 -9.87821350205020 -0.38273024732473 -0.83736875297530
 6 -12.23715253895389  2.50996156715672 -1.40174694949495
 6 -12.35525007130713 -0.63796120622062 -1.74994580308031
 6 -12.17512500090009 -0.95440785198520 -3.21567668626863
 7 -7.26055552385239 -1.35971558515852 -0.05476015301530
 6 -8.34547478727873 -2.22165733783378 -0.49452440764076
 6 -7.82151829742974 -3.54481274877488 -0.45353263056306
 6 -6.56206009010901 -3.53930826782678 -0.15215694759476
 6 -6.25021761816182 -2.18773705500550  0.19831263546355
 6 -8.69275674307431 -4.89171201360136 -0.71784026242624
 6 -5.42534700500050 -4.47929181268127  0.29289216181618
 8 -5.29176801470147 -5.63900838423842  0.16574360506051
 6 -4.23152673207321 -3.47603339313931  0.52970283558356
 6 -3.51369200010001 -3.79395461676168  1.86949732263226
 8 -3.55922752335234 -3.16689342554255  2.88861154225423
 8 -2.82411360506051 -4.91848657105711  1.71765034593459
 6 -2.12974356225623 -5.43455768486849  2.82792772827283
 6  2.76906941864186 -0.58394618921892 -1.27841904230423
 6  4.14767685668567 -0.37421559785979 -0.64939508850885
 6  5.14312779717972  0.33125939133913 -1.03149292199220
 6  4.96806522952295  1.33963661296130 -2.17436160146015
 6  6.43774810761076  0.44152600280028 -0.21242772797280
 6  7.61474901280128 -0.14403475037504 -1.01494844534453
 6  8.86015788838884 -0.27716284668467  0.00518870607061
 6  10.03667429192919 -0.67124419611961 -0.72955392589259
 6  10.12082878307831 -2.15513644974497 -1.24379784478448
 6  11.38325120202020 -0.52898667946795  0.09300016861686
 6  12.69979488718872 -0.69401345244524 -0.57080710361036
 6  13.89386885528553 -0.16056725952595  0.24710177767777
 6  15.32275840074007 -0.14936866596660 -0.44459269906991
 6  15.76296796569657 -1.59162679647965 -0.78831844954495
 6  16.36723082898290  0.53076743674367  0.38601310851085
 6  17.69515410481048  0.74249564796480 -0.34108992359236
 6  18.71341171067107  1.49393761076108  0.75929636263626
 6  20.18826749594960  1.53829416291629  0.27554231743174
 6  20.30026137993799  2.19021731893189 -1.12220321302130
 6  21.18624955575558  2.23663659996000  1.23944930833083
 1 -3.76932841734174  3.38986450785079  1.41794638153815
 1 -10.08495888858886  3.99123995899590 -0.46112150365036
 1 -10.41215450485048 -2.45263460426043 -0.85534218641864
 1 -2.70284674157416 -0.92621093499350  2.22334302550255
 1 -2.14615822102210  1.70065364796480  1.21570222062206
 1 -1.84031848934894  1.34935538843884  3.54419813331333
 1 -3.20324538453845  2.33493755125513  3.40635280068007
 1 -3.66582002470247  0.63582826682668  3.79233164596460
 1 -1.86568905380538 -1.86527648804880 -0.23699760896090
 1 -2.32615428792879  0.01905915631563 -0.94898493809381
 1 -0.08260177757776  0.64080869476948  0.76858725782578
 1 -0.08283608560856 -0.88681319651965  1.27500145534553
 1 -5.72995177057706  6.67112575667567  0.39615532473247
 1 -5.16750373977398  6.12961632473247  2.12363866096610
 1 -4.28695265126513  5.77476864326433  0.57370054565456
 1 -9.04317637013702  6.10664681278128 -0.73033326152615
 1 -8.63908512441244  8.26589732863286  0.46287590939094
 1 -7.49775924172417  7.19605600510051  1.65253363886389
 1 -11.92175628072807  3.13170349634963 -2.27812081678168
 1 -13.18350802000200  2.25185907710771 -1.64642583408341
 1 -12.22225395649565  3.32448110281028 -0.59138038203820
 1 -12.61847662606261 -1.46420586568657 -1.19111406630663
 1 -13.16641536043604 -0.17668440524052 -1.64988051555155
 1 -13.32574892749275 -1.11982666886689 -3.43871375587559
 1 -12.00651421562156  0.00428589098910 -3.72699619531953
 1 -11.32222850215022 -1.59466433353335 -3.37590621062106
 1 -9.25639524252425 -4.84056479937994 -1.74741800590059
 1 -8.08483784858486 -5.80995099929993 -0.64416402940294
 1 -9.53234311921192 -4.74002902420242  0.09173735113511
 1 -3.16413710961096 -3.27098034873487 -0.11663693519352
 1 -1.56734490099010 -4.55405184488449  3.19922283758376
 1 -2.89164877347735 -5.81472308990899  3.49051189008901
 1 -1.40782889438944 -6.15648492169217  2.43009696259626
 1  2.81853115721572 -1.61801363726373 -1.63965793079308
 1  2.47663514111411  0.19758403800380 -1.97665081728173
 1  4.27110801640164 -1.01718393359336  0.29955317131713
 1  3.93415237873787  1.85414412481248 -2.47365573527353
 1  5.86553196489649  2.08864912381238 -1.98615508370837
 1  5.31083839143914  0.71629273677368 -3.11790052105211
 1  6.71137320022002  1.45572957295730  0.27085972877288
 1  6.39057317671767 -0.25182321972197  0.65452516921692
 1  7.38040542524252 -0.99472870807081 -1.62333365696570
 1  7.88969140504050  0.51926513461346 -1.81619454305430
 1  8.92947499909991  0.58698658365837  0.41948958115812
 1  8.47527601630163 -0.86317182338234  0.85848371207121
 1  10.14195174657466  0.01103364106411 -1.66096098559856
 1  9.17987297279728 -2.40853883038304 -1.86285221002100
 1  10.99310186588659 -2.42635941984198 -1.76835107900790
 1  9.99903278927893 -2.93634557655766 -0.15881532123212
 1  11.50227790869087  0.51918414861486  0.51011249874987
 1  11.31031408480848 -1.11544750605060  1.08149877147715
 1  12.81631495039504 -1.80642880408041 -0.85866353395339
 1  12.69703345584558 -0.16124543354335 -1.36798015931593
 1  13.43854529122912  0.75336789278928  0.42289963296330
 1  14.02350510361036 -0.60597020172017  1.19393591009101
 1  14.94240752925293  0.43815330033003 -1.49833419141914
 1  15.75423286618662 -2.08320861296130  0.07393593969397
 1  15.22217526822682 -2.04584696029603 -1.70629804490449
 1  16.90858048744875 -1.78767429232923 -1.01679314881488
 1  15.97975317601760  1.48061589528953  0.74169071337134
 1  16.63855830303030 -0.16177535263526  1.27177993919392
 1  18.07542848154815 -0.21542809020902 -0.55455879627963
 1  17.55163222772277  1.10506782568257 -1.12539611541154
 1  18.30275106770677  2.45762992069207  1.21263926922692
 1  18.79688684898490  0.82940712171217  1.70518051835183
 1  20.53242815551555  0.47246339453945  0.13691075507551
 1  19.94801890849085  3.34415797769777 -1.11681527492749
 1  21.46942119421942  2.28031468426843 -1.28521988528853
 1  19.73446735113512  1.71511332213221 -1.77496446544654
 1  21.28378435363537  1.45755386448645  2.06084570177018
 1  22.16126783308331  2.33173440314031  0.99839480578058
 1  20.87521725162516  3.23711379467947  1.48600904140414

