%nproc=4
%Mem=2GB
# td=(NStates=1) CAM-B3LYP/6-31G(d,p) 

TD

0 1
<<<<<<< HEAD
12 -7.18964953795379  0.65920466856686  0.07177486488649
 6 -4.80201481948195 -2.00474165256526  0.48602513521352
 6 -4.84055398429843  2.73327177447745  1.23632999789979
 6 -9.33948868436844  3.04210970647065 -0.30275313501350
 6 -9.57451776547655 -1.78385389638964 -0.83326975607561
 7 -5.10710413501350  0.38109792789279  0.64765518381838
 6 -4.38716842294229 -0.71724154615462  0.84521254445445
 6 -2.91452045744574 -0.44910433613361  1.23189354355436
 6 -3.07717115551555  1.07405007330733  1.62248297899790
 6 -4.41588858375838  1.47004775357536  1.13828085798580
 6 -2.95364044614461  1.25007729582958  3.16568797769777
 6 -1.87755121612161 -0.71017627902790  0.14311827012701
 6 -0.44046146874687 -0.35424977217722  0.54908903820382
 6  0.47312845004500 -0.59712322522252 -0.54713009350935
 8  0.10002124222422 -0.88859426702670 -1.70240657235724
 8  1.77371918241824 -0.47376477287729 -0.31979876877688
 7 -7.18716916481648  2.65759134893489  0.31847054255426
 6 -6.09511879087909  3.34415539133913  0.81197473107311
 6 -6.36637389048905  4.75811010041004  0.69834052125213
 6 -7.68521122812281  4.91769240074007  0.26816520782078
 6 -8.09124339593959  3.50695989128913  0.07045959225923
 6 -5.37143510021002  5.96718918481848  0.95591035153515
 6 -8.52585038263826  5.99450048374838  0.07782476787679
 6 -8.37125101640164  7.19523564216422  0.76591284108411
 7 -9.12028430103010  0.67612047314731 -0.48415244894489
 6 -9.88256451615161  1.77730768386839 -0.58184450855086
 6 -11.11469056565656  1.46803514261426 -1.10794251375138
 6 -11.16317872177218  0.10788615271527 -1.23297201120112
 6 -9.93299898059806 -0.40393236753675 -0.81637665376538
 6 -12.25816464016402  2.39977054805481 -1.42057883268327
 6 -12.27463200950095 -0.75900331043104 -1.66856766526653
 6 -12.25254274267427 -1.13258566976698 -3.16904202280228
 7 -7.24723419171917 -1.40358997259726 -0.20621529852985
 6 -8.30364060386039 -2.18688386048605 -0.48693364856486
 6 -7.86392253785379 -3.59620788828883 -0.54518179547955
 6 -6.53304718881888 -3.54676901390139 -0.24976670857086
 6 -6.19333192959296 -2.16524480578058  0.12157496169617
 6 -8.57543501090109 -4.85484832723272 -0.94374285268527
 6 -5.36778124842484 -4.44979886338634  0.22265513811381
 8 -5.19826866476648 -5.64867935133513  0.29526655735574
 6 -4.19371295069507 -3.30106589638964  0.63432329762976
 6 -3.55386601750175 -3.72960818211821  1.91663203610361
 8 -3.76007760836084 -3.22466920312031  3.00254293539354
 8 -2.60411160486049 -4.68901362376238  1.81464004490449
 6 -2.01393198109811 -5.21770599969997  2.97596253175318
 6  2.74278679037904 -0.67145494009401 -1.23845504590459
 6  4.11500358935894 -0.38420659695970 -0.65731588058806
 6  5.12680616501650  0.35741200660066 -1.07487726042604
 6  4.94656307930793  1.48689133843384 -2.21052521782178
 6  6.33070740354035  0.41724357455746 -0.26746323152315
 6  7.59043658155816 -0.02293264016402 -1.01711866236624
 6  8.90057192979298 -0.01294642504250 -0.11290310311031
 6  10.20497112161216 -0.50568764046405 -0.77819879037904
 6  10.13652035223522 -2.00272120822082 -1.03067653265326
 6  11.42056493339334 -0.16700048084808 -0.04735386678668
 6  12.78803371107111 -0.54905895699570 -0.71599162206221
 6  13.97998746714671 -0.13274447724772  0.11237830533053
 6  15.31334745964596 -0.26421015011501 -0.58407664746475
 6  15.75041671057106 -1.73557119091909 -0.99451906960696
 6  16.44058816471647  0.33350771077108  0.40563507070707
 6  17.83041763116312  0.45350674907491 -0.23011882648265
 6  18.81840220972097  1.11556977397740  0.74320475347535
 6  20.25674434363436  1.28941927542754  0.32104686788679
 6  20.35398675247525  2.19287758495850 -0.97707870057006
 6  21.11191212201220  1.98502143844384  1.36773213661366
 1 -4.27979946444644  3.65235075647565  1.42374696159616
 1 -10.07700809350935  3.77168800380038 -0.55709110061006
 1 -10.25402869226923 -2.65673501430143 -1.10093674587459
 1 -2.51793825072507 -1.02631094499450  2.12021271247125
 1 -2.30651425662566  1.74435801840184  1.22576322672267
 1 -1.97029148664866  1.28517897079708  3.39695340884088
 1 -3.32246730673067  2.19579363686369  3.42577474287429
 1 -3.55333877657766  0.60639532353235  3.63642605540554
 1 -1.88898138303830 -1.72395235563556 -0.34044795399540
 1 -2.18666033853385 -0.10555330493049 -0.80009004860486
 1 -0.38264178157816  0.75763037693769  0.94966536563656
 1 -0.06575437743774 -0.88751326652665  1.48978293349335
 1 -5.53911268666867  6.76223486758676  0.04590029922992
 1 -5.32124911431143  6.41931529462946  2.01465776287629
 1 -4.37022097809781  5.35518668506851  0.99614278987899
 1 -9.45452750525053  5.77561370947095 -0.60565079327933
 1 -9.14446566246625  7.88693943284328  0.51689131093109
 1 -7.58663812961296  7.35899229872987  1.49548793429343
 1 -12.07036114121412  3.06048637463746 -2.19926293099310
 1 -13.20142981218122  1.80687457865787 -1.81205239673967
 1 -12.40874260536054  2.87792644734473 -0.48001924592459
 1 -12.29286406480648 -1.71056050115011 -1.08391334623462
 1 -13.14495321422142 -0.13489022582258 -1.39001452895290
 1 -13.25021137373737 -1.67127181338134 -3.56897678217822
 1 -12.29080264446445 -0.25711024862486 -3.75561905760576
 1 -11.49538581788179 -1.78559342644264 -3.50660928092809
 1 -9.09557916091609 -4.76372711561156 -1.93091635573557
 1 -8.03804316911691 -5.71946195039504 -0.97967758075808
 1 -9.51237112201220 -5.33335835713571 -0.42689451205121
 1 -3.26958765466547 -3.54763801450145 -0.07567283878388
 1 -1.71978014451445 -4.38548498819882  3.66853976927693
 1 -2.82869247784778 -5.77024864246425  3.33333617251725
 1 -1.09176728822882 -5.66012528572857  2.49014296719672
 1  2.72108141224122 -1.78870070597060 -1.69642360736074
 1  2.23324080168017  0.02219649924992 -2.12309546174617
 1  4.42219312491249 -1.22994520972097  0.01618483448345
 1  3.98949791329133  1.71799050945095 -2.53802217191719
 1  5.14786019771977  2.64258451735174 -1.84405087328733
 1  5.56272357995799  1.32065317281728 -3.16402513351335
 1  6.54002606550655  1.44300830083008  0.06607925072507
 1  6.27905202460246 -0.01517955535554  0.77544726142614
 1  7.54386177087709 -1.15964519971997 -1.44022534613461
 1  7.68498093399340  0.68033124122412 -1.84523744734473
 1  8.89646169776978  1.17595548054806  0.37116474867487
 1  8.60841933063306 -0.65958146434643  0.76602446614661
 1  10.25954350575057 -0.07324478677868 -1.61384627412741
 1  9.32239722522252 -2.53594157065707 -1.71880780558056
 1  11.13515607130713 -2.36864364826483 -1.46938118201820
 1  9.73289617561756 -2.44404634663466 -0.06544598429843
 1  11.44078175907591  0.96844907510751  0.10352183968397
 1  11.41221427482748 -0.67640360166017  0.86141676327633
 1  12.85747906680668 -1.50195835703570 -0.85704337193719
 1  12.80119387188719 -0.03599290829083 -1.60303366466647
 1  13.90004144084408  0.86205876187619  0.41922926592659
 1  14.18316106920692 -0.54467407210721  1.17644416091609
 1  15.43214650315032  0.35775526052605 -1.50621497949795
 1  15.66431387428743 -2.43244353645365 -0.02460391429143
 1  15.13892694339434 -2.12827520312031 -1.71745916101610
 1  16.72161179057906 -1.69338486338634 -1.29063053255326
 1  16.01431663236324  1.22352018571857  0.80227677197720
 1  16.41298574577458 -0.38543771887189  1.22961572277228
 1  17.98726966566657 -0.49919646704670 -0.42740608100810
 1  17.63712077657766  1.03940125902590 -1.14101767756776
 1  18.36451724432443  2.03014717241724  0.96582458775878
 1  18.77638479877988  0.62606678767877  1.76592659295930
 1  20.69598451115112  0.30269641784178  0.11434849884989
 1  20.02701680828083  3.15444900680068 -0.78352194559456
 1  21.32793704580458  2.12707936073607 -1.28982034533453
 1  19.76841074547455  1.75777758855886 -1.92027899689969
 1  21.23917989318932  1.38985709480948  2.36370598779878
 1  22.12429413571357  2.22572380208021  0.98842380868087
 1  20.72372210211021  2.97178726202620  1.48158859935994
=======
12 -7.11762233523352  0.62422117021702  0.03520120752075
 6 -4.81300591859186 -1.97274845324532  0.58053458615862
 6 -4.90797072597260  2.84873332063206  1.23618998389839
 6 -9.36274100960096  3.12762825832583 -0.59362222192219
 6 -9.50187050075007 -1.79865537653765 -0.93015944504450
 7 -5.14346777137714  0.42939275737574  0.81845226352635
 6 -4.32822252835284 -0.66132595459546  0.94395241844184
 6 -2.93089209460946 -0.43178260396040  1.45534588878888
 6 -3.09102254065407  1.16821949024903  1.83432416311631
 6 -4.41971896679668  1.54619536833683  1.18700573047305
 6 -3.09728481058106  1.29472176027603  3.43138454735474
 6 -1.89503296429643 -0.62762802420242  0.23003696199620
 6 -0.43172059465947 -0.45671001820182  0.71023515281528
 6  0.47951908910891 -0.65636914981498 -0.50903628412841
 8  0.11008224832483 -0.96457186478648 -1.59362569426943
 8  1.76989880038004 -0.49225662206221 -0.19874666356636
 7 -7.01568201610161  2.56829241904190  0.33175187068707
 6 -6.06926620562056  3.31158213401340  0.87232076567657
 6 -6.38705595869587  4.73612790219022  0.82377306450645
 6 -7.65296800380038  4.85999663116312  0.22264065536554
 6 -8.10497476907691  3.40943013831383  0.04633718001800
 6 -5.42930088678868  5.78554102000200  1.17919267976798
 6 -8.46864466206621  5.95622665636564  0.04392137753775
 6 -8.39454334563456  7.10194631323132  0.79036528632863
 7 -9.12345461806181  0.64647750885089 -0.59714374807481
 6 -9.83036929662966  1.80845079817982 -0.77764408850885
 6 -11.21457055365537  1.41209954905491 -1.27902962246225
 6 -11.20096250015001  0.09487485158516 -1.30900961496150
 6 -9.89693537423742 -0.42884485878588 -0.90815583168317
 6 -12.29402822652265  2.36041661266127 -1.59285606040604
 6 -12.36051059735974 -0.77838524862486 -1.74020482898290
 6 -12.36353384178418 -1.02771518271827 -3.31681680028003
 7 -7.23304277257726 -1.41642125572557 -0.18117279427943
 6 -8.20544078387839 -2.34857002910291 -0.54792974817482
 6 -7.77609375497550 -3.66087435493549 -0.50067734503450
 6 -6.47395127922792 -3.56656099309931 -0.06103783568357
 6 -6.15114771117112 -2.17885616691669  0.15137794199420
 6 -8.57048451585158 -4.81216405880588 -0.91427990639064
 6 -5.29740421072107 -4.34426831033103  0.25351822442244
 8 -5.04637347524752 -5.55746022942294  0.23417044774477
 6 -4.08142172157216 -3.31362715251525  0.55009487478748
 6 -3.49859048994899 -3.73315853715372  1.94173454635464
 8 -3.72508410901090 -3.16821355755576  3.05504818591859
 8 -2.70003119681968 -4.76698142054205  1.78562714361436
 6 -1.99756034393439 -5.21987621672167  2.90448538403840
 6  2.71396390809081 -0.49747754235424 -1.18048924932493
 6  4.15942803180318 -0.27226540284028 -0.56967711671167
 6  5.09940342474247  0.55368163356336 -1.06625639833983
 6  5.05532395539554  1.28582123142314 -2.43483764906491
 6  6.41379571237124  0.55162701290129 -0.32657914311431
 6  7.50813835173517  0.06083573667367 -1.04761171167117
 6  8.87085895849585  0.12758762836284 -0.18320013281328
 6  10.04238486298630 -0.45702277397740 -0.85554652515252
 6  10.05115181538154 -2.01334227032703 -1.28445191019102
 6  11.39826270317032 -0.21271505230523  0.00684155275528
 6  12.69004391209121 -0.46670072117212 -0.76847687058706
 6  13.95466493489349 -0.16202740554055  0.18086515401540
 6  15.40487661256126 -0.15252898199820 -0.49445768556856
 6  15.65668733763376 -1.65647328112811 -0.97694731243124
 6  16.30323442934294  0.46285064506451  0.42517702490249
 6  17.76485107450745  0.46607800620062 -0.15602141674167
 6  18.80173054255426  1.16674489148915  0.74501493449345
 6  20.18120678987899  1.20002033553355  0.16555131833183
 6  20.31828318211821  1.89924822202220 -1.07758875157516
 6  21.17612854365437  1.78807174347435  1.32151751515152
 1 -4.12263374787479  3.47727324872487  1.66819140604060
 1 -9.99927031973197  3.99972080708071 -0.92969836133613
 1 -10.41924521392139 -2.36776611741174 -1.21056770897090
 1 -2.71324778167817 -1.07954626852685  2.28650934213421
 1 -2.43211681688169  1.67983156575658  1.35413606400640
 1 -2.16063052055206  0.96205665856586  3.63695740924092
 1 -3.04585964596460  2.22521657915792  3.87196936233623
 1 -3.93471691439144  0.70860554455446  3.90344275707571
 1 -2.06502898779878 -1.67041700210021 -0.44751866106611
 1 -2.13280495299530  0.07589483988399 -0.40691073067307
 1 -0.39456297369737  0.67472208610861  1.10497089618962
 1 -0.13466126812681 -1.12100661586159  1.68875283048305
 1 -5.52218099349935  6.67951659575958  0.50229593879388
 1 -5.56100308970897  6.02776613971397  2.15650194729473
 1 -4.40396435243524  5.47892905930593  0.96116929252925
 1 -9.16690874337434  6.08079422752275 -0.65578580678068
 1 -9.05140635653565  7.94857559645965  0.53388301010101
 1 -7.83352281808181  7.36929332883288  1.58102648814881
 1 -11.97518162326233  3.39191951795179 -2.22509551425143
 1 -13.18660833003300  1.74187807900790 -2.14642583408341
 1 -12.51656338743874  2.86394504920492 -0.50719196319632
 1 -12.29479425782578 -1.74505395049505 -1.24434938983898
 1 -13.38130684958496 -0.40905764256426 -1.46351187868787
 1 -13.19629598219822 -1.74492917911791 -3.44063394789479
 1 -12.39736330053005 -0.11553609120912 -3.76663015871587
 1 -11.32632891219122 -1.49330419751975 -3.74837345734573
 1 -8.70497010001000 -4.81178192109211 -2.07514077817782
 1 -8.11758112291229 -5.86230623482348 -0.58021763476348
 1 -9.60065995089509 -4.81586660796080 -0.55658748134814
 1 -3.63209390529053 -3.49963321402140 -0.45525079657966
 1 -1.41353952045205 -4.26394283398340  3.22057497279728
 1 -2.65868547714771 -5.43241485908591  3.70991383028303
 1 -1.28855696719672 -5.95630490369037  2.55611956485649
 1  2.80569987408741 -1.52180401630163 -1.65820978597860
 1  2.47683516111611  0.14658893849385 -2.04758791099110
 1  4.27963886948695 -0.77786000120012  0.33892710871087
 1  3.89759872337234  1.49998870927093 -2.82901127082708
 1  5.35680109180918  2.42508276717672 -2.37073354155416
 1  5.77048435603560  0.70344145164516 -3.11785051605161
 1  6.69051111401140  1.49884388438844 -0.03388074527453
 1  6.17413153255326 -0.09130716811681  0.57233695039504
 1  7.32452983768377 -1.00291952715272 -1.07279860346035
 1  7.70625306120612  0.42362557065707 -2.22651557515752
 1  8.86694874647465  1.19305719071907 -0.20204257205721
 1  8.55355384408441 -0.10443594979498  0.93892175587559
 1  10.17189474087409  0.06057859555956 -1.87196208570857
 1  9.16675166066607 -2.12358033453345 -1.82943886868687
 1  10.95094765046505 -2.33553033693369 -1.57162140604060
 1  9.72471535753575 -2.53463540554055 -0.39719915961596
 1  11.32503018391839  0.78058028822882  0.47610909840984
 1  11.39325237863786 -0.91444740604060  0.98927954955496
 1  12.71792511141114 -1.68355651685169 -1.17956562416242
 1  12.74709846234623  0.17956864786479 -1.54618798009801
 1  13.69144058075808  0.87274983098310  0.55027237023702
 1  14.10829358245825 -0.83507311201120  0.96159267576758
 1  15.30264355285528  0.47547703270327 -1.58988334633463
 1  15.87911535443545 -2.22208250035003 -0.11725317921792
 1  14.77633068376838 -2.07688006360636 -1.43371078617862
 1  16.63539316871687 -1.54361988688869 -1.56653812331233
 1  15.86236143684368  1.46570440414041  0.42576912121212
 1  16.43161760896090  0.07029785468547  1.27573033423342
 1  18.00471140984098 -0.66249279667967 -0.20752409280928
 1  17.93780084458446  0.87432475137514 -1.17843141894189
 1  18.35894668726873  2.07541169886989  0.91232923822382
 1  18.87560472077208  0.65273945494549  1.71086108640864
 1  20.58143305600560  0.09588573677368  0.35199226322632
 1  20.01150525712571  2.97107066896690 -0.84709830323032
 1  21.31280553265326  2.01017767056706 -1.56968833213321
 1  19.86679058345835  1.53339515031503 -1.91130809980998
 1  21.20241621682168  0.92450055915592  2.19112873007301
 1  22.34534624092409  1.54215544524452  1.05126009230923
 1  21.10247997789779  2.82403248654866  1.55738617911791
>>>>>>> 8e03b5b5abfc0030b3aa597dc0de36371bfbd096

