%nproc=4
%Mem=2GB
# td=(NStates=1) CAM-B3LYP/6-31G(d,p) 

TD

0 1
12 -7.18382895589559  0.56833558165817  0.02924061146115
 6 -4.93652827082708 -1.89634081248125  0.45944247694769
 6 -4.78221815071507  2.79931837913791  1.14517088198820
 6 -9.42774751025103  3.19546504200420 -0.39576243594359
 6 -9.63288360206021 -1.68145365636564 -0.84917134623462
 7 -5.22242566716672  0.42847266536654  0.76758717701770
 6 -4.45178488458846 -0.68511833383338  0.66179420262026
 6 -2.98014702010201 -0.46612603830383  1.15209556375638
 6 -3.02900633903390  0.98924159245925  1.62283301400140
 6 -4.43482047694769  1.51083183198320  1.19389641954195
 6 -2.79609469156916  1.15239752785279  3.15682709160916
 6 -1.93830729172917 -0.69065432683268 -0.01354739643964
 6 -0.51196861946195 -0.54807915511551  0.44027815711571
 6  0.49993113031303 -0.61268478137814 -0.73116849734973
 8  0.21136237633763 -0.93842925052505 -1.86094242594259
 8  1.79912172267227 -0.54729212561256 -0.25038182708271
 7 -7.08544899279928  2.61524711451145  0.19368806430643
 6 -6.03406268526853  3.38219919571957  0.78076160976098
 6 -6.38955620872087  4.75960024942494  0.88254894209421
 6 -7.69319202620262  4.83367399889989  0.43404179547955
 6 -8.17788205980598  3.44753394869487  0.08655120142014
 6 -5.50301825852585  5.82078454435444  1.18668342884288
 6 -8.62317011461146  5.96820785448545  0.26787377277728
 6 -8.34955884718472  7.23972009060906  0.76097234703470
 7 -9.19036130873087  0.72996585768577 -0.58655268896890
 6 -9.82675893559356  1.80943089618962 -0.79446577067707
 6 -11.23971306790679  1.46664500360036 -1.10306202570257
 6 -11.27140954485449  0.13695906000600 -1.23873258725873
 6 -10.01652733343334 -0.39248122242224 -0.86377139323932
 6 -12.24374319801980  2.60439101010101 -1.47533430823082
 6 -12.39807435373537 -0.73963137323732 -1.67049785828583
 6 -12.30300778917892 -1.22839525072507 -3.06658177677768
 7 -7.35518498679868 -1.43328294189419 -0.12845752275228
 6 -8.36987722752275 -2.21851702380238 -0.45911086628663
 6 -7.97205335093509 -3.60604887238724 -0.43105038233823
 6 -6.49268315241524 -3.60855519251925 -0.15462719461946
 6 -6.22483507990799 -2.24021230253025  0.06733953815382
 6 -8.84904237163716 -4.83185602800280 -0.67388586698670
 6 -5.33313778407841 -4.37924180768077  0.22896576917692
 8 -5.25982482038204 -5.57738222162216  0.25885291599160
 6 -4.13029660906091 -3.27453324312431  0.52858272357236
 6 -3.60543117401740 -3.67665288658866  1.84692506540654
 8 -3.89196079667967 -3.13291002720272  2.88318099919992
 8 -2.72836403010301 -4.78741346374637  1.80735931683168
 6 -2.17485807370737 -5.15371960106011  3.06328126362636
 6  2.82608512021202 -0.74118191279128 -1.17468866926693
 6  4.13348543754375 -0.53415159145915 -0.60436058505851
 6  5.09720320472047  0.28325459085909 -1.11851162386239
 6  4.93944236723672  1.15420807010701 -2.24472863816382
 6  6.43597793059306  0.29929177937794 -0.38391487668767
 6  7.71125866376638 -0.28821916881688 -1.01174812531253
 6  8.98088996159616 -0.04633976437644 -0.13897571037104
 6  10.24993561806181 -0.52582965466547 -0.80806177667767
 6  10.26963366356636 -1.98756969306931 -1.16113957895790
 6  11.50010288718872 -0.20152393319332  0.09622049064906
 6  12.82305721342134 -0.45648970007001 -0.53957398029803
 6  14.05729519791979  0.08669746694669  0.18460552805281
 6  15.44729085398540 -0.04902863196320 -0.45858409820982
 6  15.83471514041404 -1.45577321112111 -0.83913353105311
 6  16.52597670357036  0.62298665866587  0.43314782198220
 6  17.92049663906391  0.82395379377938 -0.18305412001200
 6  18.94861523102310  1.28092630963096  0.81167160016002
 6  20.37434610381038  1.21525185868587  0.24837960116012
 6  20.47453880768077  1.96687498469847 -1.10733172587259
 6  21.25843677447745  1.84899783608361  1.23906927032703
 1 -4.11857334183418  3.58846436783678  1.55672025892589
 1 -10.12615300800080  3.90128096309631 -0.48513390489049
 1 -10.52449573897390 -2.33856319711971 -1.03535018721872
 1 -2.79799625652565 -1.11721003490349  1.85871656285629
 1 -2.24276788198820  1.53306688928893  1.23502415281528
 1 -1.87365182268227  0.92238269116912  3.61880559405941
 1 -2.71245630563056  2.25015907340734  3.48775094049405
 1 -3.69102254495450  0.64626931093109  3.73483589638964
 1 -1.98197068196820 -1.69788974937494 -0.39508341754175
 1 -2.13919559205921  0.13568081848185 -0.86875691529153
 1 -0.48119163656366  0.49095370927093  0.83822422152215
 1 -0.35407320932093 -1.51371588678868  1.12743669886989
 1 -5.59849862526253  6.73075171927193  0.74475018421842
 1 -5.57133412281228  6.07648101120112  2.28198449554956
 1 -4.38333228922892  5.72724389078908  0.91157433303330
 1 -9.66158821132113  5.99870601870187 -0.29311954015401
 1 -9.08822003790379  8.11517225612561  0.55673529532953
 1 -7.59271873767377  7.62986938643864  1.55060344584458
 1 -12.01947605270527  2.91220154615462 -2.54346735143514
 1 -13.25509517871787  2.16869076027603 -1.66865805730573
 1 -12.15275700680068  3.51075973067307 -0.68794003800380
 1 -12.57083186158616 -1.66871631673167 -1.20099505440544
 1 -13.41891060996100 -0.15710244704470 -1.69847537503750
 1 -13.08167452005201 -1.68478316451645 -3.34066395089509
 1 -12.25615918011801 -0.43778831643164 -3.88805230093009
 1 -11.30591687098710 -1.69081394849485 -3.34300292029203
 1 -9.34148375137514 -4.58429917281728 -1.55896916101610
 1 -7.97060642544254 -5.54141414561456 -0.93191280428043
 1 -9.50597048194819 -4.95332035333533  0.28704688208821
 1 -3.27266796269627 -3.49187243794379 -0.19816508800880
 1 -1.64753291979198 -4.28437487718772  3.57619053435344
 1 -3.03704331293129 -5.37364898249825  3.79360219911991
 1 -1.77015512701270 -6.10072934613461  2.71219517241724
 1  2.60355966006601 -1.77874971087109 -1.69521348634864
 1  2.61227870547055  0.01126540614061 -2.05932908510851
 1  4.28948985458546 -1.28275049024903  0.37095031103110
 1  4.03000196369637  1.03201191159116 -2.94104247394740
 1  4.89262467416742  2.20762102100210 -2.03709017721772
 1  5.75552285988599  0.86328743624362 -2.99441817281728
 1  6.89577164006401  1.35833983398340 -0.24003136033603
 1  6.28270238963896 -0.19105714311431  0.57699741644164
 1  7.49957734243424 -1.30297953315332 -1.20637196079608
 1  7.82030446634664  0.11251445954596 -1.86658958255826
 1  8.86053810541054  1.02655054005401  0.03049068126813
 1  8.77577606630663 -0.56774228042804  0.77345520922092
 1  10.44101165256526 -0.00275773807381 -1.62130702020202
 1  9.43919890539054 -2.28693667016702 -2.00194611941194
 1  11.40564312001200 -2.45646243014301 -1.31089533343334
 1  9.91661454745475 -2.66408835083508 -0.18398783848385
 1  11.33042072297230  0.80413264346435  0.54013550105010
 1  11.37348040144014 -0.85679164046405  1.06026664826483
 1  13.03512683158316 -1.58465662686269 -0.82293996159616
 1  12.87888164066407 -0.02316162516252 -1.61281464276428
 1  13.78142957965797  1.11490404640464  0.58258560156016
 1  14.13833658675868 -0.35383498819882  1.23408992549255
 1  15.37329061756176  0.50540002500250 -1.54227858585859
 1  16.09326676957696 -2.10790108220822 -0.02350380428043
 1  14.80268331903190 -1.77337971357136 -1.22591000610061
 1  16.79000863026303 -1.65714123902390 -1.35886735623562
 1  16.11558675937594  1.63484131783178  0.69423596789679
 1  16.53578802600260  0.21953277817782  1.49996275747575
 1  18.44198513721372 -0.14111065846585 -0.55348868926893
 1  17.80871793629363  1.13939125802580 -1.22909648544854
 1  18.65819661226123  2.31729588728873  0.94019202450245
 1  19.07845500580058  0.58018219921992  1.68063806410641
 1  20.53564847754776  0.08178432663266  0.22307937193719
 1  20.33932803940394  3.06921048294830 -0.88807240064006
 1  21.52534678677868  1.82867952075208 -1.66631799509951
 1  19.70467437183719  1.76594840564056 -1.77361433043304
 1  21.35883185838584  1.15835394449445  2.26995661286129
 1  22.19255096139614  1.82271350105011  0.82040700700070
 1  21.13163289318932  2.92801288458846  1.60503094359436

