%nproc=4
%Mem=2GB
# td=(NStates=1) CAM-B3LYP/6-31G(d,p) 

TD

0 1
12 -7.15056562956296  0.62141088918892  0.17363505090509
 6 -4.88343296129613 -1.87673885228523  0.59397593029303
 6 -4.80102003090309  2.90691913921392  1.16088245314531
 6 -9.48497323282328  3.07137263276328 -0.37842070177018
 6 -9.47782809650965 -1.82973848484848 -1.03318974807481
 7 -5.05576900150015  0.44243406150615  0.75587600590059
 6 -4.26617632373237 -0.69356917891789  0.78317634083408
 6 -2.89739874527453 -0.34002342804280  1.18543889808981
 6 -2.99683312171217  1.08662133043304  1.74390512121212
 6 -4.36991398629863  1.54892564136414  1.17896492639264
 6 -2.98263334543454  1.11064335243524  3.26751816071607
 6 -1.91327478847885 -0.43956921832183  0.01785574387439
 6 -0.46786420902090 -0.24254860206021  0.37747187648765
 6  0.59792092929293 -0.49710322322232 -0.72442782328233
 8  0.25225646574657 -0.97079248684868 -1.74421075277528
 8  1.76342815331533 -0.30068746514651 -0.28950573947395
 7 -7.17118756665667  2.65908149794980  0.38449714521452
 6 -5.98050732973297  3.33394437023702  0.82643617721772
 6 -6.36844409750975  4.70792508190819  0.79393008020802
 6 -7.78230093709371  4.77497812931293  0.37124551585159
 6 -8.17773204480448  3.51943113841384  0.05305785208521
 6 -5.52896085278528  5.83211567746775  1.14871963246325
 6 -8.58238603620362  5.94066510021002  0.11627861326133
 6 -8.54320821212121  7.22937905650565  0.64488073787379
 7 -9.09465173777378  0.56558942004200 -0.57985201890189
 6 -9.89789604930493  1.77374732783278 -0.65096142024202
 6 -11.18790788738874  1.40554889398940 -1.10275199469947
 6 -11.19721212511251  0.08964432853285 -1.29917863186319
 6 -9.80791647234723 -0.45531750605061 -0.97946296239624
 6 -12.21870069376938  2.37175774677468 -1.15983275807581
 6 -12.36963150945095 -0.71834924502450 -1.86141695019502
 6 -12.20836832523252 -1.08528093929393 -3.29333445204520
 7 -7.19566903520352 -1.44869448304830 -0.23608828582858
 6 -8.24503474327433 -2.30215538763876 -0.55118007320732
 6 -7.74265041064106 -3.68153642114211 -0.63354063136314
 6 -6.42377626172617 -3.60002433943394 -0.05153688558856
 6 -6.19426202260226 -2.22391067236724  0.14259706390639
 6 -8.55277274467447 -4.83203604600460 -0.91908038643864
 6 -5.20802527282728 -4.33187707120712  0.15618849144914
 8 -5.09729856775678 -5.59666414981498  0.14610164086409
 6 -4.16681026042604 -3.28472426222622  0.65166503180318
 6 -3.64785541644164 -3.66661188248825  2.03942431533153
 8 -3.86232783338334 -3.07849458565857  3.14314699579958
 8 -2.82320351405140 -4.74034875727573  1.94413299419942
 6 -2.16079666756676 -5.11861609070907  3.19965490099010
 6  2.78528103980398 -0.50768856345635 -1.23070427082708
 6  4.16105819481948 -0.37405558185819 -0.69546969596960
 6  5.12739622402240  0.46543280868087 -1.02987275997600
 6  5.07084550755075  1.43965661496150 -2.19918408370837
 6  6.44158849164917  0.50238208840884 -0.21482796799680
 6  7.55086262416242 -0.16104645154515 -1.03845079557956
 6  8.81958383098310 -0.22059719011901 -0.19660147294729
 6  10.13230385488549 -0.74303137483748 -0.86855782628263
 6  10.03620032023202 -2.18259919601960 -1.31036450145015
 6  11.40197307420742 -0.51475525632563 -0.08554768616862
 6  12.73579848754875 -0.56100015111511 -0.81373139603960
 6  13.94195366376638 -0.25743694649465  0.10865793329333
 6  15.34179030393039 -0.30429415851585 -0.44039227902790
 6  15.68153982288229 -1.65232286608661 -0.79922954065407
 6  16.41697580348035  0.33454781478148  0.45538004520452
 6  17.79622421182118  0.54156555495550 -0.12663847844784
 6  18.75395576507651  1.42495071207121  0.68775920892089
 6  20.25858452765276  1.30565089858986  0.25190995419542
 6  20.37150850465046  2.21913021022102 -1.02360335303530
 6  21.10253118391839  1.94451738803880  1.29702506590659
 1 -4.01125260976098  3.70170569196920  1.54188877577758
 1 -10.15155554825482  3.93715455045505 -0.52997838933893
 1 -10.22623591299130 -2.64482382318232 -1.20264691689169
 1 -2.51351780868087 -1.02652096599660  1.87895858705871
 1 -2.22725633083308  1.84026760936094  1.52037268766877
 1 -1.79333379087909  0.96862731563156  3.50486419991999
 1 -3.42885794579458  1.98985304280428  3.64423658905891
 1 -3.57914135683568  0.22598728272827  3.60284269706971
 1 -2.09562204710471 -1.45439539993999 -0.41495540474047
 1 -2.21564323682368  0.35915316571657 -0.77735777537754
 1 -0.12701621902190  0.59387400130013  0.75235563466347
 1 -0.04763256525653 -0.79404391959196  1.39639359455946
 1 -5.85151392679268  6.82490113421342  0.53535924512451
 1 -5.71535852525253  6.22258562166217  2.21965826292629
 1 -4.35584954095410  5.48919008540854  0.86749992559256
 1 -9.33949600210021  5.83650979907991 -0.54524475267527
 1 -9.29371058695870  7.85935667456746  0.44396401820182
 1 -7.81297076287629  7.52843924342434  1.47050543604360
 1 -12.07589169426943  3.15472579857986 -1.98776178087809
 1 -13.21992166136614  1.79230312151215 -1.30389158065807
 1 -12.65343707480748  2.70919957465747 -0.22548379237924
 1 -12.65839061746175 -1.52506195129513 -1.23751870677068
 1 -13.31845056395639  0.03360662386239 -1.63200872837284
 1 -13.21523787638764 -1.39471415761576 -3.81312119661966
 1 -12.10233379757976 -0.13902844044404 -3.95600909660966
 1 -11.46699297859786 -1.85777064416442 -3.41255987598760
 1 -8.58484808780878 -4.73984472737274 -2.11048431253125
 1 -7.86323568836884 -5.73852385658566 -0.61393100610061
 1 -9.45601548644864 -4.99674469576958 -0.38278010061006
 1 -3.35929662556256 -3.37525077577758 -0.04105937743774
 1 -1.80342850935094 -4.21827826752675  3.77079999529953
 1 -3.00979058765877 -5.76064768236824  4.03597643654365
 1 -1.26039415091509 -5.81951122432243  2.98062201510151
 1  2.64193349744974 -1.69370120602060 -1.48133209820982
 1  2.79582706030603 -0.00554627502750 -2.06908006020602
 1  4.25979688528853 -1.12629484468447  0.14076729272927
 1  3.92012097559756  1.21937064746475 -2.57887625732573
 1  5.33186859855986  2.40762102100210 -2.01597806600660
 1  5.82598990659066  1.02925403290329 -2.96262499349935
 1  6.97120918381838  1.52109610961096  0.25466810961096
 1  6.51518563796380 -0.12167020442044  0.62072178887889
 1  7.23302068676868 -1.16958619381938 -1.41703302690269
 1  7.77909034493449  0.32314552265227 -1.99389231283128
 1  9.11866391799180  0.81483936893689  0.15080271247125
 1  8.67049553825382 -0.82042754895490  0.77642550625062
 1  10.24781233263326 -0.04469193149315 -1.72805769526953
 1  9.01245623112311 -2.23643161966197 -1.87546347114711
 1  10.77597015271527 -2.37642442634263 -2.07171141504150
 1  10.00312319831983 -2.87935987798780 -0.58475791549155
 1  11.42070975187519  0.60381261146115  0.28819030653065
 1  11.54059711311131 -1.20981694299430  0.68426904850485
 1  12.94462778167817 -1.55608376957696 -1.19298696629663
 1  12.85275902840284  0.08052874387439 -1.83333669496950
 1  13.74512594929493  0.74638719471947  0.43674101710171
 1  13.70128288138814 -1.01099070377038  1.06394291079108
 1  15.29122241074107  0.62706219121912 -1.21669602760276
 1  16.04778222112211 -2.29618991109111  0.11006955305531
 1  14.94706775747575 -1.93799617521752 -1.44837225232523
 1  16.68227785718572 -1.88516404130413 -1.54243571307131
 1  15.96011121182118  1.24478231193119  0.87220376467647
 1  16.62326677387739 -0.26389556465647  1.36678944014401
 1  18.19677061576158 -0.59598614601460 -0.14189753015302
 1  17.77667473197320  0.93299061796180 -1.04233780958096
 1  18.49463025562556  2.53563772147215  0.64027203250325
 1  18.72969012931293  1.13833801480148  1.84816481678168
 1  20.46952186488649  0.19779592779278  0.17134419841984
 1  20.10620472707270  3.16560012191219 -0.99938353175317
 1  21.43783803590359  2.10657731053105 -1.43419478277828
 1  20.01285518991899  1.53932574337434 -2.03778074707471
 1  21.09001497669767  1.42796090519052  2.28425804300430
 1  22.19403110941094  2.02781401110111  1.06511147744774
 1  20.94532426232623  3.05176525982598  1.72486292679268

