%nproc=4
%Mem=2GB
# td=(NStates=1) CAM-B3LYP/6-31G(d,p) 

TD

0 1
12 -7.15772634563456  0.51446019411941  0.05182286968697
 6 -4.85675029302930 -1.97263844224422  0.55164169686969
 6 -4.86690661956196  2.92168061536154  1.08150451535154
 6 -9.41059579507951  3.07785328082808 -0.34557741744174
 6 -9.51703201690169 -1.81033654465447 -0.93964039313931
 7 -5.17657108170817  0.49290910901090  0.71159157745775
 6 -4.34188389448945 -0.66270609260926  0.80408843204320
 6 -2.96680568596860 -0.31321074677468  1.33370372457246
 6 -3.05883932233223  1.11957462576258  1.72615334603460
 6 -4.44753174807481  1.57560830963096  1.15626265616562
 6 -3.10782586468647  1.24489677777778  3.30035144404440
 6 -1.99843330433043 -0.52273753515352  0.20543450175017
 6 -0.50959838243824 -0.29756410361036  0.57654178347835
 6  0.42921405860586 -0.62893640654065 -0.51877725822582
 8  0.14657589768977 -0.83984939253925 -1.67360369206921
 8  1.74087589808981 -0.38456585298530 -0.15258204710471
 7 -7.06169661756176  2.59783537333733  0.37538623412341
 6 -6.06736601560156  3.36019699549955  0.72635616921692
 6 -6.48509576267627  4.77426171557156  0.75229591679168
 6 -7.87264997199720  4.86694732623262  0.35135352665267
 6 -8.12529680128013  3.45780497579758 -0.00134758845885
 6 -5.42552050875087  5.81999446534653  1.24181894239424
 6 -8.58409620722072  6.03867490119012  0.18425541094109
 6 -8.52293618491849  7.15102122072207  0.90739698949895
 7 -9.12883515611561  0.58398125922592 -0.69511354505451
 6 -9.87756401610161  1.74747470057006 -0.73956028012801
 6 -11.06892598919892  1.41992033113311 -1.18730044954495
 6 -11.27852025592559  0.05639100320032 -1.37599631363136
 6 -9.96901258195819 -0.45050702500250 -1.00717573367337
 6 -12.25860468416842  2.44257482848285 -1.58435521032103
 6 -12.45264981128113 -0.70449785988599 -1.86601741024102
 6 -12.39303679207921 -1.05038744994499 -3.32639775837584
 7 -7.22070153845385 -1.43945355895590 -0.09041371837184
 6 -8.26896713651365 -2.26311148324832 -0.62478743394339
 6 -7.76554269986999 -3.69143741124112 -0.49036631393139
 6 -6.44732861696170 -3.61627596459646 -0.08638036993699
 6 -6.21782437883788 -2.22159044034403  0.15307811201120
 6 -8.55758322572257 -4.97954079647965 -0.93048152655266
 6 -5.25649011931193 -4.27346122962296  0.24185705830583
 8 -5.12951178907891 -5.53390787418742  0.25436246694669
 6 -4.19176275567557 -3.29788557835784  0.69345921122112
 6 -3.63146377727773 -3.66804202550255  2.04436480938094
 8 -3.73613521412141 -3.03050978717872  3.05340802190219
 8 -2.83748494219422 -4.78229295169517  1.99604818571857
 6 -2.32544313221322 -5.28113234233423  3.30420535603560
 6  2.82167467916792 -0.58374616921692 -1.15866706710671
 6  4.20156224522452 -0.43704188048805 -0.60103025202520
 6  5.19336282068207  0.39563582898290 -1.05385515821582
 6  5.04986340934093  1.27956060536054 -2.15742990829083
 6  6.50652498529853  0.33744559475948 -0.25584206940694
 6  7.68887642554255 -0.02827317421742 -1.03781073157316
 6  8.95920779337934 -0.17426255665567 -0.22620443324332
 6  10.34201482598260 -0.53734080578058 -1.04901587208721
 6  10.24441114131413 -1.84261519761976 -1.63463692869287
 6  11.45576845374537 -0.36793057385739 -0.03897302870287
 6  12.81419632733273 -0.58335238633863 -0.77738776167617
 6  14.02897236563656 -0.28755995879588  0.19842691019102
 6  15.45532165706571 -0.21310503960396 -0.44137237703770
 6  15.88628029692969 -1.61070870467047 -0.92945256295630
 6  16.44390849674967  0.49052341234123  0.36585109230923
 6  17.82715730513051  0.50168156655666 -0.18354416901690
 6  18.81400176967697  1.25522373937394  0.77992842584258
 6  20.19096776597660  1.35817615111511  0.21937670087009
 6  20.43386474027403  2.08056635383538 -0.99970096279628
 6  21.21211214201420  1.81637457375738  1.25364072747275
 1 -4.10122160666067  3.62830835223522  1.46818140504050
 1 -10.15210560326033  3.88430926592659 -0.56910230173017
 1 -10.20756404580458 -2.49079842064206 -1.20777742994299
 1 -2.61416787368737 -0.91575988988899  2.15407609880988
 1 -2.20950455565557  1.89795337793779  1.33913456385638
 1 -2.05128958645865  0.70685113801380  3.77112082558256
 1 -3.27488254825483  2.10312436993699  3.86804897029703
 1 -4.03664710741074  0.60260494449445  3.62627504030403
 1 -1.98132061696170 -1.37299726012601 -0.31988589778978
 1 -2.29225089758976  0.25562281268127 -0.66541658125813
 1 -0.21392490989099  0.64225883978398  0.95241564066407
 1 -0.15618342034203 -0.89722423762376  1.56692064726473
 1 -5.71648042344234  6.95155379947995  0.88308401760176
 1 -5.62832982238224  5.81567493059306  2.29274557165717
 1 -4.36997095309531  5.59870103650365  1.10184335993599
 1 -9.35778783128313  6.01170731883188 -0.48403863206321
 1 -9.26920813671367  7.83690442934294  0.58135775757576
 1 -7.68299776557656  7.33674007350735  1.68995738123812
 1 -11.95464957005701  2.93146347234724 -2.63149615431543
 1 -13.24597426662666  1.78627251845185 -1.74385557705771
 1 -12.23490522162216  3.24815347004700 -0.75581682568257
 1 -12.47706248464847 -1.75260470557056 -1.38110306520652
 1 -13.36878559745974  0.01725498869887 -1.58974450195020
 1 -13.25418177077708 -1.54495918211821 -3.66232611711171
 1 -12.28806237043704 -0.12761729932993 -3.90580407610761
 1 -11.41235751505151 -1.49841470857086 -3.57569618961896
 1 -9.00460006300630 -4.89720046294630 -1.95799906400640
 1 -8.02452181698170 -5.77996800100010 -0.90951056405641
 1 -9.39948983388339 -5.16516153745375 -0.33121494409441
 1 -3.17835853175317 -3.43690694139414  0.01675640414041
 1 -1.40864903140314 -4.58971541124112  3.73698661396140
 1 -3.27976758535854 -5.51357297489749  3.69900273917392
 1 -1.84172228372837 -6.34939421262126  2.91850580348035
 1  2.57539684378438 -1.44044588048805 -1.77370133513351
 1  2.53141061866187  0.28865314491449 -1.97284043624362
 1  4.44274518011801 -1.16883909910991  0.09541275727573
 1  3.83798276177618  1.39571828222822 -2.51153952365237
 1  5.15480089178918  2.27072733163316 -2.12423889208921
 1  5.51867917551755  0.92849395689569 -3.09737846884688
 1  6.77859992289229  1.48651265126513  0.08004064686469
 1  6.39801392079208 -0.32498053545355  0.64867458415842
 1  7.52794017871787 -1.07210644584458 -1.61155247884789
 1  7.81526396229623  0.75521872997300 -1.84096702030203
 1  9.06759881148115  0.80885877087709  0.22946057825783
 1  8.70758924762476 -1.02695820202020  0.72246010971097
 1  10.30393794519452  0.18457099479948 -1.84223911341134
 1  9.23218820432043 -1.94716269276928 -2.00158608340834
 1  11.02584514021402 -2.04805158905891 -2.34487873177318
 1  10.22631551755176 -2.45978792079208 -0.72049148884888
 1  11.61302898379838  0.70257248744875  0.47806929442944
 1  11.22663571697170 -1.11664762606261  0.80689131073107
 1  12.68172149104910 -1.49704786598660 -1.24137180478048
 1  12.91535528802880  0.04926561756176 -1.73191655295530
 1  13.76988842554255  0.60642319831983  0.85641298429843
 1  14.09746249934994 -1.03923352805281  1.09393591009101
 1  15.18928221672167  0.47089657465747 -1.37167152515252
 1  16.11828927182718 -2.28671896399640 -0.07707916181618
 1  15.18693174387439 -2.13612598819882 -1.43665108020802
 1  16.74062369176918 -1.76037156205621 -1.63181465096510
 1  16.24112931363136  1.40557839153915  0.85025156945695
 1  16.40624507170717 -0.29574874997500  1.28460122132213
 1  18.16032697139714 -0.35448199559956 -0.54586792719272
 1  17.92001906640664  1.08543586248625 -1.05540911671167
 1  18.57452824542454  2.28299245694569  1.02083008830883
 1  18.89787694799480  0.78679286028603  1.86638663896390
 1  20.47334224692469  0.31612776097610 -0.05174811081108
 1  20.30755486208621  3.16333989588959 -0.93971756515652
 1  21.36486073817382  1.95633228602860 -1.48719008230823
 1  19.81672557695770  1.66313812461246 -1.86810377937794
 1  20.93397937313732  1.38521663076308  2.30185980318032
 1  22.25247695399540  1.65095632533253  0.97187215351535
 1  21.20792052195220  3.09236932023202  1.43257369786979

