%nproc=4
%Mem=3GB
# td=(NStates=1) iop(3/107=0140000000,3/108=0140000000) CAM-B3LYP/6-31G(d,p) 

TD

0 1
12 -7.09542423412341  0.66969535303530  0.15255162516252
 6 -4.87771658815882 -2.00510774137414  0.60324572697270
 6 -4.75549157975798  2.80762948084808  1.18243834903490
 6 -9.33048981348135  3.15431298429843 -0.41230370567057
 6 -9.57644374237424 -1.73315508120812 -0.86922372727273
 7 -5.04731176237624  0.41842793339334  0.76401422542254
 6 -4.29336158345835 -0.75224636783678  0.89204709940994
 6 -2.82843906450645 -0.48526692469247  1.12577824692469
 6 -2.95708893579358  1.01080978257826  1.57923420272027
 6 -4.33758399309931  1.44774942604260  1.17876227012701
 6 -2.71040722152215  1.27379019831983  3.09903521812181
 6 -2.03347907760776 -0.80610659985999 -0.03755994569457
 6 -0.51297700690069 -0.57340058805881  0.44647803010301
 6  0.48736065926593 -0.79348597049705 -0.76356614671467
 8  0.18385860266027 -1.00876465416542 -1.89992738583858
 8  1.72225082348235 -0.56301624002400 -0.33137852545255
 7 -7.09483712711271  2.62788599849985  0.40757168126813
 6 -6.02805294909491  3.36248001540154  0.81663753985399
 6 -6.38957386578658  4.73788065166517  0.83912217091709
 6 -7.73082786808681  4.85434723992399  0.45744187058706
 6 -8.13912343984398  3.55480241904190  0.23582158075808
 6 -5.53035506940694  5.93632310601060  1.22898305350535
 6 -8.50449045704570  6.03667393699370  0.36048666116612
 6 -8.35595400540054  7.21251040074007  0.93684774407441
 7 -9.10898994009401  0.74515150955096 -0.54534110801080
 6 -9.86439392569257  1.90873419771977 -0.73860667416742
 6 -11.21111506420642  1.47167661216122 -1.27502236193619
 6 -11.22922240944094  0.16052359815982 -1.34992502080208
 6 -9.89537714131413 -0.44041423482348 -0.92522472377238
 6 -12.28306924462446  2.53693893529353 -1.49670912361236
 6 -12.22540633353335 -0.72446857065707 -1.88201753235324
 6 -12.02382429132913 -1.10589078137814 -3.41522217341734
 7 -7.18974193659366 -1.43545838153815 -0.20302297739774
 6 -8.23865819211921 -2.22765131063106 -0.53665524542454
 6 -7.86546858665867 -3.59870042144214 -0.42237253705371
 6 -6.51598938943894 -3.56669965206521  0.04957287558756
 6 -6.16479021072107 -2.24405236103610  0.23888572397240
 6 -8.75787812731273 -4.85431152955296 -0.79030241334133
 6 -5.37104256715672 -4.31208477187719  0.27766274037404
 8 -5.34948594089409 -5.54249110611061  0.30556650525053
 6 -4.17347184978498 -3.26369381678168  0.61411973357336
 6 -3.58872304910491 -3.71585952865287  1.99046501500150
 8 -3.78214099749975 -3.15824318221822  3.03431678987899
 8 -2.71386673947395 -4.74298291679168  1.81159019651965
 6 -2.21854081108111 -5.22051725762576  3.08377577797780
 6  2.69809613001300 -0.65032332123212 -1.42839635683568
 6  4.06839772497250 -0.43428869676968 -0.76525908870887
 6  5.10008549984999  0.39192572057206 -1.10215309230923
 6  5.05608933453345  1.21782945824582 -2.38073220822082
 6  6.31642792149215  0.46512712871287 -0.32308283268327
 6  7.53342479507951 -0.06323487148715 -1.02208253695370
 6  8.84139185078508 -0.01532334843484 -0.11752785518552
 6  10.16687214781478 -0.44590625382538 -0.86895261526153
 6  10.10332360896090 -1.86897477737774 -1.30907787378738
 6  11.39808447224722 -0.25780067116712  0.06212825032503
 6  12.72523025852585 -0.46976701020102 -0.68092559765977
 6  13.98286955875587 -0.03745946024602  0.19510592219222
 6  15.42639863086309 -0.29247833143314 -0.46507215971597
 6  15.66929320032003 -1.74925331363136 -0.74613643994399
 6  16.45350234293429  0.40888740604060  0.33988872357236
 6  17.80891847954796  0.52974670427043 -0.14275080208021
 6  18.80531094969497  1.26649472797280  0.74030728742874
 6  20.26696950135014  1.36539597209721  0.26716342234223
 6  20.42646549234923  2.16336364146415 -1.03123781968197
 6  21.13802886988699  1.86078777867787  1.47396133613361
 1 -4.10625098859886  3.57419067046705  1.54844093989399
 1 -10.14934705800580  3.85744801930193 -0.87303182938294
 1 -10.36459088318832 -2.49024455955595 -0.97027484688469
 1 -2.53139042624263 -1.03238344104410  2.22017850855085
 1 -2.33276674297430  1.51662372347235  0.88623227222722
 1 -1.62873595999600  1.03469257565756  3.57359769716972
 1 -2.74482159125913  2.41395061786179  3.14663268546855
 1 -3.59338213871387  0.80819597389739  3.61977366256626
 1 -2.10746586558656 -1.76565723652365 -0.22663067016702
 1 -2.28053442244224  0.03875149494949 -0.52294902950295
 1 -0.24657008570857  0.50272986028603  0.89511337433743
 1 -0.32440086038604 -1.37565833243324  1.23959741804180
 1 -5.68528270597060  6.97116462846285  0.77344717601760
 1 -5.79887135843584  6.18940182158216  2.35736774927493
 1 -4.49986483108311  5.58875314331433  1.05192592519252
 1 -9.24079433923392  5.90114349634963 -0.58707005970597
 1 -9.05781484518452  8.06833655465547  0.69590936663666
 1 -7.44317224932493  7.26607344374437  1.52660162046205
 1 -12.01747222022202  3.23196234333433 -2.16762259375938
 1 -13.30155745344534  1.91764050645065 -1.78894462266227
 1 -12.48530956365637  2.79660699479948 -0.31782222172217
 1 -12.18298026292629 -1.66655757855786 -1.37933143404340
 1 -13.15972827192719 -0.14854756525653 -1.58658441284128
 1 -13.03884908410841 -1.71574523662366 -3.68803976207621
 1 -11.96860726642664 -0.15743421472147 -4.02108108650865
 1 -11.38148298769877 -1.91086211341134 -3.46274455265527
 1 -9.18448306690669 -4.57922442324232 -1.69304536753675
 1 -8.08022240744074 -5.79034498779878 -0.93163311841184
 1 -9.57066124512451 -4.72829127752775 -0.04601687038704
 1 -3.44459197769777 -3.38568517411741 -0.14234197229723
 1 -1.65530891849185 -4.27399961336134  3.48022974057406
 1 -3.06382281958196 -5.59507903280328  3.77949898759876
 1 -1.61468198869887 -6.09492027682768  2.83441680278028
 1  2.52626068086809 -1.53734035683568 -1.90302175087509
 1  2.45449189048905  0.16245433023302 -2.14631568906891
 1  4.20037052375238 -0.94401281508151  0.19184058425843
 1  3.92019733123312  1.32328787148715 -2.84671515721572
 1  5.21626855905591  2.41085150905090 -2.37295473387339
 1  5.79485905440544  0.57924911581158 -3.07445370227023
 1  6.54698288218822  1.52731271187119 -0.08470885698570
 1  6.45878375047505 -0.34435177187719  0.38764495999600
 1  7.21565368816882 -1.05588626162616 -1.36337109430943
 1  7.76132869136914  0.69106820982098 -1.99299012191219
 1  9.07200324462446  0.96086558405841  0.32751517961796
 1  8.67208032883288 -0.83953230593059  0.61303742714271
 1  10.32201683348335  0.09989613741374 -1.69281443944394
 1  9.10267987708771 -1.98708699219922 -1.77065544744474
 1  10.97175631623162 -2.44142754205421 -1.77119247734773
 1  9.98701089818982 -2.61423553825383 -0.44577197089709
 1  11.20675231683168  0.83587002040204  0.51541931273127
 1  11.45720331583158 -0.97172847044705  0.92602892299230
 1  12.76325427792779 -1.45740315961596 -1.17244951645165
 1  12.44714054395440  0.22263719971997 -1.64653898759876
 1  13.86225764606461  1.18637400070007  0.46344117281728
 1  13.98672698329833 -0.64018039693969  1.11234360836084
 1  15.37329773117312  0.08695209220922 -1.35102637143714
 1  15.54378817561756 -2.43667300850085 -0.00667880338034
 1  14.67723936833683 -1.96836135613561 -1.46153752725272
 1  16.57181546114612 -1.85219611661166 -1.20035654895490
 1  16.13780705420542  1.49872820652065  0.80390630693069
 1  16.39610368816882 -0.31085737053705  1.29500799549955
 1  18.17824456215622 -0.47641415541554 -0.23526372197220
 1  17.75347265686569  0.98889778387839 -1.16812255585559
 1  18.30087914481448  2.23391465946595  0.78235018181818
 1  18.80708667116712  0.90629546904690  1.74285753125313
 1  20.62532236453645  0.38809980758076  0.00101599379938
 1  20.26444326282628  3.15283606010601 -0.96522870757076
 1  21.51813561436144  2.07396853895390 -1.21803978517852
 1  19.90461885948595  1.50584087428743 -1.88879726412641
 1  21.11871572507251  1.12735837673767  2.32012568136814
 1  22.08330622342234  2.00626109680968  1.13014966856686
 1  20.76641672017202  2.76572268946895  1.95125226192619

