%nproc=4
%Mem=3GB
# td=(NStates=1) iop(3/107=0140000000,3/108=0140000000) CAM-B3LYP/6-31G(d,p) 

TD

0 1
12 -7.13008770047005  0.63032141564156  0.05405177517752
 6 -4.82982179867987 -1.86665389598960  0.35323072547255
 6 -4.80244627522752  2.80420913881388  1.15561566676668
 6 -9.47497426192619  3.07738529152915 -0.35433790909091
 6 -9.60905700370037 -1.69638140384038 -0.77160396529653
 7 -5.03399043024302  0.54068015861586  0.55831365536554
 6 -4.32774502180218 -0.61809295249525  0.71427932263226
 6 -2.98742496309631 -0.34972337033703  1.19122479157916
 6 -3.10655388228823  1.05973467506751  1.58316459575958
 6 -4.39336957165717  1.56933158425843  1.08110250415042
 6 -3.00771695249525  1.20090290959096  3.15111042564256
 6 -1.90659638933893 -0.63896988618862  0.05010882118212
 6 -0.50667637683768 -0.27482073007301  0.47195057735774
 6  0.49514143734373 -0.65170179207921 -0.52961275137514
 8  0.25429564636464 -0.99090286798680 -1.64503189628963
 8  1.74030262866287 -0.40718065646565 -0.10103549114911
 7 -7.15574321772177  2.61595480538054  0.23478440254025
 6 -6.13650379417942  3.39741350875087  0.74903077917792
 6 -6.52063697209721  4.79358622222222  0.82048030673067
 6 -7.82172695799580  4.85166697189719  0.36050217661766
 6 -8.28502803030303  3.47491443024302  0.06326432503250
 6 -5.72992502640264  5.95314478817882  1.30664081928193
 6 -8.63258326632663  5.98462873247325  0.12751336383638
 6 -8.58797720772077  7.08003715341534  0.83897795709571
 7 -9.18705774687469  0.65419241364136 -0.47761433533353
 6 -9.98211569786979  1.79302262656266 -0.56181899539954
 6 -11.25199915261526  1.44356380088009 -1.12905776547655
 6 -11.37240672787279  0.13362090789079 -1.24826485478548
 6 -9.97003460706071 -0.42332252565256 -0.80035223652365
 6 -12.39266020372037  2.42813805520552 -1.22030148284828
 6 -12.46153994689469 -0.89445556935694 -1.68610794139414
 6 -12.22436434533453 -1.19716990929093 -3.19109976117612
 7 -7.20227318971897 -1.33180801650165 -0.18225090019002
 6 -8.32463678997900 -2.14235278077808 -0.42652423232323
 6 -7.79516155595560 -3.60112066346635 -0.54447474727473
 6 -6.43893168366837 -3.53873685578558 -0.16106818851885
 6 -6.08588231993199 -2.11366932273227 -0.11431959655966
 6 -8.54642698219822 -4.78179427782778 -0.87101048414841
 6 -5.34367983088309 -4.36213977737774  0.11794676877688
 8 -5.06198719101910 -5.53734059105911  0.00630657925793
 6 -4.13360786338634 -3.35775322272227  0.52494081568157
 6 -3.62164634143414 -3.61500944364436  1.90418638713871
 8 -3.79670245364536 -2.96954431233123  2.94718807700770
 8 -2.72362771557156 -4.62448106660666  1.82540157765777
 6 -2.07221617861786 -5.09737494339434  3.02741014141414
 6  2.79125544594459 -0.55760404930493 -1.22950646784678
 6  4.21591247644764 -0.53130839873987 -0.54108667146715
 6  5.21449694099410  0.30100662866287 -0.94001687868787
 6  5.21223494909491  1.27249492479248 -2.15401953695370
 6  6.44760103880388  0.41394201020102 -0.10340086448645
 6  7.71240269286929 -0.15171371937194 -0.84222455115512
 6  9.01721943354335 -0.25186700280028 -0.12495859825983
 6  10.27684314491449 -0.73822548574857 -0.91363708370837
 6  10.14413769036904 -2.16716459635964 -1.41144811081108
 6  11.57958262206220 -0.48670356145615 -0.05886384888489
 6  12.85359309480948 -0.55273530703070 -0.81268877397740
 6  13.97075834763476 -0.06538225252525 -0.00658424682468
 6  15.35147113811381 -0.31949103270327 -0.54391004350435
 6  15.69111538253826 -1.74774316261626 -0.76510833713371
 6  16.53138013071307  0.36881339863986  0.36843157785779
 6  17.86827441514151  0.49462319191919 -0.15406193319332
 6  18.85220563916392  1.22684076257626  0.79460271697170
 6  20.38544134853485  1.30013944644464  0.26547325332533
 6  20.26271911771177  2.19109641474147 -1.02087678357836
 6  21.34242930993099  1.87262896279628  1.35527946794679
 1 -4.13880424392439  3.55360861226123  1.52635873167317
 1 -10.32361448474848  3.96435871037104 -0.62927745394539
 1 -10.12336676077608 -2.65252078717872 -1.01796961636164
 1 -2.71063835103510 -0.98615881858186  2.03500999169917
 1 -2.30349381568157  1.52880494159416  1.19107275627563
 1 -2.04133722012201  1.18223733013301  3.28205854325433
 1 -3.36215332443244  2.23199242204220  3.71809983218322
 1 -3.61519431993199  0.61977713201320  3.58589027422742
 1 -1.96947206620662 -1.50029069986999 -0.37304531163116
 1 -2.15772214121412 -0.01915429562956 -0.73294002860286
 1 -0.31594702340234  0.70291987928793  0.78769263226323
 1 -0.15958437873787 -0.63562432903290  1.37894135243524
 1 -5.88100227792779  7.10566807880788  0.87175700700070
 1 -5.79781125242524  6.19356223762376  2.24803681618162
 1 -4.52924776937694  5.98751301930193  0.94700543314331
 1 -9.31434169396940  5.95511889388939 -0.66636798949895
 1 -9.19457852155216  8.07331705270527  0.70112988868887
 1 -7.91439937203720  7.38429526592659  1.72016097639764
 1 -12.08479895289529  3.22034118121812 -2.10859669116912
 1 -13.29329662736274  1.73093183558356 -1.43681941014101
 1 -12.60476150885088  3.01168850295030 -0.21636207570757
 1 -12.65289725462546 -1.68916983978398 -1.08940244114411
 1 -13.52243454255426 -0.55008771927193 -1.61224697909791
 1 -12.99323452265227 -1.94225788788879 -3.41125208330833
 1 -12.43593399909991 -0.34457292859286 -3.70362934133413
 1 -11.32140698009801 -1.67088811601160 -3.34075235343534
 1 -8.91127574617462 -4.81553805460546 -1.84200026302630
 1 -7.58625301050105 -5.48309426272627 -0.67731768686869
 1 -9.40298447744775 -4.73369181758176 -0.15551782048205
 1 -3.46912443094309 -3.63475008060806 -0.25625336343634
 1 -1.62150553815382 -4.16476869026903  3.39588130573057
 1 -2.74751118841884 -5.29389891479148  3.84457549524952
 1 -1.38564908540854 -5.88228901370137  2.80175353645365
 1  2.61613966876688 -1.69429605240524 -1.66777822652265
 1  2.69219566086609  0.17039512431243 -1.95867692519252
 1  4.53497398409841 -1.35699411321132  0.19224062426243
 1  4.22202751425142  1.08174371707171 -2.52624311001100
 1  5.34173110531053  2.20638106200620 -1.72515995439544
 1  5.97025659415942  0.92881407230723 -3.00160641754175
 1  6.74230241414141  1.50040002060206  0.08545815971597
 1  6.35031290339034  0.09613227652765  0.87578377387739
 1  7.34855697849785 -1.17119779277928 -1.16975173237324
 1  7.92475503400340  0.48319742274227 -1.79255007790779
 1  9.15294133843384  0.81648114561456  0.34538696679668
 1  8.76729985078508 -0.69926827952795  0.96650277367737
 1  10.36380101190119 -0.14758861106111 -1.84013917191719
 1  9.35777538663866 -2.20031831533153 -2.16539492139214
 1  11.08478761936194 -2.38514191349135 -1.86899225732573
 1  9.86110830793079 -2.60203431813181 -0.58636603030303
 1  11.29922156375637  0.49811624502450  0.27005477627763
 1  11.42457005250525 -1.10528182578258  0.95450177027703
 1  13.00356830933093 -1.54640205950595 -1.13566583808381
 1  12.69436526642664  0.04409934593459 -1.69683401710171
 1  13.79637105740574  1.02874823812381  0.18845367406741
 1  14.00764907550755 -0.59079545844584  1.11093346734673
 1  15.44473487488749  0.25232862986299 -1.39527079587959
 1  15.31344514131413 -2.33203254445445  0.14466633113311
 1  15.20748239263926 -2.15789030903090 -1.65062643614361
 1  16.75967424702470 -2.03306420342034 -1.02514902820282
 1  16.17861113461346  1.23653198689869  0.62902881918192
 1  16.67314139193919 -0.29644592939294  1.29938843354335
 1  18.46618335603560 -0.34894140814081 -0.48622881848185
 1  17.95535284488449  1.13523241734173 -1.09967571117112
 1  18.42677173407341  2.15941720972097  0.94638658545855
 1  18.76566252875288  0.77128196769677  1.70445369086909
 1  20.60731056335634  0.21113211081108 -0.14011811961196
 1  20.00945776427643  3.31146192269227 -0.77425961066107
 1  21.39153295409541  2.33325446754675 -1.21236921812181
 1  19.62482087968797  1.77101739193919 -1.67819620402040
 1  20.91941579507951  1.18686432733273  2.20731440024002
 1  22.30225811861186  2.00253072377238  1.05770242384238
 1  20.99774985348535  2.90392650985098  1.64962209890989

