%nproc=4
%Mem=3GB
# td=(NStates=1) iop(3/107=0140000000,3/108=0140000000) CAM-B3LYP/6-31G(d,p) 

TD

0 1
12 -7.11402609430943  0.59902828632863 -0.02817644764476
 6 -4.85990480698070 -1.98648587918792  0.52003740614061
 6 -4.77523355395540  2.78827754565457  1.19786989218922
 6 -9.37646441094109  3.12900045304530 -0.39327180248025
 6 -9.59065516351635 -1.74658642434243 -1.03025983088309
 7 -5.08189522072207  0.38788487908791  0.69342716671667
 6 -4.26443869116912 -0.69913105630563  0.74568246294629
 6 -2.96028224882488 -0.42171056905691  1.17323299239924
 6 -3.02571579847985  1.01142984458446  1.74549082838284
 6 -4.25977621232123  1.46344099519952  1.10571496539654
 6 -2.97075325612561  1.09445226452645  3.30953626822682
 6 -1.80892662236224 -0.60781677087709  0.15353916421642
 6 -0.43824953415342 -0.51204445244524  0.56077946024602
 6  0.52158408160816 -0.80058668056806 -0.57813760386039
 8  0.27440765756576 -1.17742151985199 -1.66166355945595
 8  1.79432803120312 -0.44175411381138 -0.21112650025003
 7 -7.02594023742374  2.65614882478248  0.42829375347535
 6 -5.99704984878488  3.42910667806781  0.92380825692569
 6 -6.30153506190619  4.78116498009801  0.88322658135814
 6 -7.70535532083208  4.83114491969197  0.49145527192719
 6 -8.13868339583958  3.47732467126713  0.12335033363336
 6 -5.42607464136414  5.93074254795480  1.27859801500150
 6 -8.54836484448445  6.09197946754675  0.22762337483748
 6 -8.37145555555556  7.31252040174017  0.65710977027703
 7 -9.00961000210021  0.67335432983298 -0.62074864876488
 6 -9.82108959525953  1.87019034333433 -0.73782659615962
 6 -11.20678463116312  1.45044448894889 -1.17383224292429
 6 -11.21041052825283  0.15734328012801 -1.30361038933893
 6 -9.89438704230423 -0.32615280868087 -0.97838003930393
 6 -12.24187512521252  2.54579982138214 -1.39502895559556
 6 -12.31214500740074 -0.72563868766877 -1.70430976157616
 6 -12.33185509440944 -1.06090628292829 -3.20312096329633
 7 -7.20609357175718 -1.42532736843684 -0.26454913001300
 6 -8.25867019331933 -2.17766631213121 -0.63696527642764
 6 -7.89175121492149 -3.60218076947695 -0.61093139293929
 6 -6.51971976247625 -3.54042702480248 -0.13649573127313
 6 -6.20018375007501 -2.16494445024502  0.11414324972497
 6 -8.81123346284629 -4.75022112051205 -0.88816219931993
 6 -5.34266972987299 -4.30078364176418  0.23188816291629
 8 -5.32688368066807 -5.49340619761976  0.31094704330433
 6 -4.24295879847985 -3.30097754515452  0.57049537113711
 6 -3.64551872867287 -3.68263620632063  1.92251822032203
 8 -3.90231301470147 -3.16010336823682  3.01828518671867
 8 -2.87702305510551 -4.85644426292629  1.88499753725373
 6 -2.41188014501450 -5.24319952585259  3.16670407080708
 6  2.74566088648865 -0.90111840074007 -1.24953847104710
 6  4.11420230543054 -0.44472974087409 -0.50745330813081
 6  5.07818330963096  0.22981950995099 -1.14830770777078
 6  5.07907163276328  0.91225890119012 -2.51115525052505
 6  6.33099937863786  0.43730434643464 -0.34138466286629
 6  7.69723117571757 -0.17253580158016 -0.95229555825583
 6  8.99940765236524 -0.13354517061706 -0.03116921932193
 6  10.16658211881188 -0.50911257445745 -0.84387010701070
 6  10.24254753135314 -1.95325320522052 -1.32357932393239
 6  11.49692435623562 -0.33098798989899  0.00547258475848
 6  12.84845258075808 -0.46345637913791 -0.78457596269627
 6  13.95382665446545 -0.10796651095110  0.21610802240224
 6  15.32475846684668 -0.12156123972397 -0.50709636213621
 6  15.62877914891489 -1.42115050335033 -0.97135896219622
 6  16.50759775247525  0.34702121942194  0.49791452615262
 6  17.71924951265127  0.77908163776378 -0.12743927092709
 6  18.87810822942294  1.31238931743174  0.74798805550555
 6  20.24619742414242  1.37324675717572  0.14463116911691
 6  20.27541038683868  2.26227353245325 -1.02399709560956
 6  21.15470053705370  1.83362506240624  1.34186812681268
 1 -3.95901626512651  3.40192344374437  1.64536063186319
 1 -10.11349347264727  3.96457873237324 -0.59825435163516
 1 -10.20102452655266 -2.39217475257526 -1.44741256065607
 1 -2.79334662186219 -1.11884208690869  1.98943543424342
 1 -2.16712017831783  1.51356341744174  1.36956060506051
 1 -1.95427851425143  0.60674978137814  3.59274961236124
 1 -3.21829893899390  2.14695391819182  3.77786580878088
 1 -3.74111691219122  0.51466662096210  3.53387507270727
 1 -1.97961308030803 -1.66402707350735 -0.33090109720972
 1 -2.20001637063706 -0.15943832403240 -0.81772850745075
 1 -0.31099652835284  0.57162674997500  0.84844870787079
 1 -0.21864028432843 -1.36142690929093  1.34671813011301
 1 -5.53629780748075  6.80255776777678  0.58256808810881
 1 -5.59436090739074  6.14709759115912  2.36983899639964
 1 -4.33374821942194  5.65463973197320  1.27303803640364
 1 -9.42353261306131  6.04297767976798 -0.42021337403740
 1 -9.21494055775578  8.13397311831183  0.46917669336934
 1 -7.39634756685669  7.55501233763376  1.37490645094509
 1 -12.05209568256826  3.33324247134713 -2.26753258475848
 1 -13.20113741144114  2.18344708710871 -1.68752448064806
 1 -12.34323535623562  3.29503683778378 -0.44779521902190
 1 -12.47133909880988 -1.68814973777378 -1.15560906180618
 1 -13.23082538163816 -0.22415512601260 -1.44013976837684
 1 -13.34293949314931 -1.45529919201920 -3.78100905900590
 1 -12.10271067676768 -0.02710118141814 -3.66196517491749
 1 -11.45538037743774 -1.98049907710771 -3.53270154835484
 1 -9.34100871947195 -4.56603310411041 -1.88872493549355
 1 -8.33345773097310 -5.78975492879288 -1.01897185228523
 1 -9.62136631563156 -4.75802425082508 -0.12011428012801
 1 -3.23055057355736 -3.38253485908591  0.06147840974097
 1 -1.71615500310031 -4.50218243164317  3.62292401000100
 1 -3.26591302860286 -5.56110563546355  3.75816685438544
 1 -1.86477699819982 -6.02476326112611  3.05414877597760
 1  2.56141419621962 -1.91059768256826 -1.56233768246825
 1  2.78679512081208 -0.21120303550355 -2.03200425792579
 1  4.31215170187019 -0.82934134793479  0.49342074227423
 1  4.13637894939494  0.66202174487449 -2.95692617831783
 1  4.91980891309131  2.19443986788679 -2.32292973137314
 1  6.13502307080708  0.73570476137614 -3.15031128802880
 1  6.63383156705671  1.42759273987399 -0.11261164726473
 1  6.25400327242724 -0.01954929162916  0.69473566906691
 1  7.82796491929193 -1.36814748774877 -1.13967872507251
 1  7.79184174267427  0.30914001700170 -1.92511333423342
 1  9.03196924122412  0.84739423692369  0.41385381348135
 1  8.86827994879488 -0.65245359805981  0.82956908030803
 1  10.33547817961796  0.22930907870787 -1.71757691569157
 1  9.56048565766577 -2.27154543804380 -2.01019940184018
 1  11.22107124772477 -2.27127052635264 -1.85735109320932
 1  9.96988918601860 -2.78105221992199 -0.39996739043904
 1  11.41024266586659  0.87165359875988  0.09611738253825
 1  11.49056665216522 -0.91913321092109  0.92899922002200
 1  13.13292124462446 -1.48914633393339 -0.91878414991499
 1  12.68104393429343  0.07450238623862 -1.77903223692369
 1  13.69752117241724  1.05301066436644  0.49739456815682
 1  13.99304761536154 -0.85694207310731  0.93142551655165
 1  15.39988038943894  0.67177057405741 -1.39348061686169
 1  15.74516831363136 -2.18852819401940 -0.14451258675868
 1  14.75227687208721 -1.77170169016902 -1.66942831633163
 1  16.51492977257726 -1.42679357635764 -1.44655116841684
 1  16.02974624812481  1.29204753845385  0.78037395369537
 1  16.69510358815882 -0.34183046784678  1.12144063876388
 1  18.37107384508451 -0.08634514851485 -0.79606980258026
 1  17.50319762936294  1.50019891399140 -0.91819756335634
 1  18.47170622752275  2.33902517051705  0.84935688248825
 1  18.65728169066907  0.64146898639864  1.57844108960896
 1  20.44890472277228  0.22302329992999 -0.28998310611061
 1  19.85156197469747  3.23464424092409 -0.82201438613861
 1  21.24113791459146  2.31448259035904 -1.47814579577958
 1  19.71709010661066  1.72676296649665 -1.67783616801680
 1  21.24399825332533  1.07724336523652  2.12568623742374
 1  22.08768666146614  1.98925939663966  0.92162881648165
 1  20.89483956245624  2.81706782398240  1.89550668736874

