%nproc=4
%Mem=2GB
# td=(NStates=1) CAM-B3LYP/6-31G(d,p) 

TD

0 1
<<<<<<< HEAD
12 -7.18382895589559  0.56833558165817  0.02924061146115
 6 -4.93652827082708 -1.89634081248125  0.45944247694769
 6 -4.78221815071507  2.79931837913791  1.14517088198820
 6 -9.42774751025103  3.19546504200420 -0.39576243594359
 6 -9.63288360206021 -1.68145365636564 -0.84917134623462
 7 -5.22242566716672  0.42847266536654  0.76758717701770
 6 -4.45178488458846 -0.68511833383338  0.66179420262026
 6 -2.98014702010201 -0.46612603830383  1.15209556375638
 6 -3.02900633903390  0.98924159245925  1.62283301400140
 6 -4.43482047694769  1.51083183198320  1.19389641954195
 6 -2.79609469156916  1.15239752785279  3.15682709160916
 6 -1.93830729172917 -0.69065432683268 -0.01354739643964
 6 -0.51196861946195 -0.54807915511551  0.44027815711571
 6  0.49993113031303 -0.61268478137814 -0.73116849734973
 8  0.21136237633763 -0.93842925052505 -1.86094242594259
 8  1.79912172267227 -0.54729212561256 -0.25038182708271
 7 -7.08544899279928  2.61524711451145  0.19368806430643
 6 -6.03406268526853  3.38219919571957  0.78076160976098
 6 -6.38955620872087  4.75960024942494  0.88254894209421
 6 -7.69319202620262  4.83367399889989  0.43404179547955
 6 -8.17788205980598  3.44753394869487  0.08655120142014
 6 -5.50301825852585  5.82078454435444  1.18668342884288
 6 -8.62317011461146  5.96820785448545  0.26787377277728
 6 -8.34955884718472  7.23972009060906  0.76097234703470
 7 -9.19036130873087  0.72996585768577 -0.58655268896890
 6 -9.82675893559356  1.80943089618962 -0.79446577067707
 6 -11.23971306790679  1.46664500360036 -1.10306202570257
 6 -11.27140954485449  0.13695906000600 -1.23873258725873
 6 -10.01652733343334 -0.39248122242224 -0.86377139323932
 6 -12.24374319801980  2.60439101010101 -1.47533430823082
 6 -12.39807435373537 -0.73963137323732 -1.67049785828583
 6 -12.30300778917892 -1.22839525072507 -3.06658177677768
 7 -7.35518498679868 -1.43328294189419 -0.12845752275228
 6 -8.36987722752275 -2.21851702380238 -0.45911086628663
 6 -7.97205335093509 -3.60604887238724 -0.43105038233823
 6 -6.49268315241524 -3.60855519251925 -0.15462719461946
 6 -6.22483507990799 -2.24021230253025  0.06733953815382
 6 -8.84904237163716 -4.83185602800280 -0.67388586698670
 6 -5.33313778407841 -4.37924180768077  0.22896576917692
 8 -5.25982482038204 -5.57738222162216  0.25885291599160
 6 -4.13029660906091 -3.27453324312431  0.52858272357236
 6 -3.60543117401740 -3.67665288658866  1.84692506540654
 8 -3.89196079667967 -3.13291002720272  2.88318099919992
 8 -2.72836403010301 -4.78741346374637  1.80735931683168
 6 -2.17485807370737 -5.15371960106011  3.06328126362636
 6  2.82608512021202 -0.74118191279128 -1.17468866926693
 6  4.13348543754375 -0.53415159145915 -0.60436058505851
 6  5.09720320472047  0.28325459085909 -1.11851162386239
 6  4.93944236723672  1.15420807010701 -2.24472863816382
 6  6.43597793059306  0.29929177937794 -0.38391487668767
 6  7.71125866376638 -0.28821916881688 -1.01174812531253
 6  8.98088996159616 -0.04633976437644 -0.13897571037104
 6  10.24993561806181 -0.52582965466547 -0.80806177667767
 6  10.26963366356636 -1.98756969306931 -1.16113957895790
 6  11.50010288718872 -0.20152393319332  0.09622049064906
 6  12.82305721342134 -0.45648970007001 -0.53957398029803
 6  14.05729519791979  0.08669746694669  0.18460552805281
 6  15.44729085398540 -0.04902863196320 -0.45858409820982
 6  15.83471514041404 -1.45577321112111 -0.83913353105311
 6  16.52597670357036  0.62298665866587  0.43314782198220
 6  17.92049663906391  0.82395379377938 -0.18305412001200
 6  18.94861523102310  1.28092630963096  0.81167160016002
 6  20.37434610381038  1.21525185868587  0.24837960116012
 6  20.47453880768077  1.96687498469847 -1.10733172587259
 6  21.25843677447745  1.84899783608361  1.23906927032703
 1 -4.11857334183418  3.58846436783678  1.55672025892589
 1 -10.12615300800080  3.90128096309631 -0.48513390489049
 1 -10.52449573897390 -2.33856319711971 -1.03535018721872
 1 -2.79799625652565 -1.11721003490349  1.85871656285629
 1 -2.24276788198820  1.53306688928893  1.23502415281528
 1 -1.87365182268227  0.92238269116912  3.61880559405941
 1 -2.71245630563056  2.25015907340734  3.48775094049405
 1 -3.69102254495450  0.64626931093109  3.73483589638964
 1 -1.98197068196820 -1.69788974937494 -0.39508341754175
 1 -2.13919559205921  0.13568081848185 -0.86875691529153
 1 -0.48119163656366  0.49095370927093  0.83822422152215
 1 -0.35407320932093 -1.51371588678868  1.12743669886989
 1 -5.59849862526253  6.73075171927193  0.74475018421842
 1 -5.57133412281228  6.07648101120112  2.28198449554956
 1 -4.38333228922892  5.72724389078908  0.91157433303330
 1 -9.66158821132113  5.99870601870187 -0.29311954015401
 1 -9.08822003790379  8.11517225612561  0.55673529532953
 1 -7.59271873767377  7.62986938643864  1.55060344584458
 1 -12.01947605270527  2.91220154615462 -2.54346735143514
 1 -13.25509517871787  2.16869076027603 -1.66865805730573
 1 -12.15275700680068  3.51075973067307 -0.68794003800380
 1 -12.57083186158616 -1.66871631673167 -1.20099505440544
 1 -13.41891060996100 -0.15710244704470 -1.69847537503750
 1 -13.08167452005201 -1.68478316451645 -3.34066395089509
 1 -12.25615918011801 -0.43778831643164 -3.88805230093009
 1 -11.30591687098710 -1.69081394849485 -3.34300292029203
 1 -9.34148375137514 -4.58429917281728 -1.55896916101610
 1 -7.97060642544254 -5.54141414561456 -0.93191280428043
 1 -9.50597048194819 -4.95332035333533  0.28704688208821
 1 -3.27266796269627 -3.49187243794379 -0.19816508800880
 1 -1.64753291979198 -4.28437487718772  3.57619053435344
 1 -3.03704331293129 -5.37364898249825  3.79360219911991
 1 -1.77015512701270 -6.10072934613461  2.71219517241724
 1  2.60355966006601 -1.77874971087109 -1.69521348634864
 1  2.61227870547055  0.01126540614061 -2.05932908510851
 1  4.28948985458546 -1.28275049024903  0.37095031103110
 1  4.03000196369637  1.03201191159116 -2.94104247394740
 1  4.89262467416742  2.20762102100210 -2.03709017721772
 1  5.75552285988599  0.86328743624362 -2.99441817281728
 1  6.89577164006401  1.35833983398340 -0.24003136033603
 1  6.28270238963896 -0.19105714311431  0.57699741644164
 1  7.49957734243424 -1.30297953315332 -1.20637196079608
 1  7.82030446634664  0.11251445954596 -1.86658958255826
 1  8.86053810541054  1.02655054005401  0.03049068126813
 1  8.77577606630663 -0.56774228042804  0.77345520922092
 1  10.44101165256526 -0.00275773807381 -1.62130702020202
 1  9.43919890539054 -2.28693667016702 -2.00194611941194
 1  11.40564312001200 -2.45646243014301 -1.31089533343334
 1  9.91661454745475 -2.66408835083508 -0.18398783848385
 1  11.33042072297230  0.80413264346435  0.54013550105010
 1  11.37348040144014 -0.85679164046405  1.06026664826483
 1  13.03512683158316 -1.58465662686269 -0.82293996159616
 1  12.87888164066407 -0.02316162516252 -1.61281464276428
 1  13.78142957965797  1.11490404640464  0.58258560156016
 1  14.13833658675868 -0.35383498819882  1.23408992549255
 1  15.37329061756176  0.50540002500250 -1.54227858585859
 1  16.09326676957696 -2.10790108220822 -0.02350380428043
 1  14.80268331903190 -1.77337971357136 -1.22591000610061
 1  16.79000863026303 -1.65714123902390 -1.35886735623562
 1  16.11558675937594  1.63484131783178  0.69423596789679
 1  16.53578802600260  0.21953277817782  1.49996275747575
 1  18.44198513721372 -0.14111065846585 -0.55348868926893
 1  17.80871793629363  1.13939125802580 -1.22909648544854
 1  18.65819661226123  2.31729588728873  0.94019202450245
 1  19.07845500580058  0.58018219921992  1.68063806410641
 1  20.53564847754776  0.08178432663266  0.22307937193719
 1  20.33932803940394  3.06921048294830 -0.88807240064006
 1  21.52534678677868  1.82867952075208 -1.66631799509951
 1  19.70467437183719  1.76594840564056 -1.77361433043304
 1  21.35883185838584  1.15835394449445  2.26995661286129
 1  22.19255096139614  1.82271350105011  0.82040700700070
 1  21.13163289318932  2.92801288458846  1.60503094359436
=======
12 -7.06718729172917  0.54484323242324  0.02304999239924
 6 -4.87192181018102 -1.95603678207821  0.57449398209821
 6 -4.77379730863086  2.87540598789879  1.07263362826283
 6 -9.36498123362336  3.04928042354235 -0.44644750445044
 6 -9.53240355405541 -1.73678918991899 -0.90369679877988
 7 -5.07198062266227  0.43147296539654  0.73469388768877
 6 -4.29469917601760 -0.78808863086309  0.85619364256426
 6 -2.84380338573857 -0.37504693039304  1.19870022422242
 6 -3.05197863626363  1.10702337063706  1.70040077077708
 6 -4.37916491139114  1.49422017081708  1.12824985488549
 6 -2.85164024612461  1.21980426852685  3.18376978587859
 6 -1.97534099509951 -0.54977023842384  0.06730068836884
 6 -0.48664608720872 -0.32832717991799  0.49738386768677
 6  0.54955609280928 -0.58529204210421 -0.58403378387839
 8  0.23786502660266 -1.18965437303730 -1.64031036273627
 8  1.78697050755076 -0.41671906830683 -0.14120090899090
 7 -7.00499094699470  2.57401299109911  0.30640933643364
 6 -5.96612589158916  3.40219119491949  0.75424895849585
 6 -6.36564381748175  4.69118340774077  0.76275696289629
 6 -7.68333104010401  4.73856448794879  0.29617800910091
 6 -8.03087735933593  3.38910810611061  0.08540108640864
 6 -5.31583954065407  5.90277274317432  0.85123988448845
 6 -8.47454525212521  5.97178821252125  0.00171715711571
 6 -8.29517340864087  7.06427254585459  0.69835608540854
 7 -9.03966623922392  0.67053991509151 -0.49136317001700
 6 -9.82363862356236  1.80733068616862 -0.57236356045605
 6 -11.18018711531153  1.45646398549855 -0.98728044754475
 6 -11.13875627952795  0.06757212131213 -1.16391510551055
 6 -9.84428010871087 -0.37442941724172 -0.84158917501750
 6 -12.33348217191719  2.43274384538454 -1.32182895769577
 6 -12.33610815711571 -0.76922433253325 -1.66144695319532
 6 -12.44023151155116 -0.90228263946395 -3.12768788738874
 7 -7.19037850615062 -1.44283389698970 -0.16480115711571
 6 -8.28097833763376 -2.23077824992499 -0.53614857005701
 6 -7.86128227382738 -3.61398966646665 -0.40412769006901
 6 -6.54098798289829 -3.52850718771877 -0.07253898579858
 6 -6.17083968036804 -2.23092137343734  0.09978278247825
 6 -8.55880334773477 -4.78332117451745 -0.93157163556356
 6 -5.36555102540254 -4.38376225972597  0.29280215281528
 8 -5.48427726562656 -5.61742622602260  0.19379641034103
 6 -4.23132671207121 -3.36093188298830  0.60217008230823
 6 -3.54577520842084 -3.76593181448145  1.98361873477348
 8 -3.66387798839884 -3.10925766196620  2.98595127622762
 8 -2.71073226692669 -4.79015373777378  1.71180976187619
 6 -2.03762435033503 -5.28885311441144  2.91287622312231
 6  2.81317382908291 -0.68719651425143 -1.11321252165217
 6  4.11212330133013 -0.40637881418142 -0.61462161116112
 6  5.08852233663366  0.39749601500150 -0.99306907960796
 6  4.99256767976798  1.25889853915392 -2.26947111241124
 6  6.33878821162116  0.46025787598760 -0.18057454265427
 6  7.51971950985098 -0.18744909180918 -0.98693564406441
 6  8.81975384798480 -0.04678980938094 -0.20369218201820
 6  10.13636426092609 -0.40117718941894 -1.05823679417942
 6  9.98566526672667 -1.92305324142414 -1.35438890389039
 6  11.28841171807181 -0.20037381818182 -0.16350548194819
 6  12.82467737543754 -0.45336938803880 -0.79801982488249
 6  13.89338880728073 -0.04770597339734  0.12260932843284
 6  15.30005613051305 -0.07944167326733 -0.46608484828483
 6  15.58370003890389 -1.62157979177918 -0.88916853455346
 6  16.37984209010901  0.47422178217822  0.39506401360136
 6  17.76253084248425  0.52155355375538 -0.21921773637364
 6  18.71092146164617  1.30968918591859  0.81900233323332
 6  20.18300696989699  1.35237557105711  0.43035779897990
 6  20.43330468426843  2.19276757395740 -0.85994698739874
 6  21.09479040984099  1.66180911721172  1.38985434883488
 1 -3.81406289078908  3.38694421582158  1.53560814771477
 1 -10.02253264596460  3.92889372437244 -0.88658404990499
 1 -10.36540983038304 -2.44121346214622 -1.00890754295430
 1 -2.47163362026203 -0.94556287018702  1.98177886908691
 1 -2.47142074727473  1.75143872647265  1.17093774417442
 1 -2.01771622912291  0.82249270217022  3.61861557505751
 1 -2.99299435943594  2.26642069956996  3.54659682508251
 1 -3.65318876157616  0.70400508450845  3.79927234003400
 1 -2.08766125102510 -1.65012497289729 -0.18379228842884
 1 -2.19409108160816  0.12642989338934 -0.83030306990699
 1 -0.39784330173017  0.66724133803380  0.99098949804980
 1 -0.23110091209121 -0.97058157335734  1.35596955215522
 1 -5.66238501390139  6.78940758485849  0.41541725092509
 1 -5.30241723112311  6.28600196329633  1.95470176727673
 1 -4.48117207320732  5.67049821622162  0.55141831743174
 1 -9.29974202670267  5.84858100620062 -0.66416664486449
 1 -9.03800501640164  7.89005974487449  0.54971459325933
 1 -7.52998246404641  7.32404880438044  1.33965235073507
 1 -11.87496160126013  3.36144647064706 -2.11674467916792
 1 -13.28988865806581  1.95431932313231 -1.81154234573457
 1 -12.78370010111011  3.10221887658766 -0.52694393839384
 1 -12.43067784618462 -1.60897034213421 -1.06282123702370
 1 -13.27023574247425 -0.16283302010201 -1.31206673417342
 1 -13.27447379998000 -1.48465315151515 -3.73130301480148
 1 -12.30229379357936 -0.05238977657766 -3.65900939663966
 1 -11.53016929622962 -1.53868873597360 -3.47770639063906
 1 -9.11371097409741 -4.54094483738374 -1.90759402350235
 1 -7.83139250405040 -5.52861286548655 -0.65993560656066
 1 -9.42083196809681 -4.91178619991999 -0.24750657325733
 1 -3.40595129102910 -3.64933818451845 -0.11784705620562
 1 -1.67672583908391 -4.55016145584558  3.51712462776278
 1 -2.58885849444945 -5.79137075467547  3.60572341124112
 1 -1.19807791929193 -5.92508178137814  2.74028798169817
 1  2.60127943204320 -1.74573640954095 -1.28738270327033
 1  2.74825230283028 -0.19456517691769 -2.22049520172017
 1  4.09803070867087 -0.96728894409441  0.31250446644664
 1  3.83545250875087  1.54677338773877 -2.46900527022702
 1  5.64668007970797  2.28467872677268 -2.05229169736974
 1  5.56072337993799  0.83609471697170 -3.09493822482248
 1  6.59777184008401  1.52234623462346 -0.14483184038404
 1  6.30865498489849 -0.24139217661766  0.59904962166217
 1  7.53300068476848 -1.37656689188919 -1.06343766736674
 1  7.79110154605460  0.27281048914891 -2.00078300190019
 1  8.87228928052805  0.92857074207421  0.36768440064006
 1  8.83549203790379 -0.64508001420142  0.55364322802280
 1  10.10497804920492  0.12091462916292 -1.97255214471447
 1  9.18109309480948 -1.89475745224522 -2.11554747954796
 1  10.97835039073907 -2.29722650655066 -1.82344658855886
 1  9.55952883888389 -2.53247518951895 -0.60425986568657
 1  11.03344102500250  0.86904913511351  0.30330181768177
 1  10.94442749614961 -0.89986594789479  0.77327794939494
 1  12.79014233313331 -1.54064222542254 -1.13339100670067
 1  12.63445719821982  0.16180687168717 -1.83726708800880
 1  13.95140657735774  1.09870242624262  0.56588393139314
 1  14.00544329742974 -0.61132073677368  1.07958447494749
 1  15.05224851335134  0.48988847384738 -1.32125648364836
 1  15.61406884978498 -2.21284157625763  0.03540208630863
 1  14.98641169186919 -1.85582795839584 -1.64643205830583
 1  16.53625325472547 -1.71874739963996 -1.32565403490349
 1  16.17340254095409  1.47719555325533  0.55866241054105
 1  16.55939038623862 -0.11766094119412  1.17521028222822
 1  18.17618855755575 -0.46947349474948 -0.20596393679368
 1  17.78492555705571  0.98504582348235 -1.17914148994899
 1  18.49653044564456  2.47555171287129  0.73699170447045
 1  18.73357051735174  0.84942912391239  1.92250225052505
 1  20.42636754945494  0.29360550875088  0.00673773777378
 1  20.15320942754276  3.12498606050605 -0.59947354075408
 1  21.54705895799580  2.25887254005400 -1.30106146944694
 1  19.73955786018602  1.80816262706271 -1.63000996999700
 1  20.95127110231023  0.96288439753975  2.18274789198920
 1  22.20103180948094  1.42242347204720  1.26803176947695
 1  21.05517524742475  2.84173425672567  1.59508994949495
>>>>>>> 8e03b5b5abfc0030b3aa597dc0de36371bfbd096

