%nproc=4
%Mem=2GB
# td=(NStates=1) CAM-B3LYP/6-31G(d,p) 

TD

0 1
12 -7.06015658865887  0.71633038113811  0.13255094249425
 6 -4.83604822282228 -1.92329350775078  0.53826035873587
 6 -4.91443137203720  2.90168861616162  1.11890825572557
 6 -9.54137887338734  3.07948344384438 -0.31430429012901
 6 -9.52350266396640 -1.78301381238124 -0.85269169826983
 7 -5.11835526012601  0.44957477557756  0.76017643594359
 6 -4.35721542764276 -0.64247406940694  0.73346136933693
 6 -2.96591559695970 -0.34271369706971  1.18940929512951
 6 -3.05847928632863  1.15185785408541  1.63632436313631
 6 -4.41045804070407  1.57787853665367  1.10472750265027
 6 -2.97751283338334  1.29801208930893  3.13669507840784
 6 -1.93645710671067 -0.51324658605861  0.08352231053105
 6 -0.43232065466547 -0.43273762096210  0.49507363666367
 6  0.59845098229823 -0.74204771767177 -0.54596997749775
 8  0.28289953005301 -1.09585499309931 -1.71911824352435
 8  1.75017682818282 -0.58407580398040 -0.10662745164516
 7 -7.14470491839184  2.65061065086509  0.25541423692369
 6 -6.08783806280628  3.33888486428643  0.76012954655466
 6 -6.47065431853185  4.76459074847485  0.85350603780378
 6 -7.82462516951695  4.86810744224422  0.39624801610161
 6 -8.25642991459146  3.51832102740274  0.00367291359136
 6 -5.56328428512851  5.88843130903090  1.17715247574757
 6 -8.66166396399640  6.08350938463846  0.23310029542954
 6 -8.51664555585559  7.24549066766677  0.90920717051705
 7 -9.15978825142514  0.68854171527153 -0.51703573727373
 6 -9.93223948364836  1.79535948904890 -0.62954927902790
 6 -11.14808390499050  1.47825616471647 -1.12919463896390
 6 -11.34277668156816  0.09642500660066 -1.36273498749875
 6 -9.93105878657866 -0.41810378467847 -0.82737775387539
 6 -12.23155197889789  2.40208077907791 -1.38298507330733
 6 -12.41229577587759 -0.78856626672667 -1.75155596409641
 6 -12.24025151355136 -1.26880929212921 -3.16963208180818
 7 -7.18416788508851 -1.35356497009701 -0.14919959695970
 6 -8.26285652545254 -2.26586175827583 -0.55033998919892
 6 -7.81963810941094 -3.67210547804780 -0.47700497779778
 6 -6.45934981908191 -3.54434877187719 -0.08459019091909
 6 -6.15264786118612 -2.21269955125513  0.08735153935394
 6 -8.55689315671567 -4.91857469986999 -0.90563904230423
 6 -5.24155862616262 -4.35527941144114  0.27548042064206
 8 -5.16067490539054 -5.55703018641864  0.08244527522752
 6 -4.15047862726273 -3.21369715951595  0.54135400070007
 6 -3.63461409230923 -3.63039826112611  1.92101247414742
 8 -4.04780638123812 -3.02697943414341  2.92069475057506
 8 -2.60244143784378 -4.52461718411841  1.80966954785479
 6 -2.27509809770977 -5.21168539763976  3.08057299279928
 6  2.72661517321732 -0.82683047764776 -1.19563076347635
 6  4.15094718371837 -0.54695287158716 -0.50288043704370
 6  5.20618410281028  0.22313857925793 -0.92727249994999
 6  5.16104452745275  1.00795344464446 -2.32362652795280
 6  6.45658999179918  0.39692154235424 -0.22299878507851
 6  7.58914645254525 -0.22220256715672 -1.05575252575258
 6  8.97441931453145 -0.09255438583858 -0.28934074687469
 6  10.19964058855886 -0.57555462716272 -0.99918088858886
 6  10.21775847604760 -2.08098903500350 -1.34329779477948
 6  11.51632450935094 -0.22149593039304 -0.19217834923492
 6  12.87240214791479 -0.46762081318132 -0.88503852675268
 6  13.97174664306431 -0.10819202200220  0.02705977347735
 6  15.51448757365737 -0.23585731483148 -0.54618285808581
 6  15.81165283418342 -1.71379901370137 -0.88634825252525
 6  16.39778388428843  0.28837319731973  0.53148765596560
 6  17.92123671307131  0.51560295869587  0.03371755715572
 6  18.85879624912491  1.29132734973497  0.84775520852085
 6  20.27554622382238  1.42795312881288  0.27545230843084
 6  20.38196955075508  2.18556685388539 -1.04318531123112
 6  21.16969790059006  2.08793172947295  1.35288065146515
 1 -4.06378786328633  3.40046556795679  1.54076866376638
 1 -10.18926931963196  3.93662449744975 -0.23625901740174
 1 -10.45817910731073 -2.28684802560256 -1.37667431963196
 1 -2.55891234813481 -1.00784909880988  1.83610430163016
 1 -2.13976758195820  1.73600718331833  1.29525017541754
 1 -2.08600305780578  1.08172862576258  3.65027874137414
 1 -3.16314137413741  2.30580463796380  3.29856202160216
 1 -3.91049449214922  0.82892757675768  3.60311272407241
 1 -2.07907039193919 -1.44896485688569 -0.30165407460746
 1 -1.98490016251625  0.23600085048505 -0.71940197979798
 1 -0.32689620702070  0.53606822072207  0.68583898299830
 1 -0.31343914591459 -1.08442295749575  1.31622557775778
 1 -5.69286806220622  6.67899654375438  0.44837054625463
 1 -5.73621061046105  6.14457782088209  2.22429872697270
 1 -4.49918387438744  5.68516968336834  1.13443661926193
 1 -9.41068312081208  5.91312746084608 -0.44696492469247
 1 -9.18926014191419  8.06811755065507  0.65738536033603
 1 -7.87436690249025  7.30551695119512  1.87340572607261
 1 -11.80705481058106  3.17083740974097 -2.01342434713471
 1 -13.09447911711171  1.96495038623862 -1.89151034253425
 1 -12.70208193929393  3.06588524322432 -0.70283152715272
 1 -12.63407818621862 -1.68446789188919 -1.21300625552555
 1 -13.37611633053305 -0.37176391319132 -1.54240976847685
 1 -13.08836518911891 -1.82302698889889 -3.42776266076608
 1 -12.37987155135514 -0.43436797439744 -3.89795329102910
 1 -11.19966624592459 -1.55341020812081 -3.29681830183018
 1 -9.25676527952795 -4.95551629452945 -1.93797706180618
 1 -7.85304466926693 -5.79356936113611 -1.01657127012701
 1 -9.34956484138414 -5.30283530483048 -0.23764558715872
 1 -3.44547524342434 -3.44599785048505 -0.28110338183818
 1 -1.59853802030203 -4.43360980068007  3.86995991129113
 1 -3.14640424902490 -5.74776639423942  3.50683352225222
 1 -1.80876898839884 -6.03699297249725  2.65665961886189
 1  2.65980528462846 -1.81722355825583 -1.53252721772177
 1  2.36417389498950 -0.07761348174817 -1.89466261846185
 1  4.43525443104310 -1.21200341554155  0.32781599759976
 1  4.11112007550755  1.22221093149315 -2.35406377607761
 1  5.60593600530053  1.95665592449245 -1.87530399859986
 1  5.77020432803280  0.64352546004600 -3.22645137613761
 1  6.67477954085409  1.38559255925593  0.00682332513251
 1  6.49715383478348 -0.10204824222422  0.71088080478048
 1  7.36456384108411 -1.24858409360936 -1.21593291689169
 1  7.67458989488949  0.36302951105111 -2.02932585618562
 1  9.16255830743074  0.90499838483848  0.18140577277728
 1  8.98498698739874 -0.81004651085109  0.47179504320432
 1  10.23616116751675 -0.03624108640864 -1.79121401090109
 1  9.34047903340334 -2.42498047454745 -2.07126305110511
 1  10.98770132583258 -2.57109389328933 -2.05239948384838
 1  10.04559744574457 -2.67544948694869 -0.43796323602360
 1  11.57391507240724  0.88171040124012  0.09856134363436
 1  11.50952400580058 -0.67684364566457  0.69423004460446
 1  12.90154347324733 -1.43925208640864 -1.27064473207321
 1  12.83284703720372 -0.05416472547255 -1.98999236053605
 1  13.98902033873387  0.95295785178518  0.11229857285729
 1  14.04023677677768 -0.57614721942194  1.04298081458146
 1  15.20190347884788  0.49782926792679 -1.31437579557956
 1  15.84558200110011 -2.11376166826683  0.25747429352935
 1  14.89802285298530 -2.37544992059206 -1.27816523162316
 1  16.67511714111411 -1.71145667056706 -1.33909537903790
 1  16.19062426312631  1.29616745044504  0.83377992229223
 1  16.43406785398540 -0.32650182528253  1.35548831003100
 1  18.32497343604360 -0.47517406480648 -0.23088642904290
 1  17.79442650715072  1.04832215111511 -0.76323989978998
 1  18.49233002560256  2.35417957565757  0.98029603490349
 1  18.65287244754476  0.67347152815282  1.89101910221022
 1  20.65072998569857  0.49925607380738 -0.05570850685068
 1  19.93610771737174  3.22596615851585 -0.93666726012601
 1  21.28825307740774  2.27182383518352 -1.48019938323832
 1  19.86711061546155  1.53857566836684 -1.78451542054205
 1  21.26947292249225  1.38998710781078  2.35692530973097
 1  22.08857056335633  2.28227945764576  1.01696666296630
 1  20.63024275417542  3.04914499779978  1.84971541204120

