%nproc=4
%Mem=3GB
# td=(NStates=1) iop(3/107=0140000000,3/108=0140000000) CAM-B3LYP/6-31G(d,p) 

TD

0 1
12 -7.25061975367537  0.54116249974997  0.18238460846085
 6 -4.91580039653965 -1.95467269786979  0.42231763416342
 6 -4.84237026762676  2.77876659455946  1.25785589078908
 6 -9.32793955845585  3.21304885788579 -0.28586106140614
 6 -9.61480757875788 -1.75284705040504 -0.89055586048605
 7 -5.11029806100610  0.37169325992599  0.72941076507651
 6 -4.31628387568757 -0.72219336253625  0.80141803650365
 6 -2.88962518311831 -0.51815021302130  1.22689835893589
 6 -3.03471669856986  0.90211891349135  1.77832411171117
 6 -4.40946118081808  1.43975862696270  1.16118051195120
 6 -2.94421060186019  1.11822464176418  3.37951326592659
 6 -1.87445317501750 -0.69066505570557  0.10597440774077
 6 -0.40494620382038 -0.47346059405941  0.56516989928993
 6  0.51213313651365 -0.75883250515052 -0.62605239533953
 8  0.15016523332333 -0.99145292299230 -1.77270466356636
 8  1.78018661706171 -0.59091903030303 -0.27128251585159
 7 -6.94071171457146  2.62328553845385  0.37895881998200
 6 -5.96150629442944  3.41327509490949  0.87463333943394
 6 -6.29314422282228  4.87473433703370  0.77622588128813
 6 -7.53310809610961  4.89009081428143  0.13487961436144
 6 -8.04563409090909  3.47898483728373  0.04678267686769
 6 -5.32371440534053  5.90318979267927  1.14871502670267
 6 -8.40988099609961  6.07510778037804  0.02329294179418
 6 -8.38749715971597  7.22728187788779  0.66502056135614
 7 -9.16381542264226  0.72104909930993 -0.53971054495450
 6 -9.86418390469047  1.87819114341434 -0.68262107560756
 6 -11.12503645634563  1.62589203370337 -1.11018587828783
 6 -11.27753724092409  0.17956550235023 -1.20258028632863
 6 -9.96795439903990 -0.32225241864186 -0.88414061536154
 6 -12.32171310901090  2.58426366776678 -1.27494694739474
 6 -12.41780557345735 -0.62357848164816 -1.70207953855386
 6 -12.20868277717772 -0.98518871117112 -3.13787443864386
 7 -7.28235119751975 -1.40974581028103 -0.18071074617462
 6 -8.41640596689669 -2.26819536503650 -0.54228580848085
 6 -7.94121616141614 -3.62169272067207 -0.46237653745375
 6 -6.56358414891489 -3.58031101320132 -0.07809989168917
 6 -6.28275200690069 -2.21330928672867  0.08163999939994
 6 -8.72123446294630 -4.85403150155016 -0.75479886298630
 6 -5.48256371927193 -4.36599016241624  0.21454642874287
 8 -5.37734872717272 -5.64633149014901  0.26046199479948
 6 -4.21292579517952 -3.40341778917892  0.46774509610961
 6 -3.67875205200520 -3.67004494719472  1.90341631013101
 8 -3.93899668306831 -3.07591494939494  2.90728408660866
 8 -2.92565791859186 -4.79530814931493  1.80065910341034
 6 -2.47777673467347 -5.30294550045004  2.97397479787979
 6  2.81308762916292 -0.81149943884388 -1.24203772097210
 6  4.18901978717872 -0.56191145904590 -0.68149071187119
 6  5.13584907620762  0.21310783878388 -1.11677455445545
 6  5.09496322192219  0.96339401470147 -2.41428556355636
 6  6.49023530223022  0.33760437643764 -0.30108063246325
 6  7.70420187278728 -0.22351089908991 -1.08052838153815
 6  9.01320903250325 -0.16334815091509 -0.30028613101310
 6  10.27079253985399 -0.63751541474147 -0.92996871687169
 6  10.19198247484749 -2.05035291519152 -1.43777074307431
 6  11.47887255105510 -0.39473436453645 -0.11353931643164
 6  12.85379311481148 -0.41625165866587 -0.77610511561156
 6  13.96332760456045  0.05474976067607  0.08052446404640
 6  15.32385837683768  0.06081699809981 -0.63449910241024
 6  15.80769704070407 -1.45292368066807 -0.92749457575758
 6  16.35711270397040  0.81504802210221  0.38181291599160
 6  17.76237382508251  0.87616134573457 -0.11806833383338
 6  18.84116453505350  1.49587766626663  0.83868712541254
 6  20.36351915631563  1.31109054155416  0.46059276527653
 6  20.51859470527053  2.03675098019802 -0.80880557645765
 6  21.28985405240524  1.81722342224222  1.57443138313831
 1 -3.99365972947295  3.25594884628463  1.56667276307631
 1 -9.91019314261426  4.16374864936494 -0.46562108830883
 1 -10.45116954105411 -2.54573010811081 -0.97980579998000
 1 -2.62405969316932 -1.23572377507751  1.93511000170017
 1 -2.21922538883888  1.55960802190219  1.35216886588659
 1 -1.79406249264926  0.79664877127713  3.68460879827983
 1 -3.01502861196120  2.43144236703670  3.36188421062106
 1 -3.70026282678268  0.68424357865787  3.97870955615562
 1 -1.85180029902990 -1.80130080088009 -0.11255926302630
 1 -2.12299866886689  0.04345196499650 -0.71174790939094
 1 -0.21698712741274  0.44264385168517  0.91764562756276
 1 -0.28642706300630 -1.22894366096610  1.19434289258926
 1 -5.49026320402040  6.94592210421042  0.66243607490749
 1 -5.38842031333133  6.06119900130013  2.17910992349235
 1 -4.29860470507051  5.62996726472647  0.65121585418542
 1 -9.31937219701970  5.92285566756676 -0.73437479017902
 1 -9.01769083278328  7.97884760576058  0.43867364306431
 1 -7.56355428752875  7.25641247764776  1.37190615091509
 1 -11.79604007700770  3.41054020112011 -1.82947877937794
 1 -13.12495979367937  2.12098084048405 -1.56700242844284
 1 -12.67452848554855  3.13550088418842 -0.35309574907491
 1 -12.51230319521952 -1.65456637943794 -1.17422092299230
 1 -13.45193749284929 -0.22975568606861 -1.52061781618162
 1 -13.03508870807081 -1.67656131823182 -3.52590354845485
 1 -12.20968137383738 -0.14352282358236 -3.92029100750075
 1 -11.34155899529953 -1.65445647284728 -3.22720099829983
 1 -9.31213583218322 -4.75118161896190 -1.63099916291629
 1 -8.22888727392739 -5.78436438973897 -0.65781573667367
 1 -9.38841302030203 -4.80255870427043  0.07161489278928
 1 -3.43797131563156 -3.63713031863186 -0.32800053815382
 1 -1.93966735433543 -4.31425363876388  3.54337605520552
 1 -3.15659209650965 -5.75910543544355  3.81199223692369
 1 -1.83331385188519 -6.19409019381938  2.48561192229223
 1  2.67800585538554 -1.81285790859086 -1.55532698139814
 1  2.55479192049205 -0.01414332953295 -2.11514257175718
 1  4.31683216991699 -1.05687410121012  0.29330073027303
 1  4.02923823532353  1.11691723442344 -2.90748123382338
 1  5.33352028422842  1.86321674557456 -2.04920235863586
 1  5.66999656815682  0.75607679857986 -3.24746100300030
 1  6.74723290719072  1.36409639023902 -0.20628101420142
 1  6.48291616371637 -0.31581891859186  0.52377857335734
 1  7.58266038883889 -1.36667734073407 -1.42041679887989
 1  7.93327588608861  0.53801290429043 -1.88415923882388
 1  9.05466151045104  0.88821831933193 -0.11405897779778
 1  8.74477759855986 -0.81905025772577  0.71341746514651
 1  10.46325095689569  0.09475562336234 -1.87507266526653
 1  9.39625923502350 -2.17578586208621 -2.07216559845985
 1  11.08031717231723 -2.39231263056306 -1.88425378347835
 1  10.29778197529753 -2.74879899459946 -0.50063745744574
 1  11.32107374897490  0.63279971337134  0.40420819161916
 1  11.55374296979698 -1.23836513411341  0.53428974907491
 1  12.87439539203920 -1.31610903020302 -1.16820909240924
 1  12.72641847174717  0.37713264926493 -1.54899923362336
 1  13.81382280258026  0.98268363166317  0.55693052175218
 1  14.28980729132913 -0.55950232913291  1.11456383038304
 1  15.24828522992299  0.51068446544654 -1.58392966176618
 1  16.00306410321032 -2.19493883508351  0.05694755925593
 1  15.14937658205821 -1.97850237023702 -1.49523089658966
 1  16.79612789238924 -1.54833573057306 -1.36404291759176
 1  15.89669294279428  1.84956329002900  0.58525444174417
 1  16.39664374217422  0.13249696489649  1.29327782248225
 1  17.91162790049005 -0.27510402440244 -0.17367756335634
 1  17.87676498609861  1.33526242034203 -1.10164590819082
 1  18.39506856375638  2.58815008300830  0.97977992479248
 1  18.81356731923193  0.91439627912791  1.88061130663066
 1  20.58292812511251  0.23737473507351  0.31523741594159
 1  20.55975279377938  3.15058583508351 -0.87148933363336
 1  21.49068286908691  1.84076521862186 -1.38464644584458
 1  20.00706910451045  1.63426371657166 -1.73664204860486
 1  21.05527938143814  1.13656929782978  2.45674934373437
 1  22.45499339213921  1.72751322202220  1.38514516811681
 1  21.06570664916492  2.82184830203020  1.62735987268727

