%nproc=4
%Mem=3GB
# td=(NStates=1) iop(3/107=0140000000,3/108=0140000000) CAM-B3LYP/6-31G(d,p) 

TD

0 1
12 -7.21837652935293  0.70136852035204  0.16106247624762
 6 -4.85061387788779 -1.95616284688469  0.47453285568557
 6 -4.80002603320332  2.78027674557456  1.09357946314631
 6 -9.34021078557856  3.17068462146215 -0.51232370767077
 6 -9.60097619561956 -1.67350911661166 -1.01642844774477
 7 -5.09143617481748  0.44738082868287  0.60500832483248
 6 -4.34791703900390 -0.73268441164116  0.74824271897190
 6 -2.99890611121112 -0.48838723672367  1.25836150525053
 6 -3.11292451935194  0.96522522412241  1.74212049134914
 6 -4.36727696239624  1.48241289238924  1.14042843674367
 6 -2.90424660546055  0.98206102540254  3.27530284488449
 6 -1.90162589228923 -0.68078406760676  0.04748855915592
 6 -0.54709041824182 -0.46685993399340  0.67750113241324
 6  0.53288521172117 -0.94656127802780 -0.45899568966897
 8  0.23925414221422 -1.26447022472247 -1.55515290839084
 8  1.70823942234223 -0.52087202560256 -0.12765815341534
 7 -7.01772941634163  2.69948315821582  0.28174909900990
 6 -5.95641578537854  3.35639940734073  0.84705058115812
 6 -6.27290219861986  4.80069693329333  0.91519977867787
 6 -7.64329911521152  4.93438524372437  0.41810793719372
 6 -8.08487801530153  3.56375331413141  0.06812481108111
 6 -5.24670670457046  5.91688116181618  1.32525268046805
 6 -8.46163617161716  6.08776904650465  0.15660627312731
 6 -8.24518292829283  7.34690384008401  0.61943600290029
 7 -9.16847588868887  0.68232522692269 -0.51608818271827
 6 -9.88090557685769  1.87886121042104 -0.72178499199920
 6 -11.28703265596560  1.61657110161016 -1.18035289498950
 6 -11.21523101030103  0.27144469026903 -1.26387641594159
 6 -9.97054465806581 -0.32660285368537 -0.91834403570357
 6 -12.32206314401440  2.67255249664966 -1.41947139983998
 6 -12.44283807670767 -0.60729685348535 -1.69788911951195
 6 -12.40793270217022 -1.07538773107311 -3.25265591679168
 7 -7.25518848124812 -1.38419325502550 -0.18471114621462
 6 -8.31850617691769 -2.23699224472447 -0.58521010091009
 6 -7.94977701750175 -3.58648920032003 -0.60954125392539
 6 -6.58398618911891 -3.61999498159816 -0.25029711141114
 6 -6.23772750445044 -2.16867482328233  0.00462229762976
 6 -8.75942828232823 -4.76005210361036 -0.90013339643964
 6 -5.44271973487349 -4.39420298369837  0.19884485858586
 8 -5.21308230053005 -5.55960281728173  0.27567351595160
 6 -4.27920242284228 -3.38678612601260  0.58181650325033
 6 -3.74114829162916 -3.76723466616662  1.92863883238324
 8 -3.83240602400240 -3.26613397129713  3.04356771497150
 8 -3.00079543234323 -4.79803842234223  1.74045308280828
 6 -2.29370832783278 -5.43299850575058  2.88431583198320
 6  2.78500482088209 -0.93559184808481 -1.01819533673367
 6  4.08834972017202 -0.43576884478448 -0.33633619641964
 6  5.09763525482548  0.16639316731673 -0.97716059305931
 6  5.08967269286929  0.83400107540754 -2.36786092109211
 6  6.52568884758476  0.32494311031103 -0.24104462886289
 6  7.76636808940894 -0.31702025002500 -0.96505683438344
 6  9.01622933453345 -0.14694651075108 -0.16759286168617
 6  10.23039850045005 -0.67799946314631 -0.92936865686569
 6  10.22295557215721 -2.14267214711471 -1.25818278427843
 6  11.47188185198520 -0.19994488558856 -0.18744670717072
 6  12.85929366486649 -0.49958999249925 -0.79486699179918
 6  13.91749302110211 -0.05807152145215  0.21359777137714
 6  15.37424341534153 -0.05057414101410 -0.48141379387939
 6  15.70025629662966 -1.45755414371437 -0.74645647194719
 6  16.45116210891089  0.65268178547855  0.40856559125913
 6  17.85437302500250  0.84644837443744 -0.13934046104610
 6  18.88179859845985  1.52428050655066  0.78365162186219
 6  20.36169897429743  1.36793622612261  0.14351105710571
 6  20.37356020182018  2.22384969006901 -1.15158985488549
 6  21.23059812681268  2.05741744164416  1.23452739273927
 1 -4.06860722422242  3.19142239363936  1.51262735853585
 1 -10.30521264456446  3.95052732723272 -0.61935646184618
 1 -10.42277670177018 -2.36258179327933 -1.25068288768877
 1 -2.60602788998900 -1.04921512421242  2.08300479117912
 1 -2.23799726602660  1.46906896799680  1.32102575157516
 1 -1.95549863626363  0.75234434083408  3.63380371777178
 1 -3.21002811191119  2.01442066486649  3.83168119031903
 1 -3.52595539603960  0.12333748804880  3.57203888908891
 1 -1.85226034503450 -1.65106577737774 -0.13129113621362
 1 -2.15397176617662 -0.03614599479948 -0.78174490909091
 1 -0.10351578027803  0.47598718601860  1.15285914891489
 1 -0.13423184348435 -0.94180494709471  1.60658411671167
 1 -5.21472565026503  6.83651116311631  0.64527435873587
 1 -5.50658212951295  6.42191507290729  2.41490350285028
 1 -4.40662550715072  5.42920718871887  1.19753048564857
 1 -9.24979523932393  5.86781016301630 -0.72399375207521
 1 -8.89904896859686  8.29281900290029  0.24599437513751
 1 -7.32805073717372  7.52784962136214  1.31723068336834
 1 -11.96647712071207  3.50736988408841 -2.13820965246525
 1 -13.27643494119412  2.12331107350735 -1.73370909910991
 1 -12.44324535723572  3.29672700680068 -0.50759119861986
 1 -12.54992695759576 -1.46745766856686 -1.01418491939194
 1 -13.45537783688369 -0.29359206970697 -1.60661641604160
 1 -13.40614581378138 -1.46315997809781 -3.59235019311931
 1 -12.17502790849085  0.03216474517452 -3.65078405680568
 1 -11.51973681308131 -1.88382941014101 -3.58149642784278
 1 -9.05436005460546 -4.68868536933693 -2.00318638163816
 1 -8.03311769696970 -5.59766571987199 -0.88494844994499
 1 -9.58545272427243 -4.84935338373837 -0.31477374607461
 1 -3.60397791629163 -3.49128573417342 -0.39582732083208
 1 -1.82921630923092 -4.54048626202620  3.51457317491749
 1 -3.17167360466047 -6.00644016891689  3.58698973667367
 1 -1.51154167466747 -6.01795258005801  2.52813617471747
 1  2.82983103790379 -2.03683030583058 -1.08217966666667
 1  2.63184962626263 -0.39768168336834 -2.00888194569457
 1  4.20898138483848 -1.03513192699270  0.65533693389339
 1  3.92843815531553  0.99975551825182 -2.71334181988199
 1  5.53066999919992  1.83976440034003 -2.33428086648665
 1  5.69023859235924  0.32569376027603 -3.20375663256326
 1  6.69776796069607  1.42682266286629 -0.18916930303030
 1  6.52843071517152 -0.17226456315632  0.72889908540854
 1  7.45456757955796 -1.44656532953295 -0.99628438563856
 1  7.85054761326133  0.00927003000300 -2.12185300820082
 1  9.28877492179218  0.84581407890789  0.26461888998900
 1  8.83635675647565 -0.75523387608761  0.88914503790379
 1  10.21360599239924 -0.12340619281928 -1.91894705270527
 1  9.45138474757476 -2.54202248574858 -1.91040942284228
 1  11.23983312391239 -2.36794019331933 -1.69577493559356
 1  9.91168336543655 -2.64403851855186 -0.32403979767977
 1  11.50635227682768  0.72228866226623  0.07742551335134
 1  11.50412800830083 -0.78078937653765  0.76443276337634
 1  13.06019397189719 -1.41616903620362 -1.12674494599460
 1  13.17613344324432  0.36767170317032 -1.67574190789079
 1  13.75010643094310  1.03744910821082  0.46611143984398
 1  13.96656496709671 -0.54221059996000  1.27063943794379
 1  15.40815121652165  0.45066846384638 -1.36501777057706
 1  16.01567536433643 -2.23278261946195  0.19399126362636
 1  14.96533817821782 -1.97458197819782 -1.46920829432943
 1  16.72093037263726 -1.56565746274627 -1.21982849614961
 1  16.27639091259126  1.72474080778078  0.78411432773277
 1  16.52852693049305 -0.03959024382438  1.22168066276628
 1  18.38557529522952 -0.20712722672267 -0.33600379597960
 1  17.80591790139014  1.27802669676968 -1.12132787638764
 1  18.66121517841784  2.60879214721472  1.22333428022802
 1  19.13690965346535  0.95554039353935  1.64827807330733
 1  20.73470330263027  0.32792378997900 -0.24172828062806
 1  19.86940375887589  3.17193797029703 -1.17469965466547
 1  21.35260906170617  2.33562470457046 -1.74559254045405
 1  19.97410580818082  1.73252354255426 -2.12452083648365
 1  21.22167602110211  1.43079872077208  2.14363803260326
 1  22.31810970377038  2.32609308000800  0.78760541414141
 1  20.85006508500850  3.13311942914291  1.37475461216122

