%nproc=4
%Mem=2GB
# td=(NStates=1) CAM-B3LYP/6-31G(d,p) 

TD

0 1
<<<<<<< HEAD
12 -7.19206977997800  0.63367211531153  0.17542522992299
 6 -4.90296491449145 -1.90068124652465  0.56797333003300
 6 -4.90539046794679  2.79356780408041  1.28934529942994
 6 -9.43104784028403  3.03867936343634 -0.39017187688769
 6 -9.60590090379038 -1.71647715871587 -0.77368379747975
 7 -5.19464288888889  0.51660147824782  0.75882630093009
 6 -4.34480418651865 -0.64744456645665  0.73791181438144
 6 -2.96870587598760 -0.32306173187319  1.15111546574657
 6 -3.00300373877388  1.15610827912791  1.74703543424342
 6 -4.40703769866987  1.52258300710071  1.16144317421742
 6 -2.95067014911491  1.20188247634763  3.23051446034603
 6 -1.90386384738474 -0.45928118951895  0.02945690399040
 6 -0.41436885948595 -0.34833918111811  0.46676080538054
 6  0.51841297849785 -0.74624813771377 -0.64518989948995
 8  0.29223046314631 -1.11809721732173 -1.78017434913491
 8  1.81977378787879 -0.46382377877788 -0.26462325122512
 7 -7.18440888878888  2.64412000180018  0.30716941244124
 6 -6.06517579657966  3.32980395619562  0.82038557215722
 6 -6.47899515261526  4.69981427082708  0.82606329352935
 6 -7.80666337333733  4.89103973547355  0.37782617391739
 6 -8.17359163076308  3.50655985128513  0.05171771807181
 6 -5.52132008870887  5.94899736563656  1.04670943144314
 6 -8.62907070467047  5.99953098679868  0.05473245864586
 6 -8.52325621692169  7.18694481308131  0.69012526232623
 7 -9.17860013261326  0.64179704080408 -0.42139617331733
 6 -9.92616887658766  1.79540949404940 -0.63978030213021
 6 -11.25967506410641  1.51352969206921 -1.04363608310831
 6 -11.26871927582758  0.10414577867787 -1.23824253825383
 6 -10.07629331003100 -0.44782675697570 -0.63342835893589
 6 -12.36554537823782  2.52084265526553 -1.45847262206221
 6 -12.33519806610661 -0.79989739983998 -1.68813962246225
 6 -12.39997748614861 -1.24510692189219 -3.17164228282828
 7 -7.29576904520452 -1.41924153775378 -0.19590426742674
 6 -8.24872511231123 -2.30744591669167 -0.45047000220022
 6 -7.76801294689469 -3.65897416491649 -0.35943322062206
 6 -6.50686457055706 -3.52606694369437  0.05120338843884
 6 -6.22373496989699 -2.21501978327833  0.13306611081108
 6 -8.52701016841684 -4.89417225962596 -0.75202368076808
 6 -5.24406887718772 -4.29581346484648  0.19953282588259
 8 -4.98335717361736 -5.50788527192719  0.19825685638564
 6 -4.17272085148515 -3.26220201000100  0.51134099939994
 6 -3.46450708160816 -3.64315953725373  1.75108548144814
 8 -3.71694329492949 -3.17729446564656  2.85324800590059
 8 -2.60695188888889 -4.70130485288529  1.56913549444944
 6 -2.01781236913691 -5.15691992109211  2.74841977747775
 6  2.82114462616262 -0.70508830343034 -1.19773097349735
 6  4.17139922892289 -0.40636881318132 -0.63370351935194
 6  5.16407989238924  0.40153641904190 -1.11838161086109
 6  5.19695811881188  1.17124977427743 -2.30335450075007
 6  6.53316764956496  0.65860771097110 -0.30231671687169
 6  7.60965850375038 -0.00598094499450 -1.09372632313231
 6  8.95980785338534 -0.13149828022802 -0.25961777457746
 6  10.25922654715471 -0.65337240894089 -1.03022399289929
 6  10.13242994319432 -2.08464940104010 -1.40467393239324
 6  11.34279715661566 -0.39687346814681 -0.10096922832283
 6  12.79406431413141 -0.58407245834583 -0.77555757865787
 6  13.92817228562856 -0.12115331813181  0.13259032653265
 6  15.39320544544455 -0.33051678077808 -0.36966520632063
 6  15.74155582448245 -1.81956959075908 -0.67313693139314
 6  16.46225033093310  0.36095045504550  0.54170867806781
 6  17.82073666306631  0.64709610801080 -0.11439725432543
 6  18.81555192469247  1.26053427042704  0.83729416241624
 6  20.20607927712771  1.31128146164616  0.34774953815382
 6  20.38523987778778  2.05059335653565 -0.99360035273527
 6  21.08824975577558  2.01327426372637  1.48446380978098
 1 -4.31142262676268  3.52075759715972  1.50283487038704
 1 -10.10628102080208  3.80247108210821 -0.81808720022002
 1 -10.37796108550855 -2.32829217001700 -0.86576322852285
 1 -2.67723418031803 -0.89670798469847  1.92508319951995
 1 -2.19438304350435  1.75887947054706  1.28774942534253
 1 -2.00542500000000  0.98583903680368  3.70754446794679
 1 -2.89161422142214  2.38174223172317  3.66856902230223
 1 -3.73385682838284  0.54282896689669  3.75963837663766
 1 -2.09398188308831 -1.60298025842584 -0.10316422562256
 1 -2.16887856035604  0.17657490789079 -0.86554659425943
 1 -0.11401491889189  0.78674328822882  0.63195359445945
 1 -0.26738454045405 -0.93690820602060  1.47946190139014
 1 -5.87287606300630  6.57827647174717  0.13491920112011
 1 -5.51653864326433  6.56990035313531  2.01374767186719
 1 -4.48300225622562  5.70000116651665  0.91702487808781
 1 -9.27804985748575  5.93132928102810 -0.97031725992599
 1 -9.27962917881788  8.09403014191419  0.53959358115812
 1 -7.89914938073807  7.42554895439544  1.30837922342234
 1 -12.15580968606861  3.37311763776378 -2.12844584928493
 1 -13.25207487668767  1.99704359555956 -1.70672186368637
 1 -12.44976670777078  3.07729638433843 -0.41955319931993
 1 -12.46647142554255 -1.77086653175318 -0.88938389328933
 1 -13.22616133503350 -0.12788952575258 -1.11245677317732
 1 -13.43904025662566 -1.77133181938194 -3.23647353185319
 1 -12.57965152935294 -0.27374191179118 -3.75244874057406
 1 -11.59486576587659 -1.81209607670767 -3.30926954695469
 1 -8.74310391339134 -5.01845258815882 -1.88950221432143
 1 -8.09378874367437 -5.91067107130713 -0.47294690769077
 1 -9.56170605550555 -4.70577559885989 -0.26147797039704
 1 -3.26603729962996 -3.41205445614561 -0.23852912441244
 1 -0.98068623512351 -4.60379681938194  3.09842275757576
 1 -2.83119272787279 -5.10848246584658  3.68593143204320
 1 -1.48650676217622 -6.27599687288729  2.33913786668667
 1  2.79267857195720 -1.86071790769077 -1.50341430643064
 1  2.63375085268527 -0.08074379477948 -2.25946909910991
 1  4.25247615321532 -0.98105032023202  0.32099531553155
 1  4.29530849434944  1.37873658405841 -2.94063243294329
 1  5.54695010671067  2.24973523242324 -2.29594606280628
 1  5.59903721132113  0.73203431093109 -3.24345307630763
 1  6.76637870077008  1.72081608160816 -0.09613697089709
 1  6.43388750815082  0.36554851745175  0.79802951965197
 1  7.31593897859786 -1.16439567476748 -1.31295261886189
 1  7.69732216811681  0.39245245334533 -2.25745866946695
 1  9.27322937453745  0.97423530853085  0.15573320552055
 1  8.92910139883988 -0.83474898109811  0.60504836853685
 1  10.54618216961696 -0.01420888318832 -1.77749263876388
 1  9.52731771727173 -2.18230620712071 -2.22554847964797
 1  11.09943249894989 -2.55350213411341 -1.73182742664266
 1  9.64916780278028 -2.48512045404540 -0.65882532223222
 1  11.35191287218722  0.57692992319232  0.37309879737974
 1  11.26160921432143 -1.07390335163516  0.68534915651565
 1  12.84337765666567 -1.48772693389339 -1.15418308590859
 1  12.90472422492249  0.29593028402840 -1.61676503780378
 1  13.70272170887089  0.82795535153515  0.43270061306131
 1  13.81969472257226 -0.76621622632263  1.13747026352635
 1  15.33628691719172  0.34556404140414 -1.24383874187419
 1  15.73070051295130 -2.14494478657866  0.43554210031003
 1  15.00687373807381 -2.35748812441244 -1.28424583968397
 1  16.63439306870687 -2.00598612351235 -1.09361083058306
 1  16.20134533523352  1.28457629132913  0.77231377567757
 1  16.58759320652065 -0.16659583468347  1.45678844004400
 1  18.30426136483648 -0.19247579497950 -0.56361970237024
 1  17.70760782528253  1.28665598449845 -0.87807138293829
 1  18.44657545014502  2.32134629232923  0.99315732103210
 1  18.76412357265727  0.75163934493449  1.90363036333633
 1  20.44498941164116  0.28280442864286  0.13134019801980
 1  19.89400350695069  3.05440900280028 -1.02237583098310
 1  21.42607685978598  2.25493214601460 -1.41130249354935
 1  19.90957486188619  1.25279709050905 -1.69449641864186
 1  20.93113908910891  1.57962607170717  2.37095671287129
 1  22.16230793709371  1.98377960766077  1.21602656895690
 1  20.70011974187419  3.13625370867087  1.41324176467647
=======
12 -7.25025559855986  0.57989673777378  0.08204589198920
 6 -4.79696431443144 -1.92701387978798  0.54299083178318
 6 -4.90647057595760  2.74670311761176  1.12603896879688
 6 -9.54021875737574  3.08635413091309 -0.45696855655566
 6 -9.49226954065407 -1.84517002800280 -0.88438486758676
 7 -5.22941636623662  0.41875169326933  0.63315373367337
 6 -4.37344705080508 -0.62947276927693  0.76111413461346
 6 -3.00137914331433 -0.33226265196520  1.22409276347635
 6 -3.03021646004600  1.17406007430743  1.57849858055806
 6 -4.49766676157616  1.52970371917192  1.11603863376338
 6 -3.00911599369937  1.39769205730573  3.07536894579458
 6 -1.95406886788679 -0.63175843724372 -0.02910895259526
 6 -0.47579500210021 -0.40130447764776  0.45554968426843
 6  0.69343048024802 -0.75879939283928 -0.56046142664266
 8  0.30957219731973 -0.95256066366637 -1.75367169886989
 8  1.83893570407041 -0.43950134653465 -0.10002679157916
 7 -7.20444089198920  2.60804639443944  0.38601729722972
 6 -6.12028130713071  3.29849082488249  0.74081761536154
 6 -6.53755100820082  4.76563085248525  0.74578526572657
 6 -7.83366607360736  4.82511314281428  0.33766215751575
 6 -8.24777904950495  3.48562775807581 -0.01574902860286
 6 -5.43508146484648  5.80853331923192  1.13875863636364
 6 -8.56179397699770  6.00542157585759  0.19277626302630
 6 -8.43172706400640  7.11999811841184  0.92001825162516
 7 -9.17936020862086  0.64863772487249 -0.65510954465447
 6 -9.89510577027703  1.74905485858586 -0.76673299739974
 6 -11.28914801140114  1.41165950505050 -1.13328504800480
 6 -11.29652205610561  0.07680304440444 -1.32258097209721
 6 -9.93074875557556 -0.47525950025003 -0.90264528062806
 6 -12.32261108480848  2.35003557455746 -1.39809658445845
 6 -12.44003855015502 -0.83977138723872 -1.81895270377038
 6 -12.47813530193019 -1.01659407060706 -3.32071719031903
 7 -7.23476294459446 -1.32763237683768 -0.05484016101610
 6 -8.24403464326433 -2.22588776087609 -0.48228318351835
 6 -7.87849399499950 -3.58678694619462 -0.46598387568757
 6 -6.51567545164516 -3.48668300530053 -0.04787651955196
 6 -6.22128472487249 -2.14715299659966  0.22713551775178
 6 -8.58337580498050 -4.84444728712871 -0.93166164456446
 6 -5.34093856415642 -4.31856574007401  0.29136200880088
 8 -5.07677651555155 -5.55001948534853  0.12002903360336
 6 -4.17120069946995 -3.29425521532153  0.63765363066307
 6 -3.56604723562356 -3.75582080338034  1.91319169206921
 8 -3.78570017061706 -3.12685942214221  2.91580426152615
 8 -2.70019121282128 -4.66022074447445  1.79054763566357
 6 -2.02474306220622 -5.12152638173817  3.00299523502350
 6  2.81861437313731 -0.54358215281528 -1.07686888728873
 6  4.13190527952795 -0.35703387968797 -0.45009515851585
 6  5.14424790919092  0.32245851125112 -0.79799957265727
 6  5.19952837583758  1.22040468976898 -2.02246641194119
 6  6.51303563636364  0.50602245244524 -0.00709719491949
 6  7.66861439933993 -0.03670401730173 -0.87652460296030
 6  8.95156702930293 -0.07561269166917  0.08211639883988
 6  10.10243086758676 -0.51241831353135 -0.73363433393339
 6  10.16263296349635 -1.92553348944894 -1.32374583958396
 6  11.54413729062906 -0.32194597539754  0.00775164376438
 6  12.81776668436844 -0.45055910701070 -0.72508253115312
 6  14.00266973537354 -0.14604580738074  0.17988505600560
 6  15.37458358325833 -0.20864459355936 -0.47850609040904
 6  15.86915858475848 -1.63177081088109 -0.96552617031703
 6  16.47772187808781  0.41787614761476  0.33980848804880
 6  17.83814840424042  0.39644104250425 -0.28773458805881
 6  18.85869623912391  1.18393661066107  0.59718015101510
 6  20.34648331753175  1.23097343084308  0.15201996519652
 6  20.40113146694669  2.03555185238524 -1.10541153385339
 6  21.24507543834384  1.83272620892089  1.23876924032403
 1 -4.30366185068507  3.66323184458446  1.55186977387739
 1 -10.38132852555256  3.74810564556456 -0.67377276877688
 1 -10.27059034843484 -2.56279562036204 -1.18203485568557
 1 -2.85536199309931 -0.80775908980898  2.26880757195720
 1 -2.08642224742474  1.82950653325333  1.06298694909491
 1 -1.97609206670667  1.39083953685369  3.29735344884488
 1 -3.24419947994799  2.58542259975998  3.34936710211021
 1 -3.58525196789679  0.45436012001200  3.65056746954695
 1 -1.90918340324032 -1.74536449684969 -0.23025693489349
 1 -2.33358503100310  0.01324857525753 -0.91874191379138
 1 -0.27195071247125  0.57913252715272  0.81190158925893
 1 -0.25239304130413 -0.89241375657566  1.45799975517552
 1 -5.79564834023402  6.59294793889389  0.56806251545155
 1 -5.24437142654265  5.98961232433243  2.16815311241124
 1 -4.52284624062406  5.45249641604160  0.93357653325333
 1 -9.42495454795480  6.06006215431543 -0.43685391359136
 1 -8.99388060396040  8.03110384928493  0.58153777557756
 1 -7.93391285708571  7.30856725622562  1.98030641614161
 1 -12.16117022212221  2.64242456845685 -2.48594159885989
 1 -13.23227289648965  1.74653854505451 -1.39366055755576
 1 -12.56380811191119  3.25366402110211 -0.63341458545855
 1 -12.25980075847585 -1.75015446054605 -1.10527548244824
 1 -13.39387810671067 -0.41874861166117 -1.39802533003300
 1 -13.36424277687769 -1.69680436663666 -3.41154103860386
 1 -12.75392895709571 -0.11452599019902 -4.03006650235023
 1 -11.57578385768577 -1.44489935703570 -3.73720234023402
 1 -8.79482908590859 -4.73404414731473 -1.96926019011901
 1 -7.87800716551655 -5.69599960416042 -0.93458307130713
 1 -9.51298118301830 -5.20594561586159 -0.40535235783578
 1 -3.32646334223422 -3.48423167386739 -0.16521179267927
 1 -1.34962312881288 -4.34548098779878  3.49434234953495
 1 -2.85580518911891 -5.09259087668767  3.87561039993999
 1 -1.56943505500550 -6.07165643884388  2.89125307820782
 1  2.74840414451445 -1.48220005590559 -1.51858582358236
 1  2.62645012261226  0.24232851245125 -1.79568272047205
 1  4.40717162276228 -1.02070428562856  0.42138535453545
 1  4.25740470397040  1.13773248364837 -2.72396076577658
 1  5.37113252495250  2.39586984588459 -2.12946941514151
 1  6.00212752035204  0.85024613211321 -2.69685841684168
 1  6.66212827572757  1.34139813981398  0.40030267306731
 1  6.46438055745575 -0.28935697309731  0.84151386808681
 1  7.28209559425943 -1.03995323052305 -1.33144446804680
 1  7.84388682458246  0.59710291839184 -1.81909483308331
 1  9.14114616621662  0.89840772577258  0.35628326052605
 1  8.79253774247425 -0.83138864506451  0.89853771747175
 1  10.30823837523752  0.05175771347135 -1.63572846234623
 1  9.52028701420142 -2.10097807430743 -2.32463838863886
 1  11.23864642034203 -2.27798458235824 -1.84494873877388
 1  9.90968385438544 -2.67458940094009 -0.62945238493849
 1  11.43512119301930  0.68455068526853  0.37514900240024
 1  11.44631768516852 -0.96357231853185  0.97555817741774
 1  12.99101242014201 -1.37551571277128 -1.01042871047105
 1  12.66540029252925  0.27556824782478 -1.60786414771477
 1  13.67175861256126  0.86122867886789  0.45484282728273
 1  14.05070782388239 -0.86958656335634  1.01030754725473
 1  15.46252954145415  0.38413789878988 -1.46392075007501
 1  16.13572101500150 -2.36098639073907 -0.16176763066307
 1  14.87787083778378 -2.15964834043404 -1.50007742284228
 1  16.77864749414942 -1.76378190309031 -1.68961043054305
 1  16.32870807150715  1.51732956665667  0.47186373067307
 1  16.51489593679368 -0.14506368146815  1.29486224742474
 1  18.19690062876288 -0.56259280668067 -0.65750909130913
 1  17.68274533903390  0.89451677057706 -1.24831840764076
 1  18.36821761436144  2.18401255895590  0.57831583688369
 1  18.77199435973597  0.55253943494349  1.45667566786679
 1  20.76868178087809  0.33887003520352  0.20656772077208
 1  19.96114022062206  2.97124068596860 -0.83159675307531
 1  21.39627387948795  2.21576822962296 -1.40749211251125
 1  19.85995990039004  1.84036584738474 -2.03351032003200
 1  21.27011298649865  1.21742985208521  2.22730234743474
 1  22.41154286058606  1.76830806050605  0.81453641994199
 1  20.96989671957196  2.90359044234423  1.64917535803580
>>>>>>> 8e03b5b5abfc0030b3aa597dc0de36371bfbd096

