%nproc=4
%Mem=2GB
# td=(NStates=1) CAM-B3LYP/6-31G(d,p) 

TD

0 1
12 -7.20687126012601  0.61439018711871  0.09757744514451
 6 -4.79551416941694 -1.94111528992899  0.53773030573057
 6 -4.88686861576158  2.86979542684268  1.21259762466247
 6 -9.45486022152215  3.01487698319832 -0.44318717841784
 6 -9.63593390709071 -1.79062457345735 -0.70875730483048
 7 -5.12135556015602  0.46069588768877  0.68087850615061
 6 -4.34982468856886 -0.62777259925993  0.79972799599960
 6 -2.81695070047005 -0.37208663436344  1.22292264646465
 6 -3.04264770317032  1.09824249254925  1.67856858755876
 6 -4.35423241814181  1.51647239603960  1.12733976387639
 6 -2.95811089318932  1.31917420552055  3.16144755365537
 6 -1.99265272627263 -0.56369163056306  0.00987494579458
 6 -0.44937235983598 -0.24871921912191  0.44222835213521
 6  0.48073921112111 -0.56112962586259 -0.62357773827383
 8  0.15231647174717 -1.05325073267327 -1.68770510221022
 8  1.77521933243324 -0.31041843824382 -0.22606939583958
 7 -7.03999444734473  2.61664725452545  0.19358805430543
 6 -6.05928520752075  3.37494847064706  0.70833436703670
 6 -6.49479673277328  4.79276356575658  0.76245693289329
 6 -7.77931063806381  4.80453108460846  0.30359875117512
 6 -8.15275954755476  3.43877307260726 -0.03310076377638
 6 -5.56577453415342  5.92779524542454  1.10963572407241
 6 -8.66148394599460  6.07542857655766  0.20368735413541
 6 -8.54125801710171  7.21686780538054  0.90302655245525
 7 -9.14592686528653  0.61757461856186 -0.44198823252325
 6 -9.90055631533153  1.75996594969497 -0.68643496759676
 6 -11.21980107670767  1.41691003010301 -1.11436315581558
 6 -11.29479188308831 -0.02219685558556 -1.19069778377838
 6 -10.00343602430243 -0.38570054435444 -0.75944096019602
 6 -12.29743856755676  2.37093766476648 -1.40444721952195
 6 -12.42896744304431 -0.87171458155816 -1.64740554905491
 6 -12.23183067146715 -1.16949936113611 -3.18151326992699
 7 -7.20978044634464 -1.47469708330833 -0.09715439243924
 6 -8.37829806960696 -2.29510468256826 -0.40128508370837
 6 -7.82545869146915 -3.65305357285729 -0.38351562886289
 6 -6.46937082118212 -3.58518285528553 -0.00613234513451
 6 -6.13871646804680 -2.18601688298830  0.08419122332233
 6 -8.44626209360936 -4.90864370677068 -0.67655613401340
 6 -5.24019849014902 -4.25753963746375  0.16996986958696
 8 -5.02282112001200 -5.47069155255526  0.08689572027203
 6 -4.11536511591159 -3.25040082988299  0.57438730403040
 6 -3.48053868476848 -3.70660588188819  1.89335970887089
 8 -3.62409401000100 -3.11185792199220  2.99820250135014
 8 -2.65320651435144 -4.66078080048005  1.71935051595160
 6 -2.16802739063906 -5.25651988108811  2.92805774127413
 6  2.76239875157516 -0.51895969056906 -1.32434363476348
 6  4.19725181418142 -0.38460663696370 -0.68278842784278
 6  5.16963044744474  0.40620688608861 -1.05114488718872
 6  5.02583100610061  1.29189183848385 -2.30024418971897
 6  6.43268760156016  0.37122897309731 -0.26286277147715
 6  7.67152469036904 -0.01250159705971 -1.06449339983998
 6  8.98559043164316 -0.10301543194319 -0.25604741754175
 6  10.26485711021102 -0.48467553925393 -1.08907987848785
 6  10.03097979817982 -1.99066000210021 -1.55543900890089
 6  11.40490336723672 -0.19190297109711 -0.19638877027703
 6  12.82518742644264 -0.46591064216422 -0.70831085398540
 6  13.91391085948595 -0.11483268606861  0.27052411991199
 6  15.26379250415042 -0.30947467656766 -0.37886612641264
 6  15.69049071797180 -1.72098973277328 -0.69089870757076
 6  16.42107621352135  0.33053741374137  0.47016152335234
 6  17.84402899229923  0.45524692309231 -0.18953476807681
 6  18.80216058555856  1.09587780478048  0.85882631563156
 6  20.28902757195720  1.26012634613461  0.35641040424042
 6  20.42373372717272  2.01300959815982 -0.97686867956796
 6  21.19572050285029  1.90703363966397  1.45870123352335
 1 -4.25838732323232  3.67822334373437  1.49713430033003
 1 -10.28027842054205  3.77256809180918 -0.71533692519252
 1 -10.17926121552155 -2.66111545234524 -1.00369702190219
 1 -2.75084154105410 -1.16271458535854  2.04791548274827
 1 -2.40487409260926  1.91201478407841  1.06149680008001
 1 -2.01475593309331  0.98335878877888  3.67694140764076
 1 -3.32113717371737  2.44002806030603  3.29917208260826
 1 -3.87022046474647  0.68204288828883  3.53836624942494
 1 -1.99611209610961 -1.56266622702270 -0.55524943414341
 1 -2.15696736923692  0.13368061846185 -0.83525356495650
 1 -0.46818033543354  0.89644425832583  0.88724912401240
 1 -0.28100590259026 -0.95260977617762  1.30940489568957
 1 -5.99342811821182  6.84582322642264  0.49806551575157
 1 -5.92117910731073  6.22924628772877  2.08980527762776
 1 -4.67384134013401  5.77123829022902  0.81772494809481
 1 -9.63054510701070  5.97633378147815 -0.37081730993099
 1 -9.28902011791179  7.86806754565457  0.88130775257526
 1 -7.66451591739174  7.44304070357036  1.47317570307031
 1 -11.95471957705771  3.27817814381438 -2.14065707040704
 1 -13.15127479667967  1.96316020722072 -1.93961515301530
 1 -12.70749248034804  3.06738539323932 -0.50437168116812
 1 -12.55201998039804 -1.75923536863686 -1.09975493039304
 1 -13.50049876877688 -0.25051178797880 -1.63057858535854
 1 -12.92156850945095 -2.01991667786779 -3.66128601310131
 1 -12.29206277047705 -0.29730426802680 -3.71559505520552
 1 -11.11201748104811 -1.38798366546655 -3.34743336333633
 1 -9.05548515151515 -4.75804654755476 -1.80873413751375
 1 -7.70090945574557 -5.61963196739674 -0.48303791679168
 1 -9.33077296219622 -5.11564658595860  0.05768394579458
 1 -3.28060875677568 -3.22089534023402 -0.18683395489549
 1 -1.94549271577158 -4.45694213391339  3.61539445474547
 1 -2.99401901050105 -5.75302692029203  3.47326016491649
 1 -1.20496860836084 -5.97128640184018  2.83912786568657
 1  2.70438974307431 -1.49633146904690 -1.85164912991299
 1  2.67703518111811  0.14297857745775 -2.04500765296530
 1  4.27687859345935 -1.11091330653065  0.36980019601960
 1  4.07929689318932  1.25748445884588 -2.69964833453345
 1  5.43423883558356  2.46495675457546 -2.37844431263126
 1  5.87593490109011  1.00056116361636 -3.04527325832583
 1  6.63976603950395  1.40590459045905  0.25786842964296
 1  6.33247736713671 -0.33951198859886  0.49359907660766
 1  7.44053143784378 -1.04218345354535 -1.33126445004500
 1  7.85787822372237  0.84971817991799 -2.00677360096010
 1  9.03594564616462  0.90626851185119  0.07230486268627
 1  8.92315080378038 -1.01016652285228  0.66209407310731
 1  10.28808636003600  0.08362089978998 -2.08071296079608
 1  9.08207319281928 -2.06241421792179 -2.06426235103510
 1  10.84961751745175 -2.47583436733673 -2.11383562746275
 1  10.04001688768877 -2.73249519151915 -0.69488892859286
 1  11.45483316421642  0.86202843304330  0.08116960446045
 1  11.29273232663266 -0.88825478677868  0.69609023062306
 1  12.80410372927293 -1.41054921612161 -0.96925459305931
 1  13.05347910041004  0.15607629862986 -1.74534789608961
 1  13.66660809750975  0.86713926992699  0.78495583858386
 1  14.09690244334433 -0.58912851755175  1.18377489398940
 1  15.41658494699470  0.39915940094009 -1.37089144714471
 1  15.79017646054606 -2.35209550165017  0.12647119321932
 1  14.62707575827583 -1.98308068366837 -1.16114352945295
 1  16.67894752415242 -1.85339086398640 -1.52647411691169
 1  16.18587378807881  1.36870470417042  0.63440998529853
 1  16.63853830103010 -0.34290346544655  1.44602736393639
 1  18.30024096279628 -0.63741028842884 -0.24087742814281
 1  17.71981904640464  0.84381170007001 -1.23722729852985
 1  18.30463125572557  2.13194735243524  1.23009101440144
 1  18.76328348864887  0.37786196719672  1.69541954225423
 1  20.62795770847085  0.22355850405041  0.34910197419742
 1  19.87059116571657  2.87360092199220 -0.80688428182818
 1  21.56522077417742  1.91105775857586 -1.20394175747575
 1  19.92775668006801  1.43006481728173 -1.86434340334033
 1  20.83237921312131  1.40220832993299  2.52647226442644
 1  22.15023672997300  1.93329455915592  1.09224419071907
 1  20.89429915981598  2.89767985128513  1.59561000150015

