%nproc=4
%Mem=2GB
# td=(NStates=1) CAM-B3LYP/6-31G(d,p) 

TD

0 1
12 -7.18859943294329  0.61508025612561  0.09316700410041
 6 -4.83273789178918 -1.91445262366237  0.43985051775178
 6 -4.79469939883988  2.83995244254425  1.06800316521652
 6 -9.44478921442144  3.09803529902990 -0.29370222992299
 6 -9.57621793549355 -1.69761527252725 -0.84446087518752
 7 -5.10240366496650  0.55243506160616  0.71082150045004
 6 -4.36884659075908 -0.63973379537954  0.75654367756776
 6 -2.91059006440644 -0.42725215091509  1.08262861706171
 6 -2.98720215861586  1.05942861116112  1.54317504820482
 6 -4.35243223812381  1.51803255205521  1.14863189308931
 6 -2.97526260836084  1.30425271337134  3.07536894579458
 6 -1.89390285128513 -0.57355261666167 -0.02760880258026
 6 -0.40889831243124 -0.39570391759176  0.61690581988199
 6  0.55283642084208 -0.78746225912591 -0.49655503600360
 8  0.23318455855586 -1.05035044264426 -1.53934026572657
 8  1.87675948644864 -0.76198359475948 -0.07398418731873
 7 -7.13495394329433  2.66135172497250  0.32268096359636
 6 -6.00892017101710  3.37759873567357  0.72348588218822
 6 -6.41877913101310  4.80890517991799  0.81569225642564
 6 -7.68909161616162  4.88970960246025  0.35493388468847
 6 -8.15019929152915  3.55610480578058  0.13819636593659
 6 -5.44267222392239  5.80856332223222  1.15545030553055
 6 -8.55090288788879  6.05245627932793  0.08178516391639
 6 -8.52139603090309  7.20946706530653  0.77437368716872
 7 -9.08284055665566  0.70000286138614 -0.60715474917492
 6 -9.87637389708971  1.88492844594459 -0.60330665476548
 6 -11.18469756635663  1.46298463756376 -1.11653337283728
 6 -11.23911631553155  0.12708807290729 -1.22574128812881
 6 -9.89577525822582 -0.34611658595860 -0.90210522662266
 6 -12.24432325602560  2.41790236123612 -1.18310508530853
 6 -12.39193373967397 -0.70760817091709 -1.68524933343334
 6 -12.25728321672167 -1.04835724692469 -3.22416753535354
 7 -7.28151762006201 -1.36823643724372 -0.08760343734373
 6 -8.29882012181218 -2.25983115521552 -0.45695065026503
 6 -7.86704284988499 -3.63356162366237 -0.51673895119512
 6 -6.46352023612361 -3.56263060006001 -0.18249998189819
 6 -6.18509110551055 -2.17533581488149  0.12815561976198
 6 -8.61781924932493 -4.87278012041204 -0.94677315571557
 6 -5.27801227152715 -4.38581246474647  0.21251412401240
 8 -5.10769960786079 -5.59678416181618  0.11199823052305
 6 -4.15980956035604 -3.29525531533153  0.49038890419042
 6 -3.58508913981398 -3.58469369066907  1.89926029892989
 8 -3.82949455005501 -3.01107784398440  2.96181886298630
 8 -2.74874606830683 -4.61810653305331  1.75292387328733
 6 -2.21344193209321 -5.09734396349635  3.00897583308331
 6  2.74989750145014 -0.92381017561756 -1.18609981038104
 6  4.13644573357336 -0.69469764606461 -0.56156630563056
 6  5.05137862226223  0.19132539793979 -0.99480925362536
 6  4.95831425442544  1.03249589888989 -2.30820498579858
 6  6.38589292209221  0.17201905210521 -0.25448193339334
 6  7.60177771567157 -0.40148049494950 -0.99597654815482
 6  8.86089796239624 -0.27814294469447 -0.11508332113211
 6  10.25516614111411 -0.61016808850885 -0.94917588808881
 6  10.22555925612561 -2.11938287438744 -1.35864932993299
 6  11.41171404830483 -0.17698147894789 -0.13324245564556
 6  12.86122102980298 -0.46574062516252 -0.83798382128213
 6  13.95720518891889  0.02366116331633  0.04092115961596
 6  15.36996312121212 -0.07549127822782 -0.54420266006601
 6  15.70357202610261 -1.60929856365637 -0.84787440514051
 6  16.41982608850885  0.44874923492349  0.47745225242524
 6  17.81721631103110  0.55118651705171 -0.09010482508251
 6  18.83949431893189  1.30913913091309  0.81898233123312
 6  20.22623129232923  1.40680101360136  0.21175593879388
 6  20.23871522532253  2.35521381858186 -0.92832382508251
 6  21.13808473927393  2.08308124442444  1.39241460486049
 1 -4.07546903140314  3.64651017241724  1.26921150805080
 1 -10.19723011571157  3.84370520552055 -0.23675906740674
 1 -10.26180947034704 -2.47314665546555 -1.33854050625063
 1 -2.63636009290929 -1.03157147104710  1.94257494869487
 1 -2.21372497769777  1.60800438303830  1.18067871827183
 1 -1.93440789828983  0.97774822772277  3.38274198769877
 1 -3.14151921192119  2.39335339283928  3.34485665106511
 1 -3.42636607930793  0.62247693169317  3.69543195599560
 1 -1.90072255715572 -1.51318127852785 -0.46503041224122
 1 -1.96869854235424  0.19896714711471 -0.88108814841484
 1 -0.28582209960996  0.63065767966797  1.12392279137914
 1 -0.25574337633763 -0.91201571677168  1.50235419061906
 1 -6.07028580398040  6.74525316941694  0.79618532773277
 1 -5.39566655605561  5.99882324542454  2.24838113521352
 1 -4.44146810281028  5.70048121452145  0.70227340294029
 1 -9.11151320382038  6.12783893199320 -0.78151838003800
 1 -9.10477169306931  8.11379211811181  0.37740736253625
 1 -7.88390785658566  7.26482288178818  1.70871925742574
 1 -11.93976808190819  3.22437276327633 -1.99564256895690
 1 -13.10407007620762  1.95585947714772 -1.39224041554155
 1 -12.57425915701570  2.85551420612061 -0.28485972997300
 1 -12.37519229762976 -1.81320076517652 -1.10015497039704
 1 -13.20282900180018 -0.28778551535153 -1.36506203370337
 1 -13.09347570017002 -1.61869655585559 -3.56386627112711
 1 -12.16064962916292 -0.18560309790979 -3.74871836753675
 1 -11.25387166646665 -1.60847571467147 -3.30283890389039
 1 -8.72731233423342 -5.22945368826883 -2.12641590569057
 1 -8.02767213201320 -5.79363936813681 -0.63945355835583
 1 -9.50950083498350 -4.86101112241224 -0.41311313391339
 1 -3.44130482638264 -3.48834208490849 -0.34699997149715
 1 -1.49619778627863 -4.25934237393739  3.39818273357336
 1 -2.93231283988399 -5.28837045464546  3.76704954385439
 1 -1.52948105960596 -5.79950922412241  2.66727067996800
 1  2.48528783288329 -1.96206804270427 -1.46697066206621
 1  2.47672515011501 -0.41375709610961 -2.23532668486849
 1  4.52531343694369 -1.08418063326333  0.36102931893189
 1  3.94299326282628  1.01093980438044 -2.67074544424442
 1  5.46315172687269  2.16680693959396 -2.34945141334133
 1  5.48259556715671  0.68631973947395 -3.13692242324232
 1  6.63238530143014  1.18787278727873  0.05038768156816
 1  6.21468558795880 -0.43713175057506  0.65074479117912
 1  7.26654403910391 -1.43425266046605 -0.99150047364736
 1  7.81752418831883  0.20293350145015 -1.97256017961796
 1  8.98986103770377  0.68064594959496  0.60892852505251
 1  8.85729421812181 -0.91896740294029  0.70977884158416
 1  10.09246679807981  0.10336287398740 -1.77490237973797
 1  9.11474646014601 -2.44367234373437 -1.63060898569857
 1  10.93869642534253 -2.38985576947695 -2.28966321022102
 1  10.45309819581958 -2.84015595759576 -0.37994743444344
 1  11.25373305420542  0.99357158735874  0.08857034453445
 1  11.20484353775378 -0.64099006030603  0.76637725932593
 1  12.98048136703670 -1.60875903710371 -1.05380304790479
 1  12.96002975547555 -0.01333064206421 -1.91191455275528
 1  13.78328976567657  1.10888344434443  0.40645798879888
 1  13.97229998309831 -0.62456206090609  0.82562907940794
 1  15.60051333983398  0.23663314831483 -1.71751610961096
 1  15.82793023592359 -2.19369966206621  0.08874742084208
 1  15.03454650535054 -2.08313068866887 -1.56798421352135
 1  16.63582321172117 -1.69222474737474 -1.26453792329233
 1  16.05785098579858  1.49510734443444  0.67137368166817
 1  16.37389183638364  0.00914173907391  1.46033879507951
 1  18.18631957065707 -0.41407795519552 -0.31702504290429
 1  17.85190225472547  1.12119943884388 -1.00815439123912
 1  18.57993878647865  2.47270142784278  1.05706371167117
 1  18.59784694499450  1.03476765776578  1.87619762006201
 1  20.55965087778778  0.38211435963596  0.01571863586359
 1  20.04707881448145  3.28690225212521 -0.51298489188919
 1  21.32337658975898  2.41329798259826 -1.18744010731073
 1  19.85786969136914  1.85950776157616 -1.87745471447145
 1  21.06694266946695  1.26703481258126  2.25944556175618
 1  22.12045375167517  2.16672790249025  1.02965793209321
 1  20.59813954385439  3.11812189548955  1.68265870637064

