%nproc=4
%Mem=2GB
# td=(NStates=1) CAM-B3LYP/6-31G(d,p) 

TD

0 1
12 -7.11416198919892  0.63215196329633  0.08454614201420
 6 -4.76936155415541 -1.97634881328133  0.51773830653065
 6 -4.86989691859186  2.78483693099310  1.28922528742874
 6 -9.34095883138314  3.09671516701670 -0.54313717341734
 6 -9.54185449914992 -1.82591810281028 -0.79523595269527
 7 -5.16279970457046  0.48114793289329  0.63862428072807
 6 -4.31290099619962 -0.65831565356536  0.77832585578558
 6 -2.92945195059506 -0.35106453215322  1.14380473467347
 6 -3.03603704210421  1.07209987828783  1.71042177287729
 6 -4.41960895579558  1.52304305310531  1.15183221312131
 6 -3.06925200730073  1.09696198429843  3.27501891079108
 6 -1.81412487348735 -0.50320558195820  0.05912987128713
 6 -0.39608703130313 -0.35981032823282  0.52484661396140
 6  0.56095723292329 -0.66814032693269 -0.50906628712871
 8  0.30588182828283 -0.85936134373437 -1.75299163086309
 8  1.78394020452045 -0.47083447984798 -0.10057684658466
 7 -7.03923437133713  2.60179576937694  0.40078877437744
 6 -6.09048832783278  3.39262023782378  0.78890242384238
 6 -6.35677293039304  4.82812710211021  0.75198588578858
 6 -7.61697440444044  4.88122875437544  0.41414980628063
 6 -8.08622289388939  3.48427762306231  0.07921046734673
 6 -5.37718567526753  5.89652211811181  1.13818857935794
 6 -8.44869266686669  6.01018205190519  0.12725971137114
 6 -8.47839173047305  7.27911403000300  0.62281853165317
 7 -9.07502977557756  0.62414527562756 -0.48402243594359
 6 -9.85674193389339  1.81821177427743 -0.62994931903190
 6 -11.18511760836084  1.41445978507851 -1.22535425492549
 6 -11.16973937783778  0.03407877197720 -1.30939965396540
 6 -9.84565024572457 -0.37939991429143 -0.86642165826583
 6 -12.28394721842184  2.37480805180518 -1.49539631443144
 6 -12.31710625692569 -0.68686609670967 -1.75741655015502
 6 -12.18784627302730 -1.07239965116512 -3.27042216081608
 7 -7.20655012331233 -1.41993160676068 -0.22058673567357
 6 -8.21199143894389 -2.25132030413041 -0.60028498369837
 6 -7.98690483608361 -3.61036930443044 -0.36612388968897
 6 -6.49382326642664 -3.54261859885989 -0.13682541444144
 6 -6.19805240164016 -2.18342662396240  0.06842964716472
 6 -8.72096956435644 -4.72464530693069 -0.66918539693969
 6 -5.38888335863586 -4.37252113561356  0.18470134273427
 8 -5.28624746264626 -5.57807229062906  0.30678770947095
 6 -4.22862644204420 -3.41847763756376  0.57102696799680
 6 -3.56933756465647 -3.71387660896090  1.92522289518952
 8 -3.79645124572457 -3.24901163736374  2.99117179827983
 8 -2.65449664336434 -4.73745846824682  1.64560314121412
 6 -2.20844143204320 -5.20325455455546  2.99383431893189
 6  2.78519103080308 -0.70627842244224 -1.06788798919892
 6  4.16498858785879 -0.41938011431143 -0.46474662366237
 6  5.16785026942694  0.31916818221822 -1.04397417011701
 6  4.99031745474547  1.17391004030403 -2.32088625392539
 6  6.47781211401140  0.46959881008101 -0.25567205240524
 6  7.69114665256526 -0.24401474837484 -0.89302625312531
 6  8.98102997559756 -0.20002513291329 -0.06741855465547
 6  10.19844046854685 -0.66245331703170 -0.86192716321632
 6  10.01555825602560 -2.04631556765677 -1.41244470947095
 6  11.41069394629463 -0.43806758755876 -0.08022715411541
 6  12.74286919461946 -0.49490354145415 -0.83092311521152
 6  13.97133660206021 -0.15828703150315  0.16203327082708
 6  15.33383950885088 -0.09448317741774 -0.57332557235724
 6  15.68419008790879 -1.58525615941594 -0.99646926462646
 6  16.31849595549555  0.44747910791079  0.42699720692069
 6  17.71950654005401  0.56653805220522 -0.18532434703470
 6  18.68923929342934  1.32815103210321  0.75521595459546
 6  20.12034070327033  1.41445177867787  0.27711247444744
 6  20.25440679447945  2.15918421562156 -1.04181517421742
 6  21.03613454425443  2.01833476977698  1.34242960636064
 1 -3.94200568506851  3.37962348374838  1.49849443634363
 1 -9.89775016771677  3.95258609360936 -0.79353474497450
 1 -10.21788507790779 -2.56637597839784 -1.16803345554555
 1 -2.46368282518252 -0.98639695359536  1.91698238943894
 1 -2.27200080528053  2.00830441304130  1.56540719111911
 1 -2.26544100160016  0.42879333223322  3.60353406690669
 1 -3.06582164216422  2.21139519701970  3.76077824322432
 1 -3.85940938363836  0.45130981498150  3.47827023982398
 1 -2.15049753465346 -1.30619057945795 -0.47699160836084
 1 -2.07779945244524  0.57127437783778 -0.70138017761776
 1 -0.32239575697570  0.57302191609161  0.81412181128113
 1 -0.11012881488149 -0.92776729192919  1.53088704390439
 1 -5.45948472387239  6.96276492059206  0.77017272647265
 1 -5.38621561096110  6.27133049614961  2.18303460056006
 1 -4.31155511151115  5.45358652505250  1.14058723432343
 1 -9.30797284978498  5.83406955505551 -0.68554878307831
 1 -9.42861407730773  8.03919465836584  0.46070569236924
 1 -7.88347781358136  7.66439283878388  1.60451883738374
 1 -11.90578468356836  3.12948327432743 -2.06654965966597
 1 -13.18633830303030  1.82480637183718 -2.09058024952495
 1 -12.77319905100510  2.81831048574857 -0.55748699269927
 1 -12.33870864926493 -1.52244168926893 -0.94387934283428
 1 -13.31606032493249 -0.30393713051305 -1.51852738023802
 1 -13.02985933853385 -1.68068275447545 -3.57411729622962
 1 -12.03865742994299 -0.11542608020802 -3.83347684338434
 1 -11.22137841714171 -1.62349721682168 -3.48494711471147
 1 -9.24408401140114 -4.87027777067707 -1.71656492059206
 1 -8.11782114691469 -5.76748675287529 -0.69381899489949
 1 -9.59445933083308 -4.85670069136914 -0.05742756535654
 1 -3.53389408530853 -3.35330858155816 -0.27470274177418
 1 -1.44595276177618 -4.65519195889589  3.46595951125113
 1 -3.01050065866587 -5.47523914151415  3.77635047394740
 1 -1.73809192069207 -6.16785605880588  2.74230818371837
 1  2.68421772587259 -1.73171500740074 -1.18794275927593
 1  2.69665714331433 -0.01470719111911 -1.96392954515452
 1  4.21384228982898 -1.05904812001200  0.45137835383538
 1  3.97905686918692  1.17841655205521 -2.49360773047305
 1  5.65334074577458  2.20791105000500 -2.24433090129013
 1  5.73438074567457  0.66223733123312 -3.08830756175618
 1  6.61572363526353  1.55088908890889 -0.16788414561456
 1  6.57779189858986  0.13380534313431  0.73432314901490
 1  7.64505188988899 -1.22695193039304 -1.17456878047805
 1  7.93595603150315  0.10840404850485 -1.86161908550855
 1  9.19492154375438  0.77934581958196  0.24940257245725
 1  8.62309079777978 -0.83754926112611  0.88666653035304
 1  10.17438498989899 -0.04324178647865 -1.61799668916892
 1  9.04946993249325 -2.26870484698470 -1.91034695949595
 1  10.80121267696770 -2.51813859775978 -1.92424666856686
 1  10.05854874087409 -2.70821276327633 -0.43359279897990
 1  11.42204988588859  0.67201943214321  0.37419890739074
 1  11.48802185558556 -1.08356431773177  1.02520314191419
 1  12.82316563546355 -1.29317747894790 -1.45704337193719
 1  12.77352110461046  0.46874756575658 -1.61562492379238
 1  13.86642807950795  0.84978753475347  0.39670701370137
 1  13.87799055215522 -0.91155075977598  1.12173869036904
 1  15.23795708420842  0.48564804980498 -1.55950030803080
 1  16.00393783668367 -2.28126841894189 -0.08382983688369
 1  14.70523357405741 -2.00501287688769 -1.29725714081408
 1  16.32496212561256 -1.51350687558756 -1.83749521902190
 1  16.05475067576758  1.57254508820882  0.67769431373137
 1  16.43111755895589 -0.29105828092809  1.25716847804781
 1  17.97811875057506 -0.54907145454545 -0.21897523792379
 1  17.52932999749975  0.78698601750175 -1.11995557135714
 1  18.43377417001700  2.44240839853985  0.67666567186719
 1  18.57789494979498  0.89390357135714  1.77094709500950
 1  20.49845475817582  0.38995514371437  0.09971703570357
 1  19.93723783038304  3.28766232813281 -0.91556514991499
 1  21.33810806290629  2.25217186998700 -1.18376974027403
 1  19.66303020742074  1.71983379417942 -1.73622059105911
 1  20.99362533773377  1.59544765386539  2.30457007420742
 1  22.27533924022402  2.13813504320432  1.32245721202120
 1  20.83846357625763  3.21269135243524  1.45127556805681

