%nproc=4
%Mem=2GB
# td=(NStates=1) CAM-B3LYP/6-31G(d,p) 

TD

0 1
12 -7.11556212921292  0.58889763786379  0.05914360176018
 6 -4.83788840684068 -1.90007118551855  0.43709024172417
 6 -4.86377630653065  2.85334378167817  1.14750111501150
 6 -9.49390412591259  3.02192768826883 -0.19369222892289
 6 -9.47686800050005 -1.78570408140814 -0.94142057115712
 7 -5.08519194379438  0.45785560366037  0.63370378867887
 6 -4.34411411751175 -0.65920574257426  0.83281130433043
 6 -2.91780078547855 -0.29225865156516  1.12711306550655
 6 -3.01638507690769  1.15592826112611  1.62899363006301
 6 -4.45153214811481  1.51051179998000  1.01349837973797
 6 -2.91808689078908  1.27565985408541  3.11249265816582
 6 -1.96770023102310 -0.56767202860286  0.06016997529753
 6 -0.47251467406741 -0.34637898509851  0.42901703100310
 6  0.47346848404840 -0.64531804470447 -0.62171755225523
 8  0.22652389248925 -1.15055046264626 -1.76176250795079
 8  1.76280809130913 -0.28823622002200 -0.22761955085509
 7 -7.18240868876888  2.57475306510651  0.40314901040104
 6 -6.12673195219522  3.39448042384238  0.77961149474947
 6 -6.54933218631863  4.78950323972397  0.74678536573657
 6 -7.86534924192419  4.85846647814781  0.44372276357636
 6 -8.17322159375938  3.44669386468647  0.12292483878388
 6 -5.57284524122412  5.91731419731973  1.25010977147715
 6 -8.61226902450245  5.99432046574657  0.23500048544854
 6 -8.44408830013001  7.22144826342634  0.78063431323132
 7 -9.13158543114311  0.60233309440944 -0.59999403310331
 6 -9.93052931263126  1.73433338643864 -0.63755007910791
 6 -11.29062815941594  1.36452479157916 -0.99839155865587
 6 -11.18759116301630  0.02069743384338 -1.26346506050605
 6 -9.96105178587859 -0.42584455875588 -0.89719473557356
 6 -12.36157498119812  2.33017358835884 -1.26094286908691
 6 -12.37015156145615 -0.84687209730973 -1.84454526302630
 6 -12.38335582398240 -1.04637704890489 -3.32195731433143
 7 -7.13848331663166 -1.37954756835684 -0.28541321832183
 6 -8.23808404820482 -2.26256142824282 -0.64106906210621
 6 -7.68981512711271 -3.55609387688769 -0.49776705400540
 6 -6.48806269036904 -3.57230156715672 -0.06468820072007
 6 -6.14793739013901 -2.15700398169817 -0.00669786558656
 6 -8.49995746314631 -4.83288613101310 -0.78586706510651
 6 -5.25493996429643 -4.40037392089209  0.22237511011101
 8 -5.13607244514451 -5.55147963136314  0.27691472217222
 6 -4.11483506290629 -3.28259404920492  0.51940180548055
 6 -3.48978960986099 -3.57192241354135  1.90696106900690
 8 -3.67917951855185 -3.01921865806581  2.88412109320932
 8 -2.69390058375838 -4.62959768216822  1.77207578847885
 6 -2.20337092499250 -5.09475370447045  3.05546048154815
 6  2.83052556425643 -0.44111190579058 -1.31566276667667
 6  4.13165525452545 -0.30727890419042 -0.65276542554255
 6  5.10257374177418  0.43049931533153 -0.91382115481548
 6  5.12451087408741  1.40373302260226 -2.06290045534553
 6  6.34659899269927  0.44338618881888 -0.23098958415842
 6  7.67701523942394 -0.23135348224822 -0.91933888438844
 6  8.91576344894490 -0.41043617401740 -0.05914772757276
 6  10.18235886038604 -0.75539261096110 -0.72243321382138
 6  10.26589328952895 -2.24317525362536 -1.11537500250025
 6  11.44691756865687 -0.24314809560956  0.08024889348935
 6  12.81384629232923 -0.69395344644464 -0.61547157005701
 6  13.97053652205221 -0.10816201900190  0.32112918041804
 6  15.35530165506551 -0.35901963106311 -0.38285652545255
 6  15.76363803270327 -1.79354698849885 -0.73099271697170
 6  16.38938304420442  0.44712907290729  0.40117462466247
 6  17.80880546994699  0.49260065846585 -0.35528134273427
 6  18.85313568306831  1.12622083908391  0.64099453245325
 6  20.24513318251825  1.41855218871887  0.09828459165917
 6  20.29784113791379  2.22704100130013 -1.23598459115912
 6  21.12958388918892  2.00647358365837  1.19818518191819
 1 -4.24796628112811  3.44105962736274  1.38219280618062
 1 -10.03735412811281  3.73053388838884 -0.24016940844084
 1 -10.16398968836884 -2.37389673047305 -1.24391104330433
 1 -2.38267472437244 -0.79524783868387  2.08196888808881
 1 -2.34482808800880  1.62349593219322  1.12030268066807
 1 -1.78935339283928  1.17333778667867  3.60442415591559
 1 -3.23795885588559  2.34768882638264  3.45153731913191
 1 -3.69400284298430  0.44706939093909  3.69535194799480
 1 -1.97417990289029 -1.72407236763676 -0.27002091129113
 1 -2.25143681618162  0.04951220162016 -0.80311035063506
 1 -0.26513003040304  0.72730734463446  0.56959735883588
 1 -0.18496629862986 -0.96744125932593  1.38877283248325
 1 -5.73059183458346  6.72204084818482  0.39266497569757
 1 -5.78265525492549  6.31755511861186  2.23071936903690
 1 -4.42232618861886  5.62505367176718  1.05052822842284
 1 -9.21057310981098  5.73647979607961 -0.56351657985799
 1 -9.23722493839384  7.89697043594359  0.76817643944394
 1 -7.53539300510051  7.35812221172117  1.37268565406541
 1 -12.04570867596760  3.18615894189419 -1.91182418711871
 1 -13.22773244244424  1.81269516071607 -1.87087827932793
 1 -12.94288601970197  2.89523817851785 -0.33738498249825
 1 -12.35034981338134 -1.82664210931093 -1.15337029192919
 1 -13.26061478037804 -0.33180991779178 -1.31926745424542
 1 -13.18536488908891 -1.64425911211121 -3.64792467696770
 1 -12.55194875907591 -0.11350588818882 -3.96252974867487
 1 -11.51745802510251 -1.38930379747975 -3.61257987798780
 1 -9.02639224222422 -4.72395313821382 -1.77970123422342
 1 -7.82473183798380 -5.81800180438044 -0.93704331733173
 1 -9.45393527842784 -4.95027004830483 -0.04881670427043
 1 -3.36331702760276 -3.58846209690969 -0.16110138163816
 1 -1.39873804030403 -4.17377381708171  3.15680859615962
 1 -2.90981058965897 -5.31744336193619  3.70876371527153
 1 -1.78244635613561 -6.12027130033003  2.81201515441544
 1  2.61476078017802 -1.38592042794279 -1.76928089308931
 1  2.68015549314932  0.49077335693569 -1.98966211841184
 1  4.19124002960296 -0.93026524172417  0.33934715071507
 1  4.09605856935694  1.64889359975998 -2.54473284298430
 1  5.48909432113211  2.33449370827083 -1.69757622582258
 1  5.83817112471247  1.14972608010801 -3.06763549454945
 1  6.59462152505250  1.41049504950495  0.32043468626863
 1  6.27805192459246 -0.24305234263426  0.56703642034203
 1  7.46427381208121 -1.08447768296830 -1.68302962656266
 1  7.98068050395040  0.40249345744574 -1.74013693729373
 1  8.89899195079508  0.54090197519752  0.55510314251425
 1  8.55773426212621 -1.03586909310931  0.81600946464646
 1  10.08087563896390 -0.06369383168317 -1.70954584408441
 1  9.50231521702170 -2.54715269176918 -1.88166409120912
 1  11.07267982368237 -2.43217000090009 -1.82708695259526
 1  10.18219110511051 -2.94494643664366 -0.24560400010001
 1  11.40001768266827  0.89438166836684  0.19031051855185
 1  11.31905495889589 -0.73523948524852  1.18567918951895
 1  12.97717103600360 -1.80187834903490 -0.82757042464246
 1  12.93319707220722 -0.19313862286229 -1.49979334063406
 1  13.80721215791579  1.00914347034703  0.56116345934593
 1  13.83620637373737 -0.49896950165017  1.39338585508551
 1  15.36557984648465  0.26125561056106 -1.38481283928393
 1  15.89284672757276 -2.25851614371437  0.30280882698270
 1  15.09113216391639 -2.33954633023302 -1.25630304540454
 1  16.67111674107411 -1.76504202910291 -1.38484995449545
 1  16.07054225492549  1.42765059875988  0.85933247754775
 1  16.55621006820682 -0.22486166126613  1.30356311751175
 1  18.17768870757076 -0.47809435683568 -0.58015135553555
 1  17.70373743824383  0.89714703360336 -1.20023359915992
 1  18.39561035363536  2.11469562726273  0.92819082438244
 1  18.97254441474148  0.60853503450345  1.64658465876588
 1  20.52674758745875  0.35625177337734 -0.07383031903190
 1  19.89500360696070  3.25504906680668 -0.78724231763176
 1  21.49388364046405  2.50960761356136 -1.46695805910591
 1  19.85670957535754  1.98508031883188 -2.31959892889289
 1  20.97540351555156  1.39752786188619  2.27062667986799
 1  22.18597030333033  2.05039626932693  0.94322928922892
 1  20.70146987688769  3.05430551385139  1.48599904040404

