%nproc=4
%Mem=2GB
# td=(NStates=1) CAM-B3LYP/6-31G(d,p) 

TD

0 1
<<<<<<< HEAD
12 -7.06373694669467  0.58126687478748 -0.00168248084808
 6 -4.85690030803080 -1.97429860826083  0.58061459415942
 6 -4.88280820972097  2.79676812411241  1.10878724362436
 6 -9.37412214771477  3.11528702420242 -0.45154801450145
 6 -9.49529984368437 -1.74234974597460 -0.76233266236624
 7 -5.09944336893689  0.35952577067707  0.86014643294329
 6 -4.35618532463246 -0.73296311831183  0.86169419261926
 6 -2.82820182558256 -0.37556698239824  1.17154750895089
 6 -2.97264070247025  1.16607927622762  1.62522325302530
 6 -4.44489148404841  1.49267001580158  1.24166119601960
 6 -2.82041712381238  1.12700498859886  3.16257766666667
 6 -1.92828628962896 -0.66142140354035  0.02407636593659
 6 -0.49467689028903 -0.37132147934794  0.41962609190919
 6  0.53114425162516 -0.67675118801880 -0.70399578007801
 8  0.24313555365537 -0.97777318491849 -1.84008033973397
 8  1.88497030753075 -0.42308970537054 -0.37462425132513
 7 -7.15669611751175  2.53235882568257  0.30060875637564
 6 -6.14722400140014  3.33799477527753  0.67571110471047
 6 -6.39057631073107  4.72461675107511  0.74196488368837
 6 -7.70421312831283  4.82654328582858  0.21641003230323
 6 -8.12498677027703  3.48773796909691 -0.05017247094709
 6 -5.43346130283028  5.75888835473547  1.14958971947195
 6 -8.52474027162716  6.05784681838184  0.10627761316132
 6 -8.34834872617262  7.16640275887589  0.78641489128913
 7 -9.14247652025202  0.71396425752575 -0.59428346204620
 6 -9.86080233993399  1.82195214831483 -0.71646797089709
 6 -11.18885798239824  1.49219755885589 -1.07273899339934
 6 -11.25901830573057  0.18785414951495 -1.21569028302830
 6 -9.92540822152215 -0.35312728702870 -0.88769378547855
 6 -12.28187701140114  2.49552012301230 -1.30975775057506
 6 -12.38339288558856 -0.82444985508551 -1.72352316081608
 6 -12.25683317171717 -1.19250166136614 -3.17812293089309
 7 -7.19333880218022 -1.39630924452445 -0.09267394439444
 6 -8.28861910171017 -2.22489766186619 -0.50394534973497
 6 -7.96495264086409 -3.53716198369837 -0.34882215951595
 6 -6.61287517161716 -3.56092042904290 -0.00990272217222
 6 -6.17106970337034 -2.22687096839684  0.20972377657766
 6 -8.79710717811781 -4.70343318571857 -0.84859333773377
 6 -5.39491396169617 -4.41040492399240  0.28912178477848
 8 -5.19694853275328 -5.57252173557356  0.25627265796580
 6 -4.24269784918492 -3.32866865666567  0.52375224052405
 6 -3.53133376427643 -3.80544576587659  1.88636900980098
 8 -3.73257485808581 -3.26458319451945  2.95370805190519
 8 -2.64618581228123 -4.79039376177618  1.69876845774577
 6 -2.11390197809781 -5.27352158125813  2.95804073957396
 6  2.84037654935494 -0.54189198379838 -1.34494569496950
 6  4.09510159915992 -0.39660783708371 -0.59332948194819
 6  5.04538802320232  0.38847511291129 -0.95725549824982
 6  5.11858028102810  1.30164281358136 -2.19478364366437
 6  6.43419775257526  0.49336118631863 -0.18729521472147
 6  7.62100963886389 -0.03795414231423 -0.99623657415742
 6  8.97017889048905  0.05683055265527 -0.11381319411941
 6  10.19543016751675 -0.48384545624562 -0.81073204370437
 6  10.09454615481548 -1.99737067316732 -1.20921438643864
 6  11.42844572147215 -0.17311109190919  0.08121899049905
 6  12.82371727942794 -0.54657870897090 -0.71139116201620
 6  13.97592706110611 -0.13895509830983  0.25138220572057
 6  15.33574969986999 -0.23720744984498 -0.36942518231823
 6  15.55275694459446 -1.70800843464346 -0.78855847354735
 6  16.39505361126113  0.38733309330933  0.50295480268027
 6  17.75123971337134  0.61887328572857 -0.13034884948495
 6  18.78297866736674  1.33540175717572  0.77236766976698
 6  20.25616428562856  1.26009634313431  0.18399316251625
 6  20.37541889568957  1.98190648784879 -1.15922691539154
 6  21.16892782358236  1.88323125942594  1.19404476787679
 1 -4.13071455595560  3.57406292769277  1.36240082698270
 1 -10.20385077777778  3.89438027302730 -0.56217160866087
 1 -10.00288357775777 -2.55331467226723 -0.90990764296430
 1 -2.50190664756476 -1.06010432433243  2.07079777097710
 1 -2.43848745394539  1.84149773237324  1.18612926332633
 1 -1.89345380288029  0.75941639453945  3.45020873437344
 1 -3.00402546254625  2.13991804930493  3.74653681908191
 1 -3.49637308000800  0.43654833883388  3.65503791659166
 1 -1.96057854275428 -1.79929989038904 -0.18015192439244
 1 -2.13861553405341 -0.05630838043804 -0.81392143174317
 1 -0.46722023942394  0.71553616751675  0.74246464556456
 1 -0.17045484748475 -0.85924043924392  1.39658361356136
 1 -5.84530330573057  6.65053369746975  0.78019372857286
 1 -5.32648963836384  6.03719708280828  2.21455775287529
 1 -4.52814677067707  5.41061222762276  0.72998617421742
 1 -9.26548860136014  5.62582873097310 -0.62665289348935
 1 -9.12169338523852  7.95757649654965  0.66968659045904
 1 -7.67355682148215  7.14306070557056  1.63379176467647
 1 -11.85972007710771  3.26138646464646 -1.84053705840584
 1 -13.14314398359836  2.02385627682768 -1.70736192769277
 1 -12.80022175327533  2.87449610431043 -0.33928517251725
 1 -12.37561233963396 -1.67781722682268 -1.38744369926993
 1 -13.46299501840184 -0.51891862866287 -1.53326885438544
 1 -13.12255860846085 -1.67358204440444 -3.44239412391239
 1 -12.40769433363336 -0.33809834743474 -3.66923041874187
 1 -11.30691697099710 -1.72087695479548 -3.43862248224822
 1 -9.28786838983899 -4.37567831073107 -1.78037130123012
 1 -8.16011537633763 -5.43661366556656 -0.84545415841584
 1 -9.60639052395240 -4.83781880318032 -0.08066988958896
 1 -3.21873256915692 -3.27990124082408  0.02193692219222
 1 -1.63426159265927 -4.37890433013301  3.41149406470647
 1 -2.98276788538854 -5.77613923152315  3.60746358525853
 1 -1.39592770427043 -6.05834510771077  2.70556450935094
 1  2.72763206730673 -1.42867470337034 -1.73741770677068
 1  2.70818829642964  0.11218549814982 -2.17131028322832
 1  4.12687359295930 -0.83769598479848  0.46850006600660
 1  4.21359032253225  1.27385609600960 -2.70104847454745
 1  5.18476388808881  2.32626288518852 -1.69397586578658
 1  5.79655696329633  1.12634374187419 -2.97351608260826
 1  6.67720978387839  1.60348434843484  0.09897254005401
 1  6.39321344074407  0.18670063266327  0.90974069076908
 1  7.42148953365337 -1.09800903610361 -1.22749407300730
 1  7.67361979787979  0.51211441954195 -2.02183510711071
 1  9.25024707630763  1.02296018101810  0.03225085728573
 1  8.90213870257026 -0.44260976717672  0.76964482818282
 1  10.19556710811081  0.15552809050905 -1.84214910441044
 1  9.20001498699870 -1.97817579407941 -1.88599452425242
 1  10.85365792149215 -2.15883266716672 -1.81262550645065
 1  10.04307719371937 -2.54998694069407 -0.26247568726873
 1  11.38175585648565  0.81074330453045  0.54385587308731
 1  11.48592164556456 -0.85444140544054  0.86911753335334
 1  12.70483380228023 -1.60033819501950 -0.81584925252525
 1  12.90106385888589 -0.09955926492649 -1.79321268256826
 1  13.82692412911291  0.97438999499950  0.33533087608761
 1  13.88342109520952 -0.80870047474747  1.11046756325633
 1  15.42852614111411  0.38537802280228 -1.34496885488549
 1  15.33787123002300 -2.42476276837684  0.16592513861386
 1  14.66809986068607 -1.91692406800680 -1.51960937603760
 1  16.54829445884588 -1.74770029492949 -1.06884835433543
 1  15.85423062376238  1.30380821452145  0.87970451475147
 1  16.69205365256526 -0.08980815591559  1.57189995119512
 1  17.98837977667767 -0.40949749714971 -0.46104944534453
 1  17.67998506300630  1.15663298219822 -1.08113168896890
 1  18.47797859045905  2.50330448814881  0.93210121542154
 1  18.65453261356136  0.93700788178818  1.76004600490049
 1  20.64572948564857  0.24512066026603 -0.04877781378138
 1  19.92983709030903  2.97349091099110 -1.00212380578058
 1  21.36593084518452  2.12104875767577 -1.36784814811481
 1  19.87761166556656  1.49656146694669 -2.10438740774077
 1  21.12768874407441  1.55359346844684  2.22528214541454
 1  22.10476218251825  2.20342157185719  0.93055802210221
 1  20.57549727962796  2.78929901320132  1.48498893939394
=======
12 -7.09612018501850  0.65846459455946 -0.03966627922792
 6 -4.81207582558256 -1.91005218361836  0.46157268996900
 6 -4.72390231913191  2.87068551585158  1.16314267916792
 6 -9.37742247774777  3.12704820032003 -0.35377823752375
 6 -9.53287360106011 -1.70320583158316 -0.81235766486649
 7 -5.02966639123912  0.39510932903290  0.61624204250425
 6 -4.27270697679768 -0.60661048304830  0.74667269046905
 6 -2.90133913931393 -0.35239466516652  1.15148550275027
 6 -3.04470790919092  1.07334000230023  1.64396512721272
 6 -4.35896289118912  1.57161791059106  1.05591262116212
 6 -2.96065114721472  1.10739302740274  3.19486089498950
 6 -1.93330679167917 -0.64789005040504 -0.03186922862286
 6 -0.36272369496950 -0.24216856405641  0.50390451975198
 6  0.61931306850685 -0.69394290719072 -0.64495987648765
 8  0.28442968306831 -1.14845025262526 -1.71860819251925
 8  1.84256606710671 -0.53647104350435 -0.16215300420042
 7 -7.01760220812081  2.60932652245225  0.27832652815282
 6 -6.01439071807181  3.38710968676868  0.69893342694269
 6 -6.40773802690269  4.73044733413341  0.79171985918592
 6 -7.72724543154315  4.75946657815782  0.31397978927893
 6 -8.17128139973997  3.41160035533553  0.05484803110311
 6 -5.48476643334333  5.80613307920792  1.19008376887689
 6 -8.58068586618662  5.97021805550555  0.09820680608061
 6 -8.47354124542454  7.01772789138914  0.91569781958196
 7 -9.15302757535754  0.57636049714972 -0.43997803150315
 6 -9.88439469916992  1.85902585568557 -0.73426975107511
 6 -11.18604770137014  1.51405974507451 -1.08944066356636
 6 -11.27533993789379  0.13940930503050 -1.17711642564256
 6 -9.95144082478248 -0.41641361566157 -0.82736775287529
 6 -12.19564838853885  2.45766633763376 -1.42135891069107
 6 -12.44280882718272 -0.66538394849485 -1.68759956845685
 6 -12.22126961536154 -0.98694110531053 -3.02153727232723
 7 -7.12215168346835 -1.40704031763176 -0.23126780378038
 6 -8.28584882468247 -2.20556572867287 -0.56709166436644
 6 -7.80538668426843 -3.62287055455546 -0.42262954025403
 6 -6.44599848394840 -3.49388372537254 -0.04533626552655
 6 -6.06704930133013 -2.15422370367037  0.01666447064706
 6 -8.63157062446245 -4.86141898429843 -0.69219769816982
 6 -5.30738520882088 -4.32746663016302  0.22917579017902
 8 -5.05784462236224 -5.53128761216122  0.22854988568857
 6 -4.10346392579258 -3.25517130693069  0.54785465076508
 6 -3.57014764566457 -3.56511173247325  1.82607298019802
 8 -3.86893849444944 -3.14333106930693  2.95022770387039
 8 -2.75399659335934 -4.60959568196820  1.71050963186319
 6 -2.22274286218622 -5.18270249934993  2.96055099059906
 6  2.80969348104810 -0.90106790139014 -1.12147334773477
 6  4.16222831183118 -0.59847802410241 -0.65145529452945
 6  5.12539602400240  0.28356462186219 -0.99298907160716
 6  5.02692111511151  1.06870952025203 -2.29234339963996
 6  6.36440077287729  0.42217406760676 -0.12347883308331
 6  7.49398693659366 -0.06856720362036 -0.90673762426243
 6  8.89095096769677 -0.09592472287229 -0.13563537633763
 6  10.12721334583458 -0.52691976367637 -0.90131110161016
 6  10.08058475867587 -1.94866580268027 -1.39399286428643
 6  11.38575145204521 -0.16168994979498 -0.04871400280028
 6  12.77596250395039 -0.47099115021502 -0.63825384828483
 6  13.94779424782478 -0.21413261606161  0.35812287978798
 6  15.23243936883688 -0.19199292839284 -0.40838907870787
 6  15.60701237013701 -1.65240287408741 -0.94076369406941
 6  16.38909301520152  0.37174153415342  0.51961646884688
 6  17.77463205260526  0.49141053945395 -0.09431524612461
 6  18.80156052555256  1.33636185318532  0.78095852885289
 6  20.19796846604660  1.40296062956296  0.25066983018302
 6  20.16264761856186  2.10741903910391 -1.16702769546955
 6  21.10352128292829  2.10687362366237  1.30955631903190
 1 -4.01660314481448  3.65785130653065  1.59591417831783
 1 -10.10027041974197  3.83797463246325 -0.51495688718872
 1 -10.44610790019002 -2.51469080988099 -1.04756140834083
 1 -2.43750020692069 -1.01924023792379  2.03481417261726
 1 -2.31607521272127  1.62280586318632  1.18328897929793
 1 -1.93774823232323  1.02883333623362  3.67235094859486
 1 -3.36006106610661  2.08358241574157  3.43255542094209
 1 -3.62288573127313  0.46316100010001  3.58594100690069
 1 -2.04907739263926 -1.83072303270327 -0.41711562076208
 1 -2.34800647314731  0.01080833123312 -0.76777681728173
 1 -0.29717323472347  0.93924853875388  0.67650804990499
 1 -0.05249305130513 -0.84210872607261  1.51336529172917
 1 -5.59297807320732  6.79086773087309  0.61201691089109
 1 -5.72603959335934  6.16121948504851  2.24842113921392
 1 -4.37089104510451  5.64245541194119  0.94905808140814
 1 -9.28282033453345  5.91087723582358 -0.73112334053405
 1 -9.28450966686669  7.80084082298230  0.76773639543954
 1 -7.71523098889889  7.15134153365337  1.56500488598860
 1 -12.09785389048905  2.89879020502050 -2.34025703040304
 1 -13.37857752695269  2.13856774797480 -1.49302049354935
 1 -12.07010874197420  3.37685634033403 -0.54502574657466
 1 -12.43389816821682 -1.53783322842284 -1.04971992689269
 1 -13.51487020592059  0.06033929712971 -1.51866739423942
 1 -13.09387574017402 -1.71594628082808 -3.52491237573757
 1 -12.20192375657566 -0.26362089968997 -3.75476897259726
 1 -11.17433371267127 -1.47110197729773 -3.22219083908391
 1 -8.85309491249125 -4.88060880378038 -1.93406667076708
 1 -8.09987935273527 -5.74524452865287 -0.45523513651365
 1 -9.62495238013801 -4.88882390369037 -0.19665148774877
 1 -3.52794349024903 -3.21514476517652 -0.38647391889189
 1 -1.79221738823882 -4.44573101280128  3.52147506280628
 1 -3.02250185878588 -5.62205382298230  3.56835967486749
 1 -1.30208832033203 -5.88948822202220  2.53634758765877
 1  3.01422072617262 -1.97365920182018 -1.22118608360836
 1  2.48980645824583 -0.58233395379538 -2.24045719791979
 1  4.38360926652665 -1.40976319151915  0.26811002700270
 1  3.98259722322232  0.98739745014501 -2.60211858155816
 1  5.39440485218522  2.08960921982198 -2.11657812601260
 1  5.83644095169517  0.57459856735674 -2.95713444444445
 1  6.62296435933593  1.62919691969197  0.25017766056606
 1  5.99890400980098 -0.12875091249125  0.74470418711871
 1  7.06928431313131 -1.18803803900390 -1.19538086168617
 1  7.61239367526753  0.56478968706871 -1.69333225682568
 1  8.95491754335433  0.98259614461446  0.32465009720972
 1  8.96084457315732 -0.90398590479048  0.55062292599260
 1  10.11604915631563  0.01530406810681 -1.76912180168017
 1  9.00400538603860 -2.13963193969397 -1.63895982078208
 1  10.86492904860486 -2.08025480938094 -2.26449069296930
 1  10.10258314431443 -2.58985092709271 -0.48174761446145
 1  11.35648332923292  0.82003423362336  0.35537702520252
 1  11.33222627602760 -0.80573653495349  0.85291591319132
 1  12.75678899779978 -1.56734489568957 -1.13164083168317
 1  13.02966671917192  0.23261395239524 -1.44646800810081
 1  13.81764320102010  0.78906146214621  0.78269561256126
 1  14.02010476357636 -1.16588619331933  1.04730124662466
 1  15.11242453095310  0.42209169416942 -1.31110546854685
 1  15.62412985588559 -2.30125041714171 -0.21870332423242
 1  14.93287633833383 -2.02932530813081 -1.56169358445845
 1  16.45387501690169 -1.86947247214721 -1.49232070157016
 1  16.12871807250725  1.27896573027303  1.04082062636264
 1  16.54662911011101 -0.29311848694869  1.29309207040704
 1  18.08819975867587 -0.55825237263726 -0.21445478587859
 1  17.81302836733673  1.00066738563856 -1.18480205600560
 1  18.37832862546255  2.41664582228223  0.75260326562656
 1  18.87311447174718  1.00353453445345  1.77971797209721
 1  20.55649056175618  0.39665581378138 -0.27275021102110
 1  19.92110621722172  3.22934649654965 -1.06935052845285
 1  21.20591484358436  2.18324497729773 -1.71544290759076
 1  19.43192709710971  1.38846065686569 -1.82725969496950
 1  21.16434240944094  1.45875398449845  2.18394801200120
 1  22.13294500080008  2.09968119781978  0.98380334663466
 1  20.52607233713372  3.08352843614361  1.49816025652565
>>>>>>> 8e03b5b5abfc0030b3aa597dc0de36371bfbd096

