%nproc=4
%Mem=2GB
# td=(NStates=1) CAM-B3LYP/6-31G(d,p) 

TD

0 1
12 -7.11247182018202  0.60659940804080  0.02926061346135
 6 -4.85084970297030 -2.01558273667367  0.54775130783078
 6 -4.81253118201820  2.79178762606261  1.12966933183318
 6 -9.44470920642064  3.09421491699170 -0.39615247494749
 6 -9.52245255895590 -1.80963647464746 -0.89457588668867
 7 -5.10387381198120  0.38427824592459  0.78838925722572
 6 -4.41873157925793 -0.69184900690069  0.97163518671867
 6 -2.88863786918692 -0.40468989468947  1.23741409560956
 6 -2.94515795419542  1.14168683698370  1.71723245394539
 6 -4.39749674457446  1.57707845664566  1.09504653455346
 6 -2.91483656575658  1.39268155625563  3.21728313721372
 6 -1.85766922792279 -0.68445370677068  0.14652861116112
 6 -0.43279070167017 -0.43335768296830  0.57038116741674
 6  0.49836097329733 -0.75632914581458 -0.60070545104510
 8  0.16797803790379 -1.12261766936694 -1.72791912361236
 8  1.82091390189019 -0.53613100950095 -0.25068185708571
 7 -7.17858830673067  2.57975356515652  0.32750144564456
 6 -6.12621190019002  3.31704268006801  0.78506203980398
 6 -6.50776802990299  4.78021231063106  0.91026171337134
 6 -7.75393810081008  4.84984561606161  0.43701209250925
 6 -8.15070934253425  3.49599879517952  0.16697924422442
 6 -5.58682663936394  5.85993845974598  1.32658741924192
 6 -8.57227502510251  6.07229826352635  0.16855384078408
 6 -8.46161005230523  7.19969608820882  0.79214546434643
 7 -9.14441671427143  0.60956381748175 -0.56390042374237
 6 -9.82111837153715  1.80680063316332 -0.66985330943094
 6 -11.16181527812781  1.40685902500250 -1.23123484298430
 6 -11.23010541444144  0.10656602070207 -1.27670638463846
 6 -9.91464714541454 -0.42453442774277 -0.90378539463946
 6 -12.15832465616562  2.41337190819082 -1.69362613741374
 6 -12.41778632493249 -0.71214862496250 -1.78540934943494
 6 -12.05317280568057 -1.08393080428043 -3.30469558815882
 7 -7.23488295659566 -1.37228684228423 -0.12650732773277
 6 -8.23867410721072 -2.20105527762776 -0.59809476467647
 6 -7.72058820442044 -3.65002326982698 -0.53572084938494
 6 -6.50275415951595 -3.54580891789179 -0.23624535643564
 6 -6.21956455285529 -2.19530781208121  0.13794659885989
 6 -8.66945441284128 -4.71059390179018 -0.90590906930693
 6 -5.37871234153415 -4.37371125462546  0.12621549414941
 8 -5.20771960986099 -5.62801728512851  0.07822485318532
 6 -4.19604318371837 -3.36923271307131  0.67369723502350
 6 -3.72245287618762 -3.77434265556556  1.99908028092809
 8 -3.94428602920292 -3.11802853905391  3.09150183128313
 8 -2.84686588028803 -4.76053077547755  1.93136171707171
 6 -2.23212380028003 -5.04057828692869  3.23722865836584
 6  2.81147365906591 -0.61615941054105 -1.35617681808181
 6  4.09216130513051 -0.50159833613361 -0.63097324632463
 6  5.09698318271827  0.28663492889289 -1.01144091679168
 6  5.09510793379338  1.06176882618262 -2.23316748204820
 6  6.36936126892689  0.27637948814881 -0.19446593179318
 6  7.57167470537054 -0.23293364026403 -1.01523847434743
 6  8.88384025662566  0.05415028462846 -0.25707752055206
 6  10.18184880938094 -0.46479355105511 -0.91897286778678
 6  10.15977267746775 -1.92104304040404 -1.32403586858686
 6  11.32924580148015 -0.11946572737274 -0.01418054945495
 6  12.78167307500750 -0.36853090419042 -0.61907193009301
 6  13.97991746014601 -0.13503470627063  0.20492756025603
 6  15.36849297419742 -0.12722645174517 -0.42889112891289
 6  15.77184885378538 -1.62254988878888 -0.83896351405141
 6  16.54199830573057  0.48691305130513  0.41936644384438
 6  17.85452004140414  0.61999339773977 -0.29209502410241
 6  18.84207457695770  1.21659987698770  0.65109554255426
 6  20.33654232343234  1.26951728522852  0.18221298449845
 6  20.42065341914191  2.24231252845285 -1.01154214691469
 6  21.36969790059006  1.82711564786479  1.22453781718172
 1 -4.19545102960296  3.60439596099610  1.58474306120612
 1 -10.24677507020702  4.01862269726973 -0.55071046254625
 1 -10.31076436583658 -2.40921026182618 -1.24041069326933
 1 -2.40856731363136 -0.88739705360536  2.13084377557756
 1 -2.14370797599760  1.71983556615662  1.17245789618962
 1 -1.91084554205421  1.05472592549255  3.65472918641864
 1 -3.21108616861686  2.32709676717672  3.65209737513751
 1 -3.76658010071007  0.67615229922992  3.48960137293729
 1 -1.88354083898390 -1.66291625202520 -0.23491740094009
 1 -2.17039871237124 -0.04023677327733 -0.69351939153915
 1 -0.23735725312531  0.73671828572857  0.89819021812181
 1 -0.25271307330733 -1.11574608980898  1.50848480368037
 1 -5.70415919131913  6.72453109720972  0.71393710291029
 1 -5.53965095449545  6.16104946804680  2.43464976207621
 1 -4.54553850985099  5.68028919531953  1.15516869246925
 1 -9.52598465096510  6.05861200930093 -0.62402263046305
 1 -9.22231344724472  8.13880461936194  0.48242786458646
 1 -7.57767723352335  7.53611001050105  1.61249963546355
 1 -11.69955406050605  3.16427675367537 -2.61936494119412
 1 -13.26228589778978  2.13757764896490 -1.88074926642664
 1 -12.32603433453345  3.21397005170517 -0.82829407340734
 1 -12.62789756815682 -1.51102054715472 -1.35927088198820
 1 -13.35411413031303 -0.12886962376238 -1.68972449994999
 1 -12.97075342794279 -1.54116880308031 -3.84842472697270
 1 -11.86120968516852 -0.10194473207321 -3.88435193089309
 1 -11.13947022632263 -1.77710257735774 -3.37221584158416
 1 -8.91073067606761 -4.42812355525553 -1.97344060816082
 1 -8.11795115991599 -5.70106011021102 -0.66790640364036
 1 -9.53985387028703 -4.55885090639064 -0.43209503210321
 1 -3.39374006990699 -3.59416266696670  0.09976470497050
 1 -1.86418458495850 -4.01374781448145  3.76408932423242
 1 -2.94205381398140 -5.72572419001900  3.90471331023102
 1 -1.46315442694269 -5.88841811501150  3.09622357525753
 1  2.60960026412641 -1.75405724162416 -1.71758572357236
 1  2.39708718631863  0.15261954155416 -2.01423457565757
 1  4.33870477607761 -1.02928514371437  0.33019623562356
 1  4.13139210271027  1.32139084948495 -2.71673004270427
 1  5.51198661036104  2.14159441834183 -1.95126159435944
 1  5.90581788938894  0.51125223272327 -2.97433616461646
 1  6.72718478137814  1.39419341934193 -0.01264862206221
 1  6.23094721412141 -0.32839087648765  0.70732044874487
 1  7.47481486618662 -1.37008624382438 -1.22180350395040
 1  7.49771220712071  0.40780398849885 -1.95033795739574
 1  8.91044309590959  1.16836472147215 -0.02338470627063
 1  8.89399788848885 -0.61177668386839  0.71594945864586
 1  10.28815636703670 -0.13943140544054 -1.88668355785579
 1  9.25008999449945 -2.11030900740074 -1.93101902670267
 1  11.10625318101810 -2.28407519141914 -1.96143038693869
 1  10.16836972297230 -2.58608055005501 -0.43193263296330
 1  11.20071775267527  0.76828905910591  0.36365785328533
 1  11.28083113651365 -0.67063302460246  0.95130575217522
 1  12.69442276117612 -1.49866802800280 -0.95267293489349
 1  12.96547029952995  0.11935262626263 -1.61491485278528
 1  13.87853929062906  0.98326088208821  0.54653199619962
 1  13.71585433853385 -0.87646725142514  0.98238475497550
 1  15.28541182968297  0.48367785278528 -1.45383974197420
 1  15.96064350725072 -2.35425571767177  0.09699824592459
 1  14.73607665836584 -2.00366274187419 -1.27881529662966
 1  16.58896852625263 -1.70014553945395 -1.79052052155216
 1  16.10854605530553  1.32929076277628  0.86426297059706
 1  16.56047049424942 -0.16487566266627  1.25868863006301
 1  18.01405234393440 -0.43747029442944 -0.35951929232923
 1  17.83680074457446  1.21561888078808 -1.15121869766977
 1  18.50131092369237  2.20488464616462  1.13899190449045
 1  18.99155631593160  0.77811199219922  1.66135613591359
 1  20.82060697339734  0.35110125832583 -0.25779871587159
 1  20.11765587218722  3.34554811671167 -1.02530612401240
 1  21.55135938803880  2.23742039483948 -1.17945930923092
 1  19.87267117151715  1.70344215501550 -2.06117308630863
 1  21.30684665986599  1.14450255935594  2.02382199939994
 1  22.38050975727572  1.66194742444244  0.74632959925993
 1  21.28586831673168  2.97954803810381  1.41201164166417

