%nproc=4
%Mem=2GB
# td=(NStates=1) CAM-B3LYP/6-31G(d,p) 

TD

0 1
12 -7.13111368436844  0.69775852395240  0.01276896429643
 6 -4.85145976397640 -2.01829300770077  0.44045057775778
 6 -4.71566149504951  2.76991543884388  1.08247461236124
 6 -9.47513224872487  3.05010050555055 -0.32397525722572
 6 -9.51260157385739 -1.74911042204220 -0.91915834493449
 7 -5.09308273287329  0.46142596069607  0.65254567286729
 6 -4.34235394149415 -0.73183300530053  0.70968899209921
 6 -2.92197120252025 -0.46093551925193  1.15732608680868
 6 -2.94680811921192  1.07822049034903  1.65201593229323
 6 -4.32390938583858  1.48027877667767  0.98832586248625
 6 -3.00999608170817  1.23150543864386  3.21882329122912
 6 -1.92580604160416 -0.50497575897590  0.01990594889489
 6 -0.53781120372037 -0.37024137133713  0.47390151945195
 6  0.53006414361436 -0.71538505140514 -0.53778915941594
 8  0.22345358545855 -1.10459586718672 -1.71499783148315
 8  1.74568637913791 -0.39657705410541 -0.07613440234023
 7 -7.10414086198620  2.56521211101110  0.25051374687469
 6 -6.01146042504250  3.35554653045304  0.68617215081508
 6 -6.43506075917592  4.71091538093809  0.77630831803180
 6 -7.81059376637664  4.80329096059606  0.39108750005001
 6 -8.13372764436444  3.45370456575658 -0.01895934963496
 6 -5.54207216391639  5.87854031993199  1.13072783328333
 6 -8.53290108770877  5.98629966366637  0.14097108250825
 6 -8.44964885618562  7.14078019661966  0.92675892569257
 7 -9.11107337993799  0.62136499759976 -0.56185021872187
 6 -9.79238549824982  1.82848280138014 -0.68119444354435
 6 -11.21442053865387  1.45876421552155 -1.11724344384438
 6 -11.18667107100710  0.08298366246625 -1.22705141914191
 6 -9.87113279397940 -0.36904887918792 -0.93354837093709
 6 -12.27498632233223  2.56596716771677 -1.40304707950795
 6 -12.31994654095410 -0.72020943104310 -1.80322113061306
 6 -12.31491898029803 -1.19562197339734 -3.27406252485249
 7 -7.11955142344234 -1.34345395899590 -0.20398507550755
 6 -8.28029826962696 -2.17651282338234 -0.50211516671667
 6 -7.80929707530753 -3.60149841734173 -0.54788206550655
 6 -6.56626051015102 -3.53452778977898 -0.12908464036404
 6 -6.11145374177418 -2.16282456375638  0.03846665086509
 6 -8.66626409380938 -4.79021186358636 -0.80105858425843
 6 -5.34900937123712 -4.30572445594559  0.31613448604860
 8 -5.23103194109411 -5.45396988038804  0.22881991269127
 6 -4.15480906030603 -3.37381317111711  0.57071693699370
 6 -3.43228385928593 -3.72076729802980  1.93159353225323
 8 -3.61267286788679 -3.05938267446745  2.91092377347735
 8 -2.72578377207721 -4.78587330973097  1.73074165506551
 6 -2.32570315821582 -5.37645187428743  3.04442937843784
 6  2.79686219791979 -0.71848964356436 -1.03773497389739
 6  4.14484657365737 -0.34126230253025 -0.42287243624362
 6  5.10263374777478  0.45366163156316 -0.84164393709371
 6  5.15811423442344  1.12834548384838 -2.04359852515252
 6  6.41188552135213  0.51472332253225 -0.06705319051905
 6  7.57533507140714 -0.17087743464346 -0.79899685018502
 6  8.93883575617562 -0.04891002140214 -0.06741855465547
 6  10.21277190169017 -0.49144621632163 -0.76650762126213
 6  10.02394909510951 -1.96948788488849 -1.29809327432743
 6  11.40091296819682 -0.29639342014201  0.03329419801980
 6  12.78254316201620 -0.51515556665667 -0.70288031093109
 6  13.89014848324832 -0.03498470127013  0.21659872737274
 6  15.35819194409441 -0.15144887398740 -0.47130537033703
 6  15.53842551145114 -1.64535216901690 -0.83005262296230
 6  16.38478258415842  0.42755711571157  0.46571107830783
 6  17.84192878227823  0.47445884428443 -0.08529434403440
 6  18.84017438693870  1.27407562456246  0.67283771677168
 6  20.20105877507751  1.33070340384038  0.05319008220822
 6  20.33718507230723  2.06057435463546 -1.22978397109711
 6  21.16443737453745  1.91100403670367  1.02942830623062
 1 -4.09273075757576  3.36035155655565  1.58158274517452
 1 -10.17485787848785  3.86943777877788 -0.39784517601760
 1 -10.30357364676468 -2.52645198599860 -1.15109176137614
 1 -2.59234569146915 -0.99538785268527  2.02295298649865
 1 -2.08936254145415  1.55068865146515  1.26538718911891
 1 -2.22172663016302  0.68173862676268  3.92709642314231
 1 -2.85687074707471  2.29277333483348  3.32868503390339
 1 -4.03727717041704  0.87143182718272  3.38449086188619
 1 -2.04763724862486 -1.54420438083808 -0.44801871107111
 1 -2.15005667816782 -0.11691444104410 -1.13492353195319
 1 -0.45984950235023  0.56655126902690  0.97881828092809
 1 -0.38115591759176 -1.12544705990599  1.29713366856686
 1 -5.68564734013401  6.74236288038804  0.50596630583058
 1 -5.79911690109011  6.01655501860186  2.10674697179718
 1 -4.45594955095510  5.66274744114411  1.10951412701270
 1 -9.25350740324033  5.88191433953395 -0.57126735493549
 1 -9.17395861176118  7.99633037193719  0.89898952075208
 1 -7.78687815361536  7.11265766526653  1.75762414791479
 1 -11.85845995109511  3.26056638263826 -2.20161316601660
 1 -13.13181285048505  1.88661255245525 -1.87502869436944
 1 -12.46839857095710  3.12451110581058 -0.62813405740574
 1 -12.44422920132013 -1.67731717681768 -1.30338529342934
 1 -13.29436815571557 -0.39907664446445 -1.53015854335434
 1 -13.22898925152515 -1.67813249944995 -3.53496338083808
 1 -12.39191275547555 -0.36582111971197 -3.96418991469147
 1 -11.43715999529953 -1.64202907000700 -3.32973159315932
 1 -9.38195779877988 -4.73907465036504 -1.63051631573157
 1 -7.96549591439144 -5.71132113631363 -0.74208382138214
 1 -9.37578746364636 -5.27716273757376  0.11288946634663
 1 -3.21663235913591 -3.31930518121812 -0.28975424692469
 1 -1.67084525102510 -4.62534897459746  3.47051996729673
 1 -3.04230383898390 -5.53464508210821  3.61196403530353
 1 -1.81977008850885 -6.36766603980398  2.64101805470547
 1  2.72555185928593 -1.74621645754575 -1.18700266526653
 1  2.58284576217622 -0.14904062446245 -1.95786893909391
 1  4.15404631023102 -0.81392360756076  0.58630184618462
 1  4.18413737723772  1.39731844224422 -2.54755312501250
 1  5.73864927662766  2.11703196209621 -1.84635110331033
 1  6.00618792639264  0.76490759825983 -2.67724645564557
 1  6.50380244314431  1.50367436743674  0.41205384818482
 1  6.32657677707771 -0.11620965836584  0.81876159285929
 1  7.43980136483648 -1.26364559975998 -1.11741306490649
 1  7.65184762066207  0.42310551865187 -1.70438336193619
 1  9.05601765336534  1.13369125412541  0.07381501370137
 1  8.84593308200820 -0.71032653885389  0.91913977767777
 1  10.21870942234223 -0.02097956025603 -1.79827471697170
 1  9.02232721822182 -2.08648662516252 -1.81012693749375
 1  10.75661821752175 -2.30119690359036 -2.00674491839184
 1  10.08456134213421 -2.49807174917492 -0.42341178087809
 1  11.40994867576758  0.81095332553255  0.44624611211121
 1  11.28512156555656 -1.05959192049205  0.94511513311331
 1  12.85727904680468 -1.54690285148515 -1.22695036263626
 1  12.94983873637364  0.17508819981998 -1.47818117941794
 1  13.70774221092109  1.10160271627163  0.56757410041004
 1  13.85543829692969 -0.71751135583558  1.19632614911491
 1  15.31273456195619  0.42189167416742 -1.36619097709771
 1  15.85631307420742 -2.12507279937994 -0.08134958885889
 1  14.74059711041104 -2.06170854645465 -1.29380679577958
 1  16.41928155755576 -1.66790231513151 -1.56494796429643
 1  15.90737593829383  1.49400723442344  0.52220876517652
 1  16.47583203040304  0.05382620752075  1.61911467266727
 1  18.28999993869387 -0.68534508190819 -0.13822716311631
 1  17.69475654015402  0.63891121002100 -1.26735031083108
 1  18.49158995159516  2.35140929862986  0.89216722202220
 1  18.97811497179718  0.61488566956696  1.63001300160016
 1  20.36059097179718  0.25576172437244 -0.30071300730073
 1  20.17207131373137  3.15259882178218 -1.20452404580458
 1  21.23309756185619  1.91973862666267 -1.66924828812881
 1  19.68805270967097  1.69190100090009 -2.08709567856786
 1  21.10351632683268  1.45885399449945  1.91046066326633
 1  22.13258496479648  1.98387961766177  0.56997196349635
 1  21.10647037693769  2.99520960426043  1.18661910241024

