%nproc=4
%Mem=3GB
# td=(NStates=1) iop(3/107=0140000000,3/108=0140000000) CAM-B3LYP/6-31G(d,p) 

TD

0 1
12 -7.19713440514051  0.61715009850985  0.18680505050505
 6 -4.96503532003200 -1.93596082668267  0.48276367876788
 6 -4.78984501510151  2.81911062896290  1.23101320652065
 6 -9.50319708420842  3.16656420942094 -0.26616909220922
 6 -9.60120621862186 -1.68742050775078 -0.89526633153315
 7 -5.19045607680768  0.50006609720972  0.83638146214621
 6 -4.42424467176718 -0.69563070627063  0.82555044974497
 6 -2.96850307090709 -0.47319571757176  1.13215888498850
 6 -3.06235946284628  0.99807850945095  1.75860213951395
 6 -4.39220945564556  1.47322197329733  1.19606400030003
 6 -2.96845302610261  1.17900071937194  3.26264157875788
 6 -1.92129785948595 -0.70032602180218  0.01828563886389
 6 -0.48679438863886 -0.36508975697570  0.49699308160816
 6  0.55210713391339 -0.72028865076508 -0.60348013811381
 8  0.18170838763876 -0.87790156785679 -1.78148554165417
 8  1.79830842924292 -0.62030196859686 -0.13677906550655
 7 -7.20335797919792  2.60612382228223  0.35668659275928
 6 -6.03022316611661  3.33107687508751  0.80484636073607
 6 -6.32164707310731  4.77823468706871  0.78970722942294
 6 -7.70719550485049  4.88785059025903  0.33308943534353
 6 -8.19528905640564  3.46201314011401  0.15256325492549
 6 -5.39074110801080  5.90084955865587  1.03253340854085
 6 -8.59684969296930  6.07006727632763 -0.00647003450345
 6 -8.40307871787179  7.21630077977798  0.64124818411841
 7 -9.14068310941094  0.75052204660466 -0.47916449034903
 6 -9.95391287758776  1.89648297259726 -0.50459327282728
 6 -11.31850580328033  1.51246069056906 -1.10662552225222
 6 -11.24007349454945  0.15316286208621 -1.24851487978798
 6 -9.93380098369837 -0.32958315171517 -0.91069327062706
 6 -12.33353429112911  2.41776701810181 -1.51303075577558
 6 -12.39443323622362 -0.64925104890489 -1.76065539613961
 6 -12.23975588448845 -1.23031322362236 -3.14499515071507
 7 -7.27603056545655 -1.39263409910991 -0.11144381948195
 6 -8.31575590189019 -2.16123466896690 -0.53662524242424
 6 -7.84642668246825 -3.57386793819382 -0.41909220902090
 6 -6.58935672617262 -3.62679566166617 -0.08866094779478
 6 -6.26812054375438 -2.18006596239624  0.12237407280728
 6 -8.62892523202320 -4.73275937433743 -0.82753613671367
 6 -5.37286274917492 -4.37168073147315  0.09724469856986
 8 -5.24350534283428 -5.59688654565457  0.01654760336034
 6 -4.26653115571557 -3.32590003740374  0.55431375297530
 6 -3.63869804660466 -3.70391833453345  1.84221018951895
 8 -3.87232001540154 -3.07998535643564  2.79189254745475
 8 -2.67998335113511 -4.69874849334933  1.70894993249325
 6 -2.10919987698770 -5.05315052095209  2.90183758415842
 6  2.81739806020602 -0.84546283518352 -1.20488400560056
 6  4.11830271547155 -0.53334860276028 -0.54118668146815
 6  5.21267675897590  0.25692222022202 -0.97811068806881
 6  5.10405413101310  1.16849452475248 -2.18189232423242
 6  6.50071635033503  0.23798441444144 -0.18080860526053
 6  7.70093154575458 -0.22758130613061 -0.94855518421842
 6  8.94619233083308 -0.16691850795080 -0.00271637403740
 6  10.28885434603460 -0.59496115931593 -0.79160488048805
 6  10.23784706130613 -1.95083296319632 -1.40922788878888
 6  11.53271793559356 -0.25730062116212  0.15742778027803
 6  12.86335407090709 -0.54171420492049 -0.58375588068807
 6  14.04386565836584 -0.15624133843384  0.20847725932593
 6  15.39656564756476 -0.18783786738674 -0.51652730523052
 6  15.58582485348535 -1.60102849114912 -0.94609643594359
 6  16.51687868056806  0.31204772207221  0.33695843054305
 6  17.85317290499050  0.42208593819382 -0.22086861386139
 6  18.82819323792379  1.29700777927793  0.72727598429843
 6  20.31339414381438  1.46719615211521  0.23509021502150
 6  20.40953379917992  2.21819912501250 -1.10049474537454
 6  21.33089815681568  2.11340304020402  1.25986992699270
 1 -4.12142250575057  3.44170742214221  1.63409950575058
 1 -10.27737986128613  3.99398167266727 -0.40740526672667
 1 -10.15473989808981 -2.52439797489749 -1.14749256865687
 1 -3.02985027222722 -1.22418262096210  2.07752424312431
 1 -2.14051751805181  1.57110917201720  1.27668131713171
 1 -1.91669475587559  1.16669577597760  3.68325866326633
 1 -3.38005511461146  2.19986920972097  3.60716873907391
 1 -3.59438223872387  0.45305045934593  3.59646133133313
 1 -1.98920403940394 -1.62367303810381 -0.11230923802380
 1 -2.20383675267527 -0.07952033223322 -0.79233596819682
 1 -0.24450987968797  0.60723031033103  0.75671953495350
 1 -0.21060948124813 -1.13937470407041  1.40839429772977
 1 -5.56828100580058  6.85265277727773  0.60381021232123
 1 -5.59737120842084  6.25599848124812  2.19236124862486
 1 -4.30364520912091  5.76075034303430  0.90264099669967
 1 -9.44525478527853  5.93962734473447 -0.59887123982398
 1 -9.09160822452245  8.12731245224522  0.49913968966897
 1 -7.58260619271927  7.26034287068707  1.38895785608561
 1 -11.63493396639664  3.03730287738774 -2.28551438293829
 1 -13.28309560726072  2.11955069746975 -1.97804353255326
 1 -12.62242327502750  3.07520485458546 -0.60826126562656
 1 -12.53235520042004 -1.65004592739274 -1.16191969286929
 1 -13.27751005010501 -0.04961767226723 -1.59747550195019
 1 -13.01048624782478 -2.10933459555956 -3.41391234933493
 1 -12.58580898659866 -0.26371484278428 -3.91581055945595
 1 -11.04064890429043 -1.49008003520352 -3.57309558775878
 1 -9.25490010861086 -4.30913741454145 -1.85889195219522
 1 -8.00518490369037 -5.47609356265627 -1.03092304740474
 1 -9.26934111311131 -5.13564201260126  0.08746647794779
 1 -3.45408292679268 -3.47854446004600 -0.16078381648165
 1 -1.22613600120012 -4.16367858125813  3.14305602320232
 1 -2.76437287458746 -5.14850437533753  3.77725876357636
 1 -1.62548306880688 -6.14520530533053  2.84360772187219
 1  2.76149420422042 -1.91469809260926 -1.58856030473047
 1  2.46757319861986 -0.11528344354435 -2.07971902940294
 1  4.34234472117212 -1.15291370517052  0.30618201840184
 1  4.06155146664666  1.18658420112011 -2.38381886758676
 1  5.78297522972297  2.14638506240624 -1.90498793719372
 1  5.70202977147715  0.66307749864987 -3.00441669856986
 1  6.68832701660166  1.15409539013901  0.36637625152515
 1  6.26186405850585 -0.42117945464546  0.67244343984398
 1  7.57288941174117 -1.23166383938394 -1.33475823302330
 1  7.98714127262726  0.38516761976198 -1.72764358725873
 1  9.04687073137314  0.78474797229723  0.35677810591059
 1  8.60665378617862 -0.84157250995100  0.76568269166917
 1  10.59413404520452  0.13065921372137 -1.51410656865687
 1  9.59052866196620 -2.20015829932993 -2.23213159505951
 1  11.33583272387239 -2.23471687098710 -1.98208356645665
 1  9.89155135223522 -2.63300741544154 -0.62541993569357
 1  11.58929057065706  0.78205463886389  0.32959072987299
 1  11.27443503900390 -0.97947924552455  1.03205952605261
 1  12.95090304280428 -1.71829924922492 -0.82699497099710
 1  13.00295612551255  0.15221015701570 -1.63291762546255
 1  13.91485290559056  0.90173553685369  0.68449327802780
 1  13.98977728832883 -0.72926930583058  1.14008638263826
 1  15.31877227862786  0.48060145714571 -1.37196846564656
 1  15.81037483428343 -2.26094543574357 -0.12150028552855
 1  14.98997064146415 -1.91337585758576 -1.63199457295730
 1  16.46072435203520 -1.66097699469947 -1.41123763706371
 1  16.15984925842584  1.29085741944194  0.65850176647665
 1  16.54989906770677 -0.44390067486749  1.33506200090009
 1  18.46570330803080 -0.56385289928993 -0.48663885948595
 1  17.82594990459046  0.92706160026003 -1.25478122172217
 1  18.51902095899590  2.31443271127113  1.11973392019202
 1  18.87107306980698  0.82903774327433  1.68969221472147
 1  20.77185701800180  0.47425842344234  0.07498339053905
 1  20.18222504100410  3.28539931643164 -0.93626581128113
 1  21.53637743854386  2.32131327342734 -1.31025900710071
 1  19.93419181678168  1.85953624382438 -2.04924330873087
 1  21.33417727122712  1.29245488638864  2.09754342314231
 1  22.35101299409941  2.13278374907491  0.77953460706071
 1  20.88800887938794  2.99475559275928  1.63506064276428

