%nproc=4
%Mem=2GB
# td=(NStates=1) CAM-B3LYP/6-31G(d,p) 

TD

0 1
<<<<<<< HEAD
12 -7.07740831383138  0.57366611471147  0.05145283268327
 6 -4.87174179217922 -2.03036421482148  0.51751828452845
 6 -4.78305823472347  2.81213966126613  1.05060142504250
 6 -9.34259899539954  3.15306080158016 -0.45323818351835
 6 -9.55218553225323 -1.69090460146015 -0.79318574767477
 7 -5.14120754535454  0.40329014711471  0.68427884618462
 6 -4.31707141324132 -0.81805162716272  0.87399542274227
 6 -2.93347235263526 -0.46810623632363  1.20930128432843
 6 -3.01706514491449  1.05040770907091  1.65770650135014
 6 -4.35526252115211  1.47891864066407  1.05099212911291
 6 -2.92468755085509  1.27228951705171  3.18041945084508
 6 -1.87762122312231 -0.65411067246725  0.15393935223522
 6 -0.35342276487649 -0.53506785398540  0.62597672697270
 6  0.48199933713371 -0.68964247714771 -0.57159253975398
 8  0.06974821492149 -1.16056146374637 -1.66608293999400
 8  1.73885569606961 -0.43466086248625 -0.24597138603860
 7 -7.07968841674167  2.66976256605661  0.24897359285929
 6 -5.98720799979998  3.40100107590759  0.63943747734773
 6 -6.25763301640164  4.77283157255726  0.73305399259926
 6 -7.62016472347235  4.88381901340134  0.28935732703270
 6 -8.06173044464447  3.59094829012901 -0.02272972667267
 6 -5.34277223392339  5.88903136903690  1.30009476997700
 6 -8.42781057865787  6.09713074677468  0.05722270767077
 6 -8.44137802910291  7.17021313991399  0.87733398319832
 7 -9.14782705530553  0.61966482758276 -0.56148018171817
 6 -9.87949420912091  1.86328628172817 -0.65834215831583
 6 -11.27314641124112  1.47920625972597 -1.04928664816482
 6 -11.24209661356136  0.12109747384738 -1.21273998799880
 6 -9.94429010971097 -0.38918089238924 -0.88609362546255
 6 -12.33144196789679  2.53533410441044 -1.41581835663566
 6 -12.35139968626863 -0.70512792289229 -1.76710751925193
 6 -12.25865335373537 -0.82715512671267 -3.31265638423842
 7 -7.17907737603760 -1.45311492509251 -0.09703438043804
 6 -8.22118235803580 -2.23718889098910 -0.58067302250225
 6 -7.83024917051705 -3.60853912141214 -0.46597387468747
 6 -6.49107299139914 -3.53305764276428  0.00119838793879
 6 -6.13908650505051 -2.26052433373337  0.17976078027803
 6 -8.68087555495550 -4.87326016841684 -0.74456293469347
 6 -5.35335980628063 -4.39139302280228  0.21289416201620
 8 -5.23959279717972 -5.57395187858786  0.08727575827583
 6 -4.20885446484648 -3.43649943974397  0.58136800210021
 6 -3.52885351625163 -3.66216143744374  1.86784715761576
 8 -3.95477707830783 -3.22693943014301  2.97308999009901
 8 -2.65970716441644 -4.68546326872687  1.81887046794680
 6 -2.30904149204921 -5.30620484958496  3.05755069056906
 6  2.83031554325433 -0.82960075467547 -1.18980018041804
 6  4.09276136513651 -0.51136931323132 -0.54574472347235
 6  5.19598308270827  0.31682794819482 -0.99734950765076
 6  5.03453187618762  1.09341199049905 -2.30670483578358
 6  6.49712404520452  0.42005385558556 -0.23512999819982
 6  7.59098663656366 -0.38152849974997 -0.88589554005401
 6  8.98553042564257 -0.13666879727973 -0.18004981778178
 6  10.15281590609061 -0.55669274097410 -0.97735870637064
 6  10.12649935013501 -1.96887782388239 -1.34499796479648
 6  11.43260613751375 -0.16299007980798 -0.09517864926493
 6  12.80227513521352 -0.39883393449345 -0.69949997289729
 6  13.96592606100610 -0.09489069186919  0.26652371987199
 6  15.25508163306331 -0.12092582168217 -0.45701394119412
 6  15.52151382028203 -1.58302593639364 -0.81035065276528
 6  16.35047915381538  0.38533289328933  0.52518702590259
 6  17.82045663506350  0.68584998339834 -0.14429024362436
 6  18.74936530603060  1.33360157715772  0.70242067506751
 6  20.19667833703370  1.38737907140714  0.14535929912991
 6  20.25448680248025  2.25280357755776 -1.07749874257426
 6  21.12867379817982  2.01076401270127  1.21478684208421
 1 -4.06385787028703  3.64464998639864  1.22179676657666
 1 -10.13695408810881  3.83073390839084 -0.63931932343234
 1 -10.12047533693369 -2.63647298809881 -1.26527317951795
 1 -2.63689014591459 -1.18863717761776  2.04975566676668
 1 -2.30722432763276  1.66703028562856  1.06093674407441
 1 -1.86115057255726  0.73542399529953  3.32526624012401
 1 -2.91715677567757  2.28971302880288  3.53577574297430
 1 -3.64163760646065  0.75521020502050  3.77547996079608
 1 -2.00503298819882 -1.52393235363536 -0.47373128232823
 1 -2.22417408990899  0.22236948734873 -0.46756679627963
 1 -0.00339385678568  0.41921653555356  1.21814221332133
 1 -0.15422322432243 -1.44998951415141  1.07601155635564
 1 -5.44374314971497  6.88708735283528  0.87919362856286
 1 -5.18432542194219  5.82690605370537  2.40474677177718
 1 -4.39348330433043  5.69030019641964  1.08283145874588
 1 -9.09337138963896  6.03050919901990 -0.85938616681668
 1 -9.12563377927793  7.95117585648565  0.65219484128413
 1 -7.96502596839684  7.26684308380838  1.79557794329433
 1 -12.23120722582258  3.16209653565357 -2.29456246094610
 1 -13.26347601680168  2.13526741794179 -1.68394958645865
 1 -12.46769850095010  3.27336599129913 -0.58565980998100
 1 -12.18276305470547 -1.76123556865687 -1.30918587348735
 1 -13.43592231113111 -0.37654439123912 -1.50278580608061
 1 -13.36570292289229 -1.25471015721572 -3.68724860936094
 1 -12.29845340954096  0.24735019741974 -3.60399389508951
 1 -11.45590186948695 -1.51685655275528 -3.62105072507251
 1 -8.94472407540754 -4.87840858375838 -1.97813107720772
 1 -8.01019038383838 -5.75775577977798 -0.37435704870487
 1 -9.70828071297130 -4.86360138143815 -0.25001682428243
 1 -3.57325802170217 -3.36193944464446 -0.18887415891589
 1 -1.92381054755476 -4.71791823152315  3.93464637993799
 1 -3.19989959855986 -5.70896251385139  3.53167600650065
 1 -1.65818392989299 -6.14207348054806  2.70923487638764
 1  2.62328163226323 -1.84750658655866 -1.49760372537254
 1  2.65270274787479 -0.11129685008501 -1.94863801600160
 1  4.33069397499750 -0.99695191039104  0.41800501650165
 1  4.04702366586659  0.99964867526753 -2.73232160186019
 1  5.02757816951695  2.11703196209621 -2.17520398859886
 1  5.74795210281028  0.84289539703970 -3.20112884388439
 1  6.53039510241024  1.42699669966997 -0.21542890009001
 1  6.36611073047305 -0.14773281068107  0.74085380208021
 1  7.68253563826383 -1.49207844304430 -0.94115543914391
 1  7.72155459135914  0.02770597869787 -1.90571349494949
 1  9.00300235183518  0.93664154915492  0.12416004820482
 1  8.79309779847985 -0.46640214641464  0.81464932863286
 1  10.13497104850485  0.22069460716072 -1.81557644714471
 1  9.37701268676868 -2.41456943344334 -2.07463338813881
 1  11.13858641434143 -2.05728251215122 -1.80335457935794
 1  10.16162904890489 -2.63318526052605 -0.43780322002200
 1  11.60185786668667  0.76254848504851  0.27478896639664
 1  11.54101715511551 -0.84136009730973  0.78672929452945
 1  12.99398271717172 -1.47424558575858 -1.09282695029503
 1  12.90689444194419  0.16496718771877 -1.59234259555956
 1  13.62382381908191  0.83387594359436  0.82230957395740
 1  14.10601335443545 -0.90654025872587  1.02066858335834
 1  15.16259954845484  0.48530801580158 -1.35408976697670
 1  15.45029247214721 -2.12515280738074  0.19291783788379
 1  15.10411346204621 -1.79828220382038 -1.72452986808681
 1  16.68763839323933 -1.59505503040304 -1.04409587908791
 1  15.96236143684368  1.47510534423442  0.91462800710071
 1  16.56530097729773 -0.32168134323432  1.35919868106811
 1  18.35960689938994 -0.11480802820282 -0.43095643604360
 1  17.62844990949095  1.35450276917692 -1.03860743654365
 1  18.34881567416742  2.33607776547655  0.81458946424643
 1  18.53043020332033  0.94586876787679  1.58984898519852
 1  20.54299921262126  0.32726887508751 -0.01964490049005
 1  19.77317142374237  3.28303186508651 -0.71671526492649
 1  21.40307455955596  2.60972762556256 -1.35689705300530
 1  19.73778768316832  1.52860467126713 -1.74574154315432
 1  21.35138111331133  1.36665477457746  2.04046366356636
 1  22.21894360066007  2.17398862856286  0.98230319661966
 1  20.84239396929693  3.09545962926293  1.74441488198820
=======
12 -7.14510508350835  0.68046679477948  0.11800948834883
 6 -4.94584920292029 -1.87352853125313  0.53070960366037
 6 -4.79104903380338  2.78400684798480  1.09966633153315
 6 -9.39153388888889  3.10151564706471 -0.38831169086909
 6 -9.55609592329233 -1.74626013701370 -0.69490591969197
 7 -5.15308873347335  0.43721353945395  0.64751516981698
 6 -4.31381108720872 -0.68683850585059  0.71546957015702
 6 -2.92573157855786 -0.36618604430443  1.14622497669767
 6 -2.97372081048105  1.03544621292129  1.62320305100510
 6 -4.38950594549455  1.52422317111711  1.07273430333033
 6 -3.05428051015102  1.36134842294229  3.09552096099610
 6 -1.90694415541554 -0.59947520892089  0.01584554285429
 6 -0.54633205580558 -0.50024437163716  0.44839896919692
 6  0.51137227442744 -0.60709422232223 -0.57472285278528
 8  0.25100634073407 -1.02042745034503 -1.73709004070407
 8  1.76088789928993 -0.25321271767177 -0.27304409330933
 7 -7.07621806970697  2.63312890269027  0.38223691919192
 6 -6.02639191819182  3.42255323112311  0.71455498909891
 6 -6.44250150325033  4.77079136853685  0.81226191339134
 6 -7.73357606460646  4.77567819931993  0.33080147144714
 6 -8.09029330093009  3.47171636693669 -0.01439889358936
 6 -5.54893284998500  5.79287175307531  1.29530429092909
 6 -8.52151994959496  6.08801983568357  0.04233121852185
 6 -8.47871176247625  7.17369348794880  0.75978222802280
 7 -9.04038631123112  0.65454831593159 -0.50764479817982
 6 -9.87983424312431  1.69823977707771 -0.59983630773077
 6 -11.19980907750775  1.41493983308331 -1.19970168966897
 6 -11.24220662456246  0.00659602370237 -1.31230994499450
 6 -9.91539722042204 -0.42334430873087 -0.82168718481848
 6 -12.27559638333833  2.41368193919392 -1.40144691949195
 6 -12.37212175847585 -0.88397580768077 -1.77747855635564
 6 -12.20569805820582 -1.16201861306131 -3.22437755635564
 7 -7.25095456375638 -1.43811342494249 -0.21380605760576
 6 -8.28810905070507 -2.28510368246825 -0.43077803300330
 6 -7.84110025562556 -3.62788105560556 -0.46442371967197
 6 -6.56943082718272 -3.63297763476348  0.04517278537854
 6 -6.23149574597460 -2.21319960126013  0.09358216241624
 6 -8.65027249464946 -4.89435227762776 -0.69539801820182
 6 -5.43227769806981 -4.34142802630263  0.21695456805681
 8 -5.18431726962696 -5.58876335973597  0.30119715041504
 6 -4.20307388678868 -3.21862765256526  0.60201006630663
 6 -3.61206183708371 -3.66164138543854  1.84227460036004
 8 -3.89624122472247 -3.14138087428743  2.94094677577758
 8 -2.80220141384138 -4.70102482488249  1.71917049794980
 6 -2.26404699259926 -5.36244047314731  2.93948888438844
 6  2.78520103180318 -0.51146894149415 -1.27034823522352
 6  4.14655674467447 -0.37965614191419 -0.48620876987699
 6  5.18321180558056  0.41543780918092 -0.85731550425043
 6  5.13893231623162  1.30497314661466 -2.07518168346835
 6  6.43508784158416  0.40164201440144 -0.06473295849585
 6  7.58394593249325 -0.12309265616562 -0.90024697519752
 6  8.93626549914991 -0.10731586198620  0.00671885908591
 6  10.11954257875787 -0.38659573127313 -0.80617158765877
 6  10.25153185338534 -1.90891182728273 -1.42159562456246
 6  11.52061493839384 -0.29338311911191  0.13457432603260
 6  12.88440334803480 -0.46077012811281 -0.71780180308031
 6  14.12398186658666 -0.04161536433643  0.09115618311831
 6  15.44484060896090 -0.20663439253925 -0.62548078787879
 6  15.66782845174517 -1.74394202800280 -0.86448606630663
 6  16.49404351025102  0.32789714971497  0.27622212941294
 6  17.80393498289829  0.46459785818582 -0.29750556515652
 6  18.75753612311231  1.27952616961696  0.73180361336134
 6  20.20551922112211  1.29786011951195  0.22329709290929
 6  20.37911926572657  2.12098039523952 -1.01885287798780
 6  21.23159409020902  1.81575451175118  1.36046140954095
 1 -4.12008349284929  3.65592111351135  1.38904349124913
 1 -10.18028842154215  3.92359319431943 -0.61010640214021
 1 -10.36410970037004 -2.35975531633163 -0.90432708490849
 1 -2.91662811971197 -1.07050536443644  1.92823351455146
 1 -2.25950955615562  1.75417900050005  1.32295294569457
 1 -2.08745320282028  1.04253470637064  3.64199791329133
 1 -3.37741280128013  2.48974303180318  3.07641980738074
 1 -3.73088653135314  0.54900958495850  3.61270368316832
 1 -1.94091657655766 -1.62607256765677 -0.23541745094510
 1 -1.98512018451845 -0.00394314391439 -0.81709174877488
 1 -0.43501701910191  0.52905751965197  1.09020942004200
 1 -0.30930873287329 -1.38944345954595  1.16483043824382
 1 -5.99010778617862  6.74469311341134  0.73733944314431
 1 -5.45401239063906  6.05727909100910  2.29369566666667
 1 -4.34524848084809  5.78548971537154  0.85383855945595
 1 -9.37335938843884  5.95919206730673 -0.78522875107511
 1 -9.04494571047105  8.16387712661266  0.37245686748675
 1 -7.71351081688169  7.32195859535954  1.45361374687469
 1 -11.94582868796880  3.22891321732173 -2.23168617331733
 1 -13.10782045124512  1.81558544974497 -1.82295348684868
 1 -12.78083981508151  3.03084173887389 -0.39371061506151
 1 -12.37263204160416 -1.92500194529453 -1.32800775567557
 1 -13.30253897279728 -0.36969370617062 -1.73713924142414
 1 -12.81460781338134 -1.79247393359336 -3.83402328682868
 1 -12.52325588978898 -0.55320985858586 -3.93960745644564
 1 -11.16877315661566 -1.54975984308431 -3.58287690769077
 1 -9.14290389338934 -5.06092683558356 -1.85304856895690
 1 -7.89312867766777 -5.70836084028403 -0.54191380438044
 1 -9.31497138203820 -4.95088010931093  0.03368154555456
 1 -3.52989368526853 -3.45044829552955 -0.32269754125413
 1 -1.63095126162616 -4.72474891459146  3.47866078137814
 1 -3.05634524312431 -6.03121473907391  3.24338717761776
 1 -1.31740985248525 -6.07941721492149  2.51183513641364
 1  2.54318362246225 -1.54873670957096 -1.64941890689069
 1  2.72240971857186  0.11035531513151 -2.16305945814581
 1  4.55069597519752 -1.17342955815581  0.29302251825183
 1  4.13903286678668  1.20789950035004 -2.59759812951295
 1  5.51083649534954  2.22784304320432 -2.07286375457546
 1  5.93121042864286  1.03234434193419 -2.71765049604961
 1  6.80754281718172  1.43400740074007  0.27705034783478
 1  6.04081820122012 -0.33173121052105  0.73161287798780
 1  7.48029541424142 -1.01171040624062 -1.18318964256426
 1  7.70819325522552  0.73175638373837 -1.65893881748175
 1  9.10044209580958  0.90157804280428  0.21103873607361
 1  8.74032252095210 -0.76738224442444  0.83122098579858
 1  10.43539109050905  0.46781931963196 -1.53520841034103
 1  9.30404539003900 -2.00890886738674 -1.84579050385038
 1  10.97702025772577 -2.09637642154215 -2.22057630153015
 1  10.25857874387439 -2.74510645264526 -0.52538197789779
 1  11.60113779467947  0.64481671187119  0.80948243574357
 1  11.59995304870487 -1.13863982528253  0.93388401000100
 1  13.13034635353535 -1.48347650885089 -1.19805747334733
 1  12.59220297279728  0.24736542754275 -1.47168052935294
 1  14.05892732943294  1.06207876387639  0.38500584358436
 1  14.19528228132813 -0.73184278897890  1.05581209770977
 1  15.44030731923192  0.34904438943894 -1.58650300830083
 1  15.90497794069407 -2.30495078717872 -0.07302875677568
 1  14.92132518321832 -2.40874324992499 -1.51561897699770
 1  16.63968359775978 -1.76372189708971 -1.18914038353835
 1  16.25208040874087  1.28619645334533  0.61959850415042
 1  16.69694414161416 -0.40507968306831  1.21814457565757
 1  18.25686662536254 -0.38804535193519 -0.38033137353735
 1  17.79195626012601  0.84615193409341 -1.40511408720872
 1  18.06753754635464  2.35084924262426  0.95901390669067
 1  18.59918707900790  0.84933911491149  1.63706370667067
 1  20.54119903260326  0.34449059725973 -0.03364630063006
 1  20.10819492609261  3.19656321822182 -0.95238883228323
 1  21.41793604570457  2.14288094089409 -1.30181154445445
 1  19.82588649304931  1.63149496029603 -1.96336330533053
 1  21.18311428662866  1.08630673977398  2.33685330253025
 1  22.18471017731773  1.93050428012801  0.86727169346935
 1  20.88132786268627  2.87765784908491  1.73361380188019
>>>>>>> 8e03b5b5abfc0030b3aa597dc0de36371bfbd096

