%nproc=4
%Mem=3GB
# td=(NStates=1) iop(3/107=0140000000,3/108=0140000000) CAM-B3LYP/6-31G(d,p) 

TD

0 1
12 -7.05331002270227  0.55935431893189  0.02553892389239
 6 -4.90412922942294 -1.93152038263826  0.54883028542854
 6 -4.83312934353435  2.93996271417142  1.31425153035304
 6 -9.40152691719172  3.23354090709071 -0.50933340864086
 6 -9.63565966396640 -1.68727049274927 -1.02964976987699
 7 -5.04325135633563  0.50198628922892  0.71562938693869
 6 -4.32540478777878 -0.69786092929293  0.82692058675868
 6 -2.91762798339834 -0.41804020202020  1.30683635273527
 6 -3.05747897479748  1.05676437803780  1.84095037433743
 6 -4.40113034773477  1.56940159125913  1.25558995289529
 6 -3.07557373817382  1.10890370967097  3.35750106470647
 6 -1.92022775247525 -0.52126811601160  0.08708251855186
 6 -0.44280999019902 -0.42444569256926  0.64838822112211
 6  0.51604352755276 -0.76787340924092 -0.50436022612261
 8  0.26248646544654 -1.25457923562356 -1.54998239133913
 8  1.76318491689169 -0.34959489788979 -0.07771315891589
 7 -7.14934257765777  2.61796500640064  0.22364328842884
 6 -6.09782992679268  3.36853062046205  0.79342521862186
 6 -6.43012792119212  4.74102096569657  0.87618587728773
 6 -7.73485827112711  4.89139094429443  0.42877900430043
 6 -8.10714024152415  3.58405534433443  0.01843984258426
 6 -5.56614864876488  5.91794126782678  1.32735289048905
 6 -8.54160416841684  6.03778404800480  0.21810242274227
 6 -8.49836824682468  7.22435158485849  0.92401646094609
 7 -9.17648668976898  0.70264725912591 -0.57505407930793
 6 -9.83532101840184  1.85661898619862 -0.80029284278428
 6 -11.24443839653966  1.55947539203920 -1.34852971267127
 6 -11.23667315451545  0.10229777557756 -1.41195122342234
 6 -10.00823842744274 -0.39901009440944 -0.97764996629663
 6 -12.26545748344835  2.61965720712071 -1.64812426512651
 6 -12.45518931183118 -0.60889701350135 -1.90276960756076
 6 -12.09649155805581 -1.29928012031203 -3.34057470867087
 7 -7.29388235063506 -1.35049988568857 -0.16843951905191
 6 -8.32548687498750 -2.19735828132813 -0.59540112001200
 6 -7.92586462626263 -3.52661321272127 -0.46860716051605
 6 -6.63630142064206 -3.54127710981098 -0.15403748544854
 6 -6.21188492019202 -2.19954791059106  0.05084692009201
 6 -8.62261460096010 -4.81490758915892 -0.85309869296930
 6 -5.31558702160216 -4.40549411281128  0.23296827092709
 8 -5.16361735403540 -5.57158401540154  0.18596454505451
 6 -4.19804430703070 -3.29303675107511  0.67786610821082
 6 -3.51445562236224 -3.65931387408741  1.93744971347135
 8 -3.71499428282828 -3.12363972187219  2.96279963816382
 8 -2.78775412821282 -4.78096671517152  1.80435947344734
 6 -2.33976293329333 -5.28961416731673  3.09923732413241
 6  2.80902722312231 -0.53967225612561 -1.07437095429543
 6  4.12421330653065 -0.44227949584958 -0.33825638843884
 6  5.12364785608561  0.21319784778478 -0.85288816581658
 6  5.13280700630063  1.24181185648565 -2.15256939193919
 6  6.47452373107311  0.10909152515252 -0.09232975737574
 6  7.71675312791279 -0.19324787278728 -0.91940226892689
 6  8.89771748334834 -0.09150096619662 -0.13135923832383
 6  10.26457191779178 -0.67703936713671 -0.92684840484048
 6  10.20443371997200 -2.15868374827483 -1.36336330233023
 6  11.57964262806281 -0.41508639973997 -0.13576153865387
 6  12.86829456495650 -0.66520655415542 -0.82439994509451
 6  14.00997226902690 -0.19858557285729  0.09364577617762
 6  15.39629562056206 -0.27798688228823 -0.52014766726673
 6  15.77730400140014 -1.68066645494549 -1.09667149344934
 6  16.41033802650265  0.31192771007101  0.46909164386439
 6  17.87706529422942  0.57833156275628 -0.27852437943794
 6  18.78005842444244  1.37663574207421  0.61058431513151
 6  20.14363716811681  1.46789622212221  0.14454116011601
 6  20.31211405720572  2.37937524262426 -1.03624832073207
 6  21.10557562456246  2.04255595549555  1.20852479247925
 1 -4.06061642514251  3.54593784518452  1.58673476927693
 1 -10.19132125542554  3.92069434393439 -0.56000052625263
 1 -10.38704312841284 -2.53427896299630 -1.27962578197820
 1 -2.75491277847785 -1.14694489718972  2.16467295799580
 1 -2.21594506080608  1.81945400650065  1.53970761976198
 1 -2.17256034243424  0.73917302370237  3.94202453985399
 1 -3.44332144124412  2.10862008480848  3.70204822702270
 1 -3.93230603110311  0.65725087938794  3.78110979617962
 1 -1.82576769576958 -1.56219689048905 -0.35404341144114
 1 -2.10849721872187  0.31551917171717 -0.58520525512551
 1 -0.18406383508351  0.52438202550255  1.18622248524853
 1 -0.24427284758476 -1.08929969656966  1.55028848714872
 1 -5.68474265196520  6.72752026402640  0.56685651695170
 1 -5.80618208950895  6.22443532493249  2.46643865636564
 1 -4.53383822842284  5.67020128812881  1.20529126172617
 1 -9.23088334813481  5.90274365636564 -0.56117747044704
 1 -8.99432849654965  7.92866258725873  0.63256303200320
 1 -7.92632056415642  7.50754759115912  1.81808076837684
 1 -11.87669814281428  3.40516966406641 -2.52638847034703
 1 -13.30871816951695  2.26428517091709 -2.16051177937794
 1 -12.50340137283728  3.19265659975998 -0.77301774127413
 1 -12.60185215011501 -1.56044696749675 -1.15972947384738
 1 -13.37667996709671 -0.21154386488649 -1.93128888328833
 1 -12.76032123132313 -2.07178084018402 -3.63771472957296
 1 -11.96217662336234 -0.54928339963996 -4.12634161256126
 1 -11.24523936333633 -1.84138516571657 -3.30141842004200
 1 -9.44872949154916 -4.70567706850685 -1.78634469746975
 1 -7.87587197239724 -5.53863981728173 -1.01073102820282
 1 -9.07339151815182 -5.19274772317232  0.07985571687169
 1 -3.42485000350035 -3.42463906950695 -0.08254599269927
 1 -1.85417880548055 -4.34958717211721  3.70079179677968
 1 -2.99627606490649 -5.50935045994600  3.73921495919592
 1 -1.69303982448245 -6.09372015681568  2.73983734483448
 1  2.64641269606961 -1.65925254805481 -1.46872832153215
 1  2.84456089738974  0.10947903270327 -1.90200125762576
 1  4.18974946164616 -0.88367678147815  0.65280668086809
 1  4.06063137463746  1.74366990969097 -2.43847433313331
 1  5.83519045124512  2.14883530743074 -1.90927836623662
 1  5.50415998449845  0.85431662256226 -3.14799105600560
 1  6.74186237013701  1.18707868846885  0.47733734763476
 1  6.60707857995800 -0.46165350205021  0.72101829732973
 1  7.87429955275528 -1.14467514051405 -1.39317407460746
 1  7.87667022552255  0.20132923592359 -1.76922774567457
 1  9.13908995329533  1.04609410691069  0.24811723982398
 1  9.11315443624363 -0.83012136483648  0.66925304870487
 1  10.33083771557156 -0.30952480468047 -2.00529568756876
 1  9.33035264436444 -2.23517180068007 -2.05127350925093
 1  11.17383652425243 -2.52673607290729 -1.92347770587059
 1  9.95491768886889 -2.91133524822482 -0.40274766846685
 1  11.53429507110711  0.63393982738274 -0.25412764196420
 1  11.41416901240124 -0.86433773137314  0.84442076217622
 1  13.10276822932293 -1.83933135243524 -0.94333660516052
 1  12.79692552245224 -0.15664072807281 -1.85914024772477
 1  13.87364878517852  0.79926528982898  0.45218004670467
 1  13.88759707030703 -1.07033341224122  0.72107448144814
 1  15.39734013541354  0.50088348534853 -1.14779604840484
 1  15.67252104890489 -2.43282262346235 -0.26130426592659
 1  15.08390003440344 -2.11366588658866 -1.75399677317732
 1  16.90257853745375 -1.50626152315232 -1.42670918421842
 1  16.10554382788279  1.18874720842084  0.89042495879588
 1  16.86851092889289 -0.57736402120212  1.07414590929093
 1  18.48386512421242 -0.41591810581058 -0.53811400700070
 1  17.63939124872487  1.36509540364036 -1.10363610721072
 1  18.44591364826483  2.47857912591259  0.50047199399940
 1  18.75711167366737  0.99293413291329  1.69320256575658
 1  20.48953878617862  0.46470746834683  0.01786767896790
 1  20.02017883638364  3.43552432893289 -0.61028321302130
 1  21.29578337913791  2.57420856295629 -1.39023700490049
 1  19.64632302990299  2.09303959415942 -1.91446983138314
 1  21.19396324982498  1.28931457235724  2.06670033883388
 1  22.07348524132413  2.18509898059806  0.74665131873187
 1  20.68498857735774  3.02904902210221  1.56478361506151

