%nproc=4
%Mem=2GB
# td=(NStates=1) CAM-B3LYP/6-31G(d,p) 

TD

0 1
12 -7.12946351935194  0.59113786188619 -0.01019333193319
 6 -4.91431604960496 -1.89048022642264  0.51927846054605
 6 -4.79997992689269  2.84144259155916  1.13298966386639
 6 -9.33436817231723  3.10951644714471 -0.43438629832983
 6 -9.60750106380638 -1.78699421042104 -0.80040646974697
 7 -5.12106553115312  0.40880069816982  0.66502692099210
 6 -4.37168687478748 -0.70779060106011  0.76872489568957
 6 -2.89647865326533 -0.36161558725873  1.19725007920792
 6 -3.01620505890589  1.08347101540154  1.60597132783278
 6 -4.44121111601160  1.45807655645565  1.13745077497750
 6 -2.88400348244825  1.24375666376638  3.06609801870187
 6 -1.97985144614461 -0.65694095549555  0.04240819911991
 6 -0.53894131673167 -0.44221856905691  0.47943207250725
 6  0.46221735893589 -0.68119163206321 -0.67274265476548
 8  0.30501174127413 -0.98910431803180 -1.77046337803780
 8  1.72052386288629 -0.41495889228923 -0.23356014491449
 7 -6.99331977987799  2.51875746554655  0.27273596909691
 6 -6.06828610761076  3.31782275807581  0.74641817541754
 6 -6.50851810491049  4.68726301570157  0.91489217641764
 6 -7.77438014501450  4.77847847934793  0.37686607790779
 6 -8.07774204580458  3.49368856415642  0.00254280058006
 6 -5.49847780448045  5.81236370227023  1.37807256775678
 6 -8.58307610521052  5.94057509120912  0.16036302170217
 6 -8.61195508680868  7.02370848944894  0.90869711951195
 7 -9.20104237683768  0.64098695979598 -0.50614464816482
 6 -9.83068932863286  1.79190914401440 -0.74048037213721
 6 -11.26448554515451  1.45257359645965 -1.19590130963096
 6 -11.33621602550255  0.08471383548355 -1.30729944394439
 6 -9.90348602930293 -0.38941091539154 -0.88072308840884
 6 -12.27632645634563  2.47087765876588 -1.59754652945295
 6 -12.43142768906891 -0.76793420352035 -1.70448125662566
 6 -12.19972746114611 -1.08818122932293 -3.28961408000800
 7 -7.30166963526353 -1.36589620322032 -0.14472914991499
 6 -8.34379461926193 -2.26189136123612 -0.49834478967897
 6 -7.90867701330133 -3.62643091059106 -0.41859913721372
 6 -6.58065194929493 -3.51927626462646 -0.04566629852985
 6 -6.21384398079808 -2.16840512181218  0.17178998319832
 6 -8.73831129852985 -4.85356819921992 -0.71194967336734
 6 -5.33611808210821 -4.25220910441044  0.20476334893489
 8 -5.17460629852985 -5.52083656705671  0.08878590929093
 6 -4.21466504590459 -3.25050083988399  0.57155702100210
 6 -3.48985961686169 -3.56158137943794  1.87206757965797
 8 -3.60168176877688 -2.97508424462446  2.97269995109511
 8 -2.70552174587459 -4.64005872827283  1.70248882978298
 6 -2.16323691159116 -5.05470970007001  3.09304423992399
 6  2.81559407110711 -0.67962575717572 -1.10492169256926
 6  4.08859094809481 -0.31553973027303 -0.44577472647265
 6  5.11901538593859  0.32662892829283 -0.89883965666567
 6  4.94295271827183  1.23147579687969 -2.13308747404740
 6  6.42370670347035  0.28269011921192 -0.15164164936494
 6  7.59545708360836 -0.22765311221122 -0.85190214071407
 6  8.86874874747475 -0.06788191859186 -0.11128294109411
 6  10.17016764126413 -0.45630270197020 -0.90203117361736
 6  10.13143984418442 -2.08634957105711 -1.22829629462946
 6  11.47734061096110 -0.31164494529453 -0.05213434483448
 6  12.80580548824882 -0.41932598369837 -0.67363738663866
 6  13.94678414681468 -0.17856905970597  0.24446151365137
 6  15.38092421732173 -0.25856958605861 -0.39158739853985
 6  15.76928859775978 -1.60069770357036 -1.01631124882488
 6  16.46320042594260  0.47146150615061  0.45646015321532
 6  17.86853144254425  0.62995439383938 -0.21988780338034
 6  18.88295866536654  1.28607682468247  0.68780921392139
 6  20.39436810601060  1.26272660616062  0.17200196339634
 6  20.51527288108811  2.00960925812581 -1.15681667436744
 6  21.35302623342334  1.94135707200720  1.30169553295330
 1 -4.18252973747375  3.56185170657066  1.57648223512351
 1 -10.16325671837184  3.96711754675467 -0.50642603410341
 1 -10.46977026642664 -2.32085142594259 -1.15530218241824
 1 -2.78813527042704 -1.18091640554055  1.93374406560656
 1 -2.32286589178918  1.77812139473947  0.96076672707271
 1 -1.96806126362636  0.81038149104911  3.45827954145414
 1 -2.77011207120712  2.26026008350835  3.38409057445745
 1 -3.76417986068607  0.56221090509051  3.63881629442944
 1 -2.38563104800480 -1.67906786718672 -0.21359526872687
 1 -2.23446511901190  0.06470372077208 -0.78110815041504
 1  0.15886236883688  0.29965457935794  0.87122752185219
 1 -0.26220402240224 -1.23057757295730  1.17938189338934
 1 -6.09757853325333  6.79338798289829  0.90978668786879
 1 -5.29280627002700  5.74707807090709  2.38683498059806
 1 -4.50287424342434  5.77791895829583  0.74429760536054
 1 -9.25064711721172  5.96000214831483 -0.82808303650365
 1 -9.21905312121212  7.94663540244024  0.62660228202820
 1 -7.92165163096310  6.98518491799180  1.78830721622162
 1 -11.93519762486249  3.13060338633863 -2.44106711141114
 1 -13.14385405460546  1.96388027922792 -1.93853504500450
 1 -12.53152488358836  3.25216387108711 -0.98987023102310
 1 -12.51961674007401 -1.70252969806981 -1.19979493439344
 1 -13.56026474537454 -0.48388512531253 -1.69914544204420
 1 -13.12266861946195 -1.56917160336034 -3.64298418291829
 1 -11.75666923112311 -0.17822235983598 -3.78949244494449
 1 -11.37867414671467 -2.04548941604160 -3.17843646364636
 1 -9.25479508250825 -4.58314905780578 -1.68292155625563
 1 -7.92925229002900 -5.68411841604160 -0.92351196419642
 1 -9.47145703060306 -5.06652167346735  0.07976615401540
 1 -3.52909360526053 -3.72448569926993 -0.24293956545655
 1 -1.56253441994199 -4.19540598029803  3.48365128042804
 1 -2.97902751135113 -5.13767538513851  3.93786662556256
 1 -1.77191530303030 -6.04319359255926  2.74106805970597
 1  2.80948025212521 -1.60103193909391 -1.57207117211721
 1  2.55103258085809 -0.07909362976298 -2.07720087228723
 1  4.20053095869587 -1.08782099729973  0.36481969796980
 1  4.02530149364936  1.15566427682768 -2.56977534723472
 1  5.27201261296130  2.25783604250425 -1.89179564776478
 1  5.61999930753075  0.73466457395740 -2.88474720572057
 1  6.67806986988699  1.40988498849885  0.16717936073607
 1  6.38228234763476 -0.12972100950095  0.90497021372137
 1  7.36887427212721 -1.30603983918392 -0.90125144874488
 1  7.51940437633763  0.17972118021802 -1.85764868846885
 1  9.13551560316032  0.97080496549655  0.39220685288529
 1  8.86458494719472 -0.63622912911291  0.96917478117812
 1  10.05052260366037  0.14893743144314 -1.85471036053605
 1  9.26885187068707 -2.29303728022802 -1.81897782258226
 1  11.15706826252625 -2.35764254815481 -1.75965020892089
 1  10.02650553655366 -2.64602654465447 -0.27138657835784
 1  11.38122580348035  0.77242947314732  0.42213370087009
 1  11.31247430083008 -0.86064202550255  0.59650027162716
 1  12.99706302520252 -1.39465762696270 -1.08077574517452
 1  12.93013676617662  0.23458414941494 -1.47177053835384
 1  13.83047448414841  0.78035059105911  0.81133847684768
 1  13.90931368446845 -0.91297090179018  1.13900041654165
 1  15.09449273777378  0.39325881088109 -1.27972233023302
 1  15.94478192109211 -2.27775806790679 -0.21682313621362
 1  14.98580163086309 -1.80808318391839 -1.80703811891189
 1  16.67626725612561 -1.53414893979398 -1.52914438393839
 1  16.07508270897090  1.47799563326333  0.78847539183918
 1  16.63851829902990 -0.05431460656066  1.40514327552755
 1  18.23297423612361 -0.41612816021602 -0.64434777517752
 1  17.81172823732373  1.26929424832483 -1.06314989078908
 1  18.53185397799780  2.24935909360936  1.09992799809981
 1  19.14467162746275  0.75653983498350  1.57386738703870
 1  20.72195710841084  0.26178232643264 -0.01853478947895
 1  20.16684079067907  3.08317187908791 -1.07697129052905
 1  21.56659091119112  2.14583123592359 -1.45467683098310
 1  19.99842374677468  1.41280309110911 -2.05504247324733
 1  21.25641161636164  1.48859696879688  2.24122373957396
 1  22.34718642494249  2.06169739943994  0.90984595089509
 1  21.05115484538454  2.88414849814981  1.30527096759676

