%nproc=4
%Mem=2GB
# td=(NStates=1) CAM-B3LYP/6-31G(d,p) 

TD

0 1
12 -7.15095566856686  0.57214596269627  0.13236092349235
 6 -4.83691830983098 -1.92563374177418  0.48072460516052
 6 -4.84641457035704  2.90727917521752  1.15574193909391
 6 -9.40827556305631  3.09939543504350 -0.46687954765477
 6 -9.47093740744075 -1.74425993699370 -0.82154858395840
 7 -5.13261668626863  0.51041085918592  0.69833025132513
 6 -4.31116082218222 -0.66686650865087  0.85623364656466
 6 -2.93156216161616 -0.26807623332333  1.30474082828283
 6 -3.01075451385138  1.11826449474947  1.72977370807081
 6 -4.35587258215822  1.54741549034903  1.12349937983798
 6 -3.07160224232423  1.26690897899790  3.18062947184719
 6 -1.87044050505051 -0.61726698809881  0.12030598889889
 6 -0.36331375397540 -0.48597294449445  0.50314444374437
 6  0.55046618381838 -0.76860037293729 -0.58241362186219
 8  0.23268450855086 -1.27338274587459 -1.68732506420642
 8  1.83591540204020 -0.47820521692169 -0.20924771367137
 7 -7.14123457135714  2.66012160196020  0.39910860636064
 6 -6.01602088108811  3.44480545634563  0.75883941754175
 6 -6.39777703080308  4.75251954135414  0.81872255945595
 6 -7.75789849684968  4.84138476997700  0.36266465776578
 6 -8.11758603020302  3.50005920122012 -0.02202965666567
 6 -5.53706166286629  5.93580604650465  1.11984674517452
 6 -8.63082087968797  6.05306634033403  0.15962294769477
 6 -8.44126801810181  7.15605172377238  0.84097034683468
 7 -9.03887616021602  0.64686754785479 -0.47663169686969
 6 -9.86766302600260  1.78500845394539 -0.65077140124012
 6 -11.08718781538154  1.41450979007901 -1.14618633813381
 6 -11.17098950285028 -0.01567620352035 -1.23229194319432
 6 -9.83379906060606 -0.43703567786779 -0.87561257735774
 6 -12.27546637033703  2.38753932493249 -1.28601537633763
 6 -12.27918246454646 -0.75491290139014 -1.74363517201720
 6 -12.26785427382738 -1.05889830103010 -3.18173329192919
 7 -7.11483095139514 -1.33742335593559 -0.25510018701870
 6 -8.22531277107711 -2.12489766186619 -0.59575453065307
 6 -7.73645979157916 -3.63007127462746 -0.55363264056406
 6 -6.48375225932593 -3.48995333233323 -0.16646837873787
 6 -6.11002359875988 -2.16254453575358 -0.01440863666367
 6 -8.51311877927793 -4.89203204560456 -0.86210468886889
 6 -5.22088655895590 -4.30081396489649  0.17029990259026
 8 -5.07704654255426 -5.56086056945695  0.23926095679568
 6 -4.07710128952895 -3.29525531533153  0.55149501480148
 6 -3.53673430433043 -3.63266848814881  1.88090846374637
 8 -3.65115671627163 -2.94675141134113  2.87561024212421
 8 -2.73738493219322 -4.74801952435244  1.87748632953295
 6 -2.36054664256426 -5.29542377147715  3.14251918741874
 6  2.77134964666467 -0.80658845344534 -1.28541974237424
 6  4.14497658665867 -0.60132830913091 -0.70351050005001
 6  5.16390987538754  0.36056232163216 -1.10965073777378
 6  5.03612203520352  1.26276892619262 -2.25288945424542
 6  6.31697603040304  0.36623847404740 -0.26201268646865
 6  7.67285482338234 -0.11979232613261 -1.02457940844084
 6  8.90791266386639 -0.11491662206221 -0.18949076187619
 6  10.09445006950695 -0.50101717341734 -0.92169313981398
 6  10.01507820802080 -1.87622855895590 -1.48111157615762
 6  11.30129300620062 -0.24893867466747 -0.04103323472347
 6  12.67265217291729 -0.43350740184018 -0.63899392229223
 6  13.89222869126913 -0.22001320412041  0.27318438593859
 6  15.25036116101610 -0.34250797989799 -0.40921916171617
 6  15.58226989588959 -1.66994462826283 -0.77168678637864
 6  16.35798990489049  0.45687004700470  0.45144965216522
 6  17.72347693709371  0.67420881928193 -0.16147196179618
 6  18.71630199969997  1.30854907190719  0.67011744474447
 6  20.23189185838584  1.26018635213521  0.19094385758576
 6  20.33177453125312  2.10133843104310 -1.05459645234523
 6  21.14119505030503  1.90930386668667  1.37009237263726
 1 -4.23168465296530  3.66884240564056  1.66119070597060
 1 -10.02048244094409  3.84401523652365 -0.58192358385839
 1 -10.23670696009601 -2.54718405920592 -1.27365401760176
 1 -2.57362381928193 -0.80570888478848  2.06333702490249
 1 -2.32868647384739  1.73525710831083  1.21551220162016
 1 -1.98485294279428  1.14501495439544  3.59955366886689
 1 -3.44332939293929  2.33055711321132  3.55804797019702
 1 -3.80330377307731  0.56500118411841  3.56906931973197
 1 -1.89549203410341 -1.69977993839384 -0.23812772197220
 1 -2.07343901640164 -0.01785453505351 -0.85673571317132
 1 -0.11428494589459  0.37531214511451  0.97786818591859
 1 -0.19978778077808 -1.10817533273327  1.36767072227223
 1 -5.97972674807481  6.97533617771777  0.86790249944995
 1 -5.75399238863886  6.11368473157316  2.29320561766177
 1 -4.35546950295030  5.85174634103410  1.11004418001800
 1 -9.17094914741474  6.02050819891989 -0.71619184738474
 1 -8.97756897279728  8.04390512941294  0.61689131093109
 1 -7.90522998879888  7.46594299379938  1.75664404990499
 1 -12.06524062916292  2.89761008700870 -2.15219822452245
 1 -13.16444611381138  1.72263615481548 -1.55926711821182
 1 -12.48450018111811  2.99842849754976 -0.39623086708671
 1 -12.20967574597460 -1.83613305840584 -1.29597455235524
 1 -13.14640335923592 -0.20844758155816 -1.38493402090209
 1 -13.28114446704670 -1.84674936113611 -3.38097798229823
 1 -12.53718728292829 -0.07352188978898 -3.55793928962896
 1 -11.29921620092009 -1.54775964306431 -3.48191681168117
 1 -8.89902950595060 -5.02647339023902 -1.93154641874187
 1 -7.79000836563656 -5.68823882808281 -0.92739235223522
 1 -9.26910679557956 -5.12944796609661 -0.19246106870687
 1 -3.42037273317332 -3.43233648434843 -0.30617588908891
 1 -2.01600976747675 -4.63112955265527  3.77978089338934
 1 -3.34465407400740 -5.62285390299030  3.53995683458346
 1 -1.67492560406041 -5.95011428462846  2.85984993789379
 1  2.68759806390639 -1.74492632853285 -1.53639760476048
 1  2.71280875847585  0.01801608120812 -1.96541969416942
 1  4.59133003860386 -1.06920913611361  0.21462467846785
 1  4.00994995849585  1.39448815921592 -2.86353472317232
 1  5.25729114081408  2.33758401730173 -1.95137160536054
 1  5.74925223282328  0.93503461096110 -3.09603833483348
 1  6.65088715161516  1.51741574157416  0.05586822962296
 1  6.14679879927993 -0.29877791519152  0.64663438013801
 1  7.28284566926693 -1.06316555175518 -1.32219354295430
 1  7.46395883178318  0.44017722582258 -1.92432535613561
 1  9.09860191179118  0.74807269226923  0.36646427862786
 1  8.83750223892389 -1.06807231343134  0.64210207390739
 1  10.22732028342834  0.18210074777478 -1.88024291379138
 1  9.21939692519252 -2.13641161766177 -2.14774069886989
 1  10.93166572227223 -2.38125490939094 -1.87988223212321
 1  9.88526141214122 -2.70478242024202 -0.72493193289329
 1  11.48254593549355  0.90301253145315  0.29513100060006
 1  11.37710076347635 -0.77062302360236  0.83037365896590
 1  12.67600091899190 -1.46253441464146 -1.06587425502550
 1  12.71913566606661 -0.05489479847985 -1.62308566986699
 1  13.72866430313031  0.82013456945695  0.69353669666967
 1  13.85787854095410 -0.84264386908691  1.05329184568457
 1  15.17898118661866  0.14009349434944 -1.46305066306631
 1  15.59661710461046 -2.64448474057406  0.05615416151615
 1  15.03837688838884 -1.92176455205521 -1.49292670777078
 1  16.61040066946695 -1.70080560546054 -1.08834030353035
 1  16.10129533023302  1.53087092079208  0.53866041034103
 1  16.39008345554555  0.03118394329433  1.63479624082408
 1  18.18883982268227 -0.19074562196220 -0.56230957135714
 1  17.52210927542754  1.39551687058706 -1.05556913271327
 1  18.49904069666967  2.32168632633263  1.00139814511451
 1  18.76788394869487  0.76901108210821  1.65200520082008
 1  20.40650556325633  0.23088923712371 -0.03365630163016
 1  19.97226133273327  3.03646720862086 -0.92978657205721
 1  21.50682493459346  1.76639329212921 -1.42747411071107
 1  19.64986889128913  1.91035284608461 -1.80607757675768
 1  20.88651462666267  1.43702181128113  2.37079669686969
 1  22.27468917521752  1.83836506620662  1.15141010731073
 1  20.58997872777278  2.92636271957196  1.58601904240424

