%nproc=4
%Mem=3GB
# td=(NStates=1) iop(3/107=0140000000,3/108=0140000000) CAM-B3LYP/6-31G(d,p) 

TD

0 1
12 -7.06211090279028  0.58836722022202  0.05646201620162
 6 -4.85852466896690 -2.02775000560056  0.55334073647365
 6 -4.82866889748975  2.80696941484148  1.31914201940194
 6 -9.29348611311131  3.17871542454245 -0.51381385668567
 6 -9.48796489448945 -1.57536930263026 -0.97390419531953
 7 -5.06380341154115  0.40178626922692  0.76349417341734
 6 -4.26861910921092 -0.71150229342934  0.92413030773077
 6 -2.92791901250125 -0.43996239423942  1.32526819591959
 6 -2.99212243914391  1.14527322892289  1.79627590689069
 6 -4.36088632333233  1.53429808090809  1.13292768666867
 6 -2.87926410721072  1.17150997029703  3.31805712031203
 6 -1.91760749044904 -0.65679166836684  0.14658846914691
 6 -0.45244095329533 -0.64182743074307  0.61308469076908
 6  0.55078700190019 -0.88746536843684 -0.54565435553555
 8  0.23906412321232 -1.20498427612761 -1.71590898399840
 8  1.75565416381638 -0.58734867326733 -0.11573696129613
 7 -7.02999064246425  2.61730494039404  0.38524944904490
 6 -6.06318646244624  3.36581034843484  0.89714559065907
 6 -6.27548245664566  4.78459532313231  0.86921518021802
 6 -7.57068185348535  4.78836064126413  0.26024215061506
 6 -8.03119264676468  3.52513945274527 -0.01093309470947
 6 -5.32072410631063  5.86495596929693  1.36052620782078
 6 -8.39741974997500  6.01615188478848  0.16024663716372
 6 -8.22734114411441  7.27251640134013  0.67025108440844
 7 -9.06068510961096  0.76311330573057 -0.62227880178018
 6 -9.72518000430043  1.85879920422042 -0.67817063056306
 6 -11.05629958265827  1.60438988348835 -1.30391525122512
 6 -11.16222570977098  0.22046959275928 -1.33767379567957
 6 -9.84073167676768 -0.28274846824682 -0.95902810411041
 6 -12.16845778347835  2.77245248664866 -1.53090254295430
 6 -12.28799259215922 -0.64567069086909 -1.86149548014801
 6 -12.09271118001800 -0.99382957525753 -3.32836348754876
 7 -7.24630759315932 -1.35991082678268 -0.21854452955296
 6 -8.25481980828083 -2.18794734023402 -0.54678625852585
 6 -7.81654369416942 -3.57746829822982 -0.47062736253625
 6 -6.56031382188219 -3.50000298239824 -0.08853093479348
 6 -6.17962169386939 -2.18266622242224  0.08816065146515
 6 -8.59307164666467 -4.83201930033003 -0.85297868096810
 6 -5.46794225712571 -4.30932449584959  0.28683365746575
 8 -5.29032002430243 -5.56742359935994  0.24037998659866
 6 -4.25872037463746 -3.39168661606161  0.64790311191119
 6 -3.64133831063106 -3.76781472417242  1.97019298779878
 8 -3.93899668306831 -3.25636299419942  2.98253161136114
 8 -2.82857821062106 -4.85575419391939  1.74084312181218
 6 -2.37087604460446 -5.30296550245024  3.03098049844984
 6  2.75450177057706 -0.76565485438544 -1.15406892409241
 6  4.17173805900590 -0.53543881178118 -0.46541910471047
 6  5.12445793709371  0.23051957995800 -0.92290516751675
 6  4.86239996559656  0.94759243454345 -2.23590772577258
 6  6.40033631233123  0.34889550555056 -0.25376590099010
 6  7.58092954555456 -0.29184773277328 -1.06923725242524
 6  8.94695240684068 -0.20687250335034 -0.20458656105611
 6  10.13874933553355 -0.70664232743274 -0.90842656265627
 6  10.06270954755476 -2.24170205010501 -1.25147211321132
 6  11.47204186798680 -0.39980487158716 -0.11995995849585
 6  12.76561429692969 -0.53602363586359 -0.84970247534753
 6  13.87314858665867 -0.15124083838384  0.12117852945295
 6  15.22487847884788 -0.10470955455546 -0.56758241074107
 6  15.67657392839284 -1.43590197849785 -1.06455828212821
 6  16.35530252295230  0.55703222052205  0.37744247894789
 6  17.69905749344935  0.64772850245024 -0.20704723172317
 6  18.70656107470747  1.42148022652265  0.76043930063006
 6  20.11529433383338  1.55375480798080  0.24719142514251
 6  20.13649649544955  2.43138044314431 -1.01622631853185
 6  20.99102416941694  2.17631933183318  1.39483342334233
 1 -4.26103646714671  3.58659191059106  2.00556665246525
 1 -9.93194531783178  4.10857313181318 -0.62333685988599
 1 -10.57233165726573 -2.06542207730773 -1.18912673207321
 1 -2.78371565876588 -1.11107130983098  2.26343283398340
 1 -2.34081754805481  1.88240030113011  1.43387703670367
 1 -1.81659474587459  0.70027913431343  3.63290362776278
 1 -2.77988509760976  2.01874109690969  3.51888991119112
 1 -3.63658645914591  0.81264641894189  4.03835552075208
 1 -2.16051117011701 -1.69680035083508 -0.30457846494649
 1 -2.08916528552855  0.26913453325333 -0.65253198779878
 1  0.00625519681968  0.03739332663266  1.33742760576058
 1 -0.24764318461846 -1.41882264886489  1.25934939323932
 1 -5.38576275397540  6.63877138913891  0.59964979627963
 1 -5.23162463376338  6.12017489888989  2.39321133363336
 1 -4.34134897949795  5.64112838083808  1.04745547814782
 1 -9.39181944174417  5.97039042104210 -0.60349170187019
 1 -8.91477054075408  8.06481620262026  0.47252702840284
 1 -7.54160209230923  7.55048188458846  1.41246020632063
 1 -11.87939841284128  3.41028017511751 -2.26477230873087
 1 -13.15492278997900  2.35279402180218 -1.78705443364336
 1 -12.62160319301930  3.22754008810881 -0.46828726822682
 1 -12.39800176507651 -1.52643356615662 -1.33985748664867
 1 -13.24926722582258 -0.16562927342734 -1.59198495289529
 1 -12.82036723592359 -1.59607326942694 -3.84817577567757
 1 -12.01755216091609 -0.11151962326233 -3.90505948434843
 1 -11.16809164856486 -1.50971199839984 -3.45510378857886
 1 -8.94038865746575 -4.73688018881888 -1.98371443444344
 1 -7.84562894809481 -5.52780873417342 -0.68317827292729
 1 -9.54259843884389 -4.99418786718672 -0.31110337903790
 1 -3.53759127762776 -3.41075768136814 -0.03188092619262
 1 -1.62725611321132 -4.72044425782578  3.47863958155816
 1 -3.32035847314731 -5.46486601150115  3.71326236393639
 1 -1.77682820332033 -6.19578036283628  2.78115147624763
 1  2.83224127892789 -1.87219384218422 -1.29508095679568
 1  2.66011245254525 -0.26431834703470 -2.09957101460146
 1  4.21478196489649 -1.00381879567957  0.46649805000500
 1  3.82399771127113  1.03001854455446 -2.43952443814381
 1  5.02453938613861  2.05093551745174 -2.16714415281528
 1  5.40866043454345  0.37394858575858 -2.98452470937094
 1  6.78808699259926  1.45067504810481 -0.18604899099910
 1  6.46744461656166 -0.07046438313831  0.77100329582958
 1  7.37039916271627 -1.37111778477848 -1.35972072927293
 1  7.58349090759076  0.21894099709971 -2.22834365726573
 1  9.10852689698970  0.88075757325733 -0.04984255615562
 1  8.86356947774778 -0.87344569726973  0.53278940234023
 1  10.09099373117312 -0.14869872207221 -1.79783494149415
 1  9.41312092119212 -2.73040132363236 -2.18229661156116
 1  10.94652379297930 -2.65519891919192 -1.55036039413941
 1  9.90355255235523 -2.70386450115012 -0.21953934763476
 1  11.33048469006901  0.56322275567557  0.20484825562556
 1  11.41354895039504 -1.01396269386939  0.72619893999400
 1  12.76186413891389 -1.51244866416642 -1.16319859135914
 1  12.70541637153715 -0.01230629462946 -1.70676501020102
 1  13.67753917421742  1.04019938323832  0.42423725242524
 1  13.87461577217722 -0.91122750165016  1.08399077307731
 1  15.28445884728473  0.70866426342634 -1.44448571737174
 1  15.85904970177018 -2.24536387758776 -0.44193232873287
 1  14.65754739913991 -1.95947046704671 -1.55188656215622
 1  16.45179345894589 -1.45320621762176 -1.81983849714972
 1  15.77220049354935  1.54898323202320  0.70226614291429
 1  16.51617569536954 -0.31087737253725  1.21710020472047
 1  18.13216995469547 -0.27677419141914 -0.43021321692169
 1  17.88802611221122  1.48486738083808 -1.15318106170617
 1  18.17727678457846  2.52921418941894  0.92230417721772
 1  18.69110507300730  0.94048888838884  1.67677092259226
 1  20.53066289858986  0.53124412201220 -0.16222032983298
 1  19.73998081658166  3.35620639713971 -0.75821800650065
 1  21.20443424422442  2.37869901200120 -1.37103508470847
 1  19.56784518211821  2.04096438663866 -1.65433381778178
 1  20.99996384988499  1.45677131803180  2.13331700050005
 1  22.00666855965596  2.25210568126813  1.11193784738474
 1  20.47184726322632  3.11273739093909  1.72399953665367

