%nproc=4
%Mem=2GB
# td=(NStates=1) CAM-B3LYP/6-31G(d,p) 

TD

0 1
12 -7.14618519151915  0.55767451555156  0.04804249164916
 6 -4.87677229522952 -1.93424460286029  0.50443697639764
 6 -4.86258618751875  2.81064951225123  1.08094445934593
 6 -9.47454218971897  3.21689718521852 -0.35591845154515
 6 -9.62599291299130 -1.74979049004900 -0.81270769986999
 7 -5.21594501910191  0.40580039813981  0.66214663296330
 6 -4.39679938603860 -0.69398922092209  0.78042606580658
 6 -2.88257726312631 -0.44642406810681  1.26638699289929
 6 -3.14741818021802  1.00683335163516  1.64879561026103
 6 -4.49914690959096  1.46892764156416  1.08482551245125
 6 -3.02451753385339  1.26936922502250  3.13573498239824
 6 -1.91172463346335 -0.61623688508851  0.14695865416542
 6 -0.48997642024202 -0.39275362256226  0.65361949124912
 6  0.58691982918292 -0.53142665556556 -0.55704108460846
 8  0.24773601370137 -1.04329973757376 -1.61116744844484
 8  1.82655446594659 -0.44224162056206 -0.19179596849685
 7 -7.08709915781578  2.56442203200320  0.28306700220022
 6 -6.04063334233423  3.34804578037804  0.73924745834583
 6 -6.41047830093009  4.79667395679568  0.73463415061506
 6 -7.67609031603160  4.88170880238024  0.28285667696770
 6 -8.11342561416142  3.50116931223122 -0.07777523122312
 6 -5.41362931963196  5.80831329722972  1.19642440294029
 6 -8.53705150275028  6.06853788748875  0.15476246164616
 6 -8.41271516281628  7.22918903750375  0.82001825162516
 7 -9.17002927552755  0.67519038013801 -0.52955698939894
 6 -9.92475873557356  1.85021497459746 -0.69448577267727
 6 -11.21627072367237  1.48675701480148 -1.09224094359436
 6 -11.28715111901190  0.02152751685169 -1.18007672167217
 6 -9.93749943064306 -0.36550852515252 -0.79755477157716
 6 -12.27093591729173  2.47662823382338 -1.45077185198520
 6 -12.31570611691169 -0.80520793089309 -1.58281909040904
 6 -12.28198568696870 -1.12029444064406 -3.11434655325533
 7 -7.26436590489049 -1.34863447704771 -0.24007868486849
 6 -8.31603184298430 -2.24401957405741 -0.51058601380138
 6 -7.86123226882688 -3.61960022752275 -0.48060533783378
 6 -6.52977686178618 -3.55533987098710 -0.07114884678468
 6 -6.18580117651765 -2.18473675497550  0.07093989818982
 6 -8.69925739313931 -4.86765960836084 -0.76124460286029
 6 -5.34999947024702 -4.29150303380338  0.25202807540754
 8 -5.19772861076108 -5.55108959235923  0.13427045774577
 6 -4.09489306870687 -3.30955674547455  0.60282014731473
 6 -3.55457608850885 -3.64981020232023  1.90500087298730
 8 -3.84780638123812 -3.13928066426643  2.96085876697670
 8 -2.72579377307731 -4.66262098449845  1.79321790269027
 6 -2.16384697259726 -5.12756698579858  3.05683061856186
 6  2.74760727242724 -0.77838563316332 -1.20141134153415
 6  4.15531762076208 -0.56026420272027 -0.62089223822382
 6  5.08606209060906  0.19869613501350 -1.01746151885189
 6  5.12278070107011  1.21400404970497 -2.19382354765477
 6  6.43635796859686  0.20551240144014 -0.17694417961796
 6  7.69139667756776 -0.26292663956396 -1.05415236573657
 6  8.98023989658966 -0.16878200860086 -0.24178599139914
 6  10.27326795129513 -0.53997106880688 -1.03689465996600
 6  10.22376907710771 -1.90441137723772 -1.57636110111011
 6  11.53549642654266 -0.41834561536154 -0.14956408780878
 6  12.79653456115611 -0.53764781588159 -0.87132715561556
 6  13.94900436883688 -0.06270747354735  0.12536960446045
 6  15.32621874677468 -0.14369809890989 -0.44214245404540
 6  15.82669433833383 -1.48852648644864 -0.90684030173017
 6  16.40328443434343  0.50888524852485  0.58495300250025
 6  17.81640623002300  0.69204060246025 -0.14226004060406
 6  18.80377074657466  1.32051026802680  0.80614104710471
 6  20.14938360756075  1.26159649314931  0.37215197839784
 6  20.44837619141914  2.18457675487549 -0.95008600130013
 6  21.22357328812882  1.92322525882588  1.42961832523252
 1 -4.01369285378538  3.33942946434644  1.41089567646765
 1 -10.09452984568457  3.90050088508851 -0.58146353785379
 1 -10.42707599699970 -2.51205054585458 -1.17266391859186
 1 -2.80840729762976 -0.99660797469747  1.95044573577358
 1 -2.41740534573457  1.78288187078708  1.13492414281428
 1 -2.10332478997900  0.89332978587859  3.38384209770977
 1 -2.98529358935894  2.25314937243724  3.37442960836084
 1 -3.94315775847585  0.68786347034703  3.64162657545755
 1 -1.83933641854185 -1.60845080548055 -0.08447235643564
 1 -2.08863053555355  0.04951220162016 -0.94129416901690
 1 -0.46316983438344  0.74774938883888  1.17040743984398
 1 -0.28971677367737 -1.04773928912891  1.50928488368837
 1 -5.80277905330533  6.75753439753975  0.68039374857486
 1 -5.52585957535754  5.90045340844084  2.34764106120612
 1 -4.44615857185719  5.53597476387639  0.72308548414842
 1 -9.33198525102510  5.98298444654465 -0.73209343754375
 1 -8.87984920082008  8.26401714061406  0.48752837463746
 1 -7.56490595639564  7.01152755225523  1.63541192669267
 1 -11.96954105920592  3.33544387038704 -2.03229623432343
 1 -13.12381205040504  2.04087797899790 -2.07118831033103
 1 -12.63267499859986  2.91197985268527 -0.23660490449045
 1 -12.34524930333033 -1.75022446754675 -0.91982693759376
 1 -13.20993971287129 -0.31967870467047 -1.31567709520952
 1 -13.22832918551855 -1.71991667786779 -3.49609949444944
 1 -12.36990055425543 -0.10644518211821 -3.75094859055906
 1 -11.39313559285929 -1.74012887998800 -3.55990461046105
 1 -9.16757636063606 -4.84936567946795 -1.76228949304930
 1 -8.14284364916492 -5.78470847504750 -0.80534014701470
 1 -9.37439732463246 -5.00846586788679  0.16869504690469
 1 -3.33179387528753 -3.28215146584658 -0.23570884238424
 1 -1.56229439593959 -4.30667710741074  3.75662857815782
 1 -2.91635124372437 -5.45646726432643  3.64717755665567
 1 -1.44666277777778 -5.90676995019502  2.78908286118612
 1  2.53017232133213 -1.84953678957896 -1.55806977197720
 1  2.75468294589459  0.00233451305130 -2.08209136133613
 1  4.44163506910691 -1.29797201240124  0.20795401140114
 1  4.14874383788379  1.07990670107011 -2.64707307700770
 1  5.32858827052705  2.18740899979998 -1.98707517571757
 1  5.92708001560156  0.83690479797980 -2.87386611761176
 1  6.49627169006901  1.28666266626663  0.11253389618962
 1  6.24702882228223 -0.40657869526953  0.80263998069807
 1  7.49678706340634 -1.14122335753575 -1.39420074367437
 1  7.65806824272427  0.55309851795180 -1.87746066966697
 1  9.22745479707971  0.85835372037204  0.09361699389939
 1  9.03150163886389 -0.98951445764576  0.62302016571657
 1  10.28619617101710  0.10780331803180 -1.87816270577058
 1  9.32615760126013 -2.02027000350035 -2.04026995179518
 1  11.01200375607561 -1.94751153505351 -2.32440668456846
 1  10.11977486348635 -2.81781372337234 -0.74275371507151
 1  11.52111979287929  0.72487471767177  0.10931241874187
 1  11.48162121552155 -1.12960892219222  0.79617023862386
 1  12.84371769066907 -1.49619778097810 -1.30306797439744
 1  12.93475722822282  0.10018070907091 -1.82233559485949
 1  13.91167260396040  0.93014557055706  0.49497684068407
 1  13.86686944004400 -0.88661826652665  0.79899641614161
 1  15.35532882138214  0.48938842384238 -1.49944430243024
 1  15.52532997589759 -2.30355064716472  0.18808735483548
 1  15.11856490719072 -1.84265664126413 -1.66160357545755
 1  16.97323695309531 -1.59585511041104 -1.12948441794179
 1  16.11308650935094  1.40740857455746  1.10817736203620
 1  16.42810725792579 -0.40280945604560  1.23874663586359
 1  18.22008294699470 -0.12628917631763 -0.51019435983598
 1  17.92263932843284  1.25833315221522 -1.02553612941294
 1  18.38903969656966  2.29196335403540  0.86766477177718
 1  18.71555871617162  0.85621980298030  1.89695969626963
 1  20.56038095079508  0.18566471467147 -0.04635757175718
 1  19.95461956855685  3.15009857175718 -0.63982757615762
 1  21.44253850595059  2.14319097189719 -1.47375873917392
 1  19.87492139653965  1.86331814261426 -1.75455242424242
 1  21.26653262846285  1.34314242334233  2.31000061726173
 1  22.26018772507251  1.96200743044304  1.16362132843284
 1  20.66111584148415  2.94647473077308  1.55130557105711

