%nproc=4
%Mem=3GB
# td=(NStates=1) iop(3/107=0140000000,3/108=0140000000) CAM-B3LYP/6-31G(d,p) 

TD

0 1
12 -7.19057374907491  0.54354273777378  0.23208957895790
 6 -4.87575639213921 -2.04805203580358  0.58292369476948
 6 -4.71627765836584  2.72856157405741  1.27337744294429
 6 -9.32983974847485  3.14766231923192 -0.31449392469247
 6 -9.57443354135414 -1.65265703140314 -0.94430123502350
 7 -5.16356338753875  0.37001309190919  0.85651347534753
 6 -4.43280552785279 -0.75500664386439  0.88369626432643
 6 -2.90369659025903 -0.45906430443044  1.22302797189719
 6 -3.06619984688469  0.98782748434843  1.82673895319532
 6 -4.43220345504550  1.45742039313931  1.26061045494549
 6 -3.04176035683568  1.14919773907391  3.35791110571057
 6 -1.87692342204220 -0.54381037023702  0.11997580788079
 6 -0.45585129432943 -0.58889213721372  0.67848123042304
 6  0.60141206440644 -0.61751837373737 -0.53693348344835
 8  0.24504472127213 -0.93422720042004 -1.67654504760476
 8  1.83203180158016 -0.47953789218922 -0.05659104670467
 7 -7.03545118851885  2.56103931383138  0.35805672977298
 6 -5.97591773557356  3.34802857025703  0.80311618771877
 6 -6.28810371877188  4.68479534313431  0.73736199489949
 6 -7.55872065736574  4.86305811101110  0.28650477687769
 6 -7.99574910241024  3.48666560536054  0.14404240284028
 6 -5.23878591249125  5.85851532523252  1.06386654185419
 6 -8.34098410641064  6.07386765636564  0.07327794029403
 6 -8.15992440244024  7.27693684338434  0.61149520882088
 7 -9.08498753985399  0.74526152055206 -0.48931550545055
 6 -9.84716220252025  1.87369069336934 -0.56012882638264
 6 -11.14759871257126  1.61652109660966 -1.17174203390339
 6 -11.22724221142114  0.24764231003100 -1.38045807410741
 6 -9.93279088268827 -0.27880807420742 -0.90075227652765
 6 -12.14994593229323  2.60285552695270 -1.56987644034403
 6 -12.38831262416242 -0.57656378017802 -1.90696002660266
 6 -12.15892780168017 -0.94057424972497 -3.39137978917892
 7 -7.26539950235023 -1.39318415411541 -0.07314999009901
 6 -8.34887921422142 -2.22599114461446 -0.57891947184718
 6 -7.90549258905891 -3.62600315171517 -0.53904420422042
 6 -6.57377516801680 -3.55774875697570 -0.15566764846485
 6 -6.28250198189819 -2.27329528532853  0.24139597499750
 6 -8.70972331183118 -4.80801690009001 -1.00625400850085
 6 -5.35757122002200 -4.34266783018302  0.28524349844984
 8 -5.33127411971197 -5.57920477747775  0.25925187378738
 6 -4.26711121372137 -3.36420386778678  0.48291661326133
 6 -3.70381455825583 -3.81007895059506  1.87020298879888
 8 -4.03303608700870 -3.26928428632863  2.91098445664566
 8 -2.93095844864486 -4.86419503800380  1.71184022152215
 6 -2.39278823582358 -5.40070527642764  3.04329172957296
 6  2.78338465886589 -0.76898518741874 -1.17006052325233
 6  4.22679356455646 -0.63313858175818 -0.54610717351735
 6  5.12434792609261  0.17206373437344 -0.98507138413841
 6  4.95636936253625  1.09718739403940 -2.21854598959896
 6  6.47241352005201  0.33177379337934 -0.32438296269627
 6  7.59048050065006 -0.30881942994299 -1.03095342404240
 6  8.88945665726573 -0.04056587268727 -0.27745384778478
 6  10.22041750235024 -0.69572123532353 -0.85733145314531
 6  10.08666194279428 -2.11389926982698 -1.48064503050305
 6  11.34112877667767 -0.40357524862486  0.09807184468447
 6  12.77045478097810 -0.50027006050605 -0.58560606570657
 6  13.90601187298730 -0.14803051735174  0.31164757635764
 6  15.33440943194319 -0.11973105670567 -0.45518117061706
 6  15.73774004500450 -1.56775516381638 -0.85207703400340
 6  16.44375136783679  0.62013853115312  0.39865460016002
 6  17.84852243994400  0.71768549814981 -0.22700922792279
 6  18.84285470407040  1.50823890239024  0.58692194889489
 6  20.29684248864887  1.46509594209421  0.28558526452645
 6  20.40782362816282  2.16701400650065 -1.16224091999200
 6  21.11888695569557  2.25451715161516  1.19020296029603
 1 -3.94167453095310  3.39663291469147  1.60904700050005
 1 -10.05806793009301  3.90040231473147 -0.33058758495850
 1 -10.49137356145614 -2.18070360546055 -1.26302412181218
 1 -2.59944723192319 -1.15200540324032  2.04083057375738
 1 -2.30302376867687  1.65000706180618  1.42505615461546
 1 -1.97738082448245  0.66976608300830  3.63229356675668
 1 -3.25139224832483  2.15875509830983  3.85622364456446
 1 -3.77805060556056  0.62272742704270  3.82795448064806
 1 -2.09521464046405 -1.48237890869087 -0.17041504860486
 1 -2.05904227322732  0.21820944074407 -0.52009874447445
 1 -0.07076250495050  0.29037862516252  1.21873573657366
 1 -0.51019944024402 -1.43678444504450  1.41007446574657
 1 -5.24273845154515  6.56465397739774  0.12951278257826
 1 -5.31496296759676  6.24132701410141  2.14957697019702
 1 -4.17690253485349  5.45374964296430  0.68431916451645
 1 -9.10474073387339  5.55203858585859 -0.50381173387339
 1 -8.74829389308931  8.07108682968297  0.11804157985798
 1 -7.30983891599160  7.54764160056006  1.26134509480948
 1 -11.83782425542554  3.06522566966697 -2.53249908140814
 1 -13.17918521622162  2.14926366876688 -1.59944567276728
 1 -12.20823185588559  3.77529486358636 -1.09098953845384
 1 -12.50210217511751 -1.49447036983698 -1.33030653155316
 1 -13.22927522662266  0.13262055155516 -1.80070582498250
 1 -13.05844104330433 -1.56958062016202 -3.80075103320332
 1 -12.20884128982898  0.09895142384238 -4.03002198059806
 1 -11.30706554595460 -1.55729675687569 -3.65865414361436
 1 -9.21961658025802 -4.76463296409641 -2.06458252125213
 1 -8.05077946314631 -5.65791174447445 -0.70729068416842
 1 -9.54684886388639 -5.08172662106211 -0.28317058575858
 1 -3.40381790029003 -3.38298490409041 -0.19018675677568
 1 -1.67117050465047 -4.55288750215022  3.40664238183818
 1 -3.15820225752575 -5.60492001690169  3.63481451915192
 1 -1.61192171267127 -6.10077086188619  2.54962832393239
 1  2.83890194499450 -1.75490211301130 -1.46450789948995
 1  2.55105154645465 -0.13997591279128 -2.20622167966797
 1  4.40244073077308 -1.26766518031803  0.31734313451345
 1  3.97560287178718  0.94937047974798 -2.60809129482948
 1  5.36585351755176  2.01582200610061 -2.01675911431143
 1  5.69827939643964  0.71440263116312 -3.05379163606361
 1  6.76866505040504  1.35138511911191 -0.24383476957696
 1  6.46832470457046 -0.09064640134013  0.70191638713871
 1  7.52044416721672 -1.30519119211921 -1.40230498769877
 1  7.56372893139314  0.08358746174617 -2.08628945184519
 1  9.14899094339434  0.98542804030403 -0.24354192609261
 1  8.61298441924193 -0.42726107880788  0.76189231263126
 1  10.69390402220222 -0.17101095329533 -1.75821097909791
 1  9.45174478357836 -2.21811009450945 -2.31688006990699
 1  11.17353649424943 -2.37203060236024 -1.73008836693669
 1  9.79687188428843 -2.83127724242424 -0.61576897059706
 1  11.40468210981098  0.65317175057506  0.41222899369937
 1  11.08729632513251 -0.92835413301330  1.02875919601960
 1  12.78535648814882 -1.42992041134113 -1.21780405190519
 1  12.60322615251525  0.28689362536254 -1.45333966766677
 1  13.75754717501750  0.89628499179918  0.67746257495750
 1  13.88673698429843 -0.64473085198520  1.18325069906991
 1  15.12334273567357  0.53812720972097 -1.30513178197820
 1  15.76501029782978 -2.47111645284529 -0.09011714721472
 1  15.26028767316732 -2.02200672067207 -1.64852622612261
 1  16.80751903150315 -1.38898979597960 -1.26612312561256
 1  16.09025229872987  1.61002933663366  0.64310022632263
 1  16.42801687948795 -0.09368565336534  1.38535703040304
 1  18.33143988168817 -0.30165667966797 -0.46311650725073
 1  17.56890420002000  1.12766166026603 -1.10647639123912
 1  18.27744680158016  2.56850811881188  0.76476842364236
 1  18.79617558005801  0.81552639213921  1.60486373187319
 1  20.62871270357036  0.40379137673767  0.11640753295330
 1  20.23818063656366  3.39596037253725 -1.23164534923492
 1  21.30494429522952  2.16827796989699 -1.46059404060406
 1  19.86737513511351  1.66110640084008 -2.04745312971297
 1  21.19806365986599  1.64381002190219  2.23062673147315
 1  22.15521341414141  2.30954142484248  0.86324297789779
 1  20.77001708020802  3.36585270247025  1.18935607230723

