%nproc=4
%Mem=3GB
# td=(NStates=1) iop(3/107=0140000000,3/108=0140000000) CAM-B3LYP/6-31G(d,p) 

TD

0 1
12 -7.17288197989799  0.72404078757876  0.06654302430243
 6 -4.87414623112311 -2.02619985058506  0.44792019441944
 6 -4.74251028162816  2.80020873877388  1.13270337553755
 6 -9.31928869336934  3.06397395039504 -0.43365584088409
 6 -9.53697979597960 -1.75071683738374 -0.80898770367037
 7 -5.06499353055306  0.36204229482948  0.72693051705171
 6 -4.37354960226023 -0.81234237743774  0.83737163186319
 6 -2.85417163776378 -0.49436783478348  1.33235890499050
 6 -2.91436466336634  0.97532623422342  1.63785006430643
 6 -4.33385362006201  1.36629128022802  1.13648804270427
 6 -2.78576475727573  1.21582440174017  3.19564487908791
 6 -1.89679540924092 -0.62898888808881  0.02670648094809
 6 -0.45849155835584 -0.48639188718872  0.44852823512351
 6  0.51929385258526 -0.62790941284128 -0.70141993209321
 8  0.25861607840784 -1.08944272197220 -1.78405579867987
 8  1.75433403180318 -0.38896883528353 -0.23173856145615
 7 -7.11130877427743  2.63850706060606  0.34185510961096
 6 -5.93288343214321  3.31595536293629  0.74184006010601
 6 -6.27303221162116  4.72699956355636  0.78319657835784
 6 -7.63537832313231  4.84743654885489  0.34774090049005
 6 -8.06064559205921  3.49007594639464  0.02282028062806
 6 -5.45094712861286  5.82447192089209  1.29074923012301
 6 -8.47402741074107  6.06209647924792  0.21907251975198
 6 -8.27311572157216  7.25643479317932  0.78388244754475
 7 -9.14189323042304  0.69175617001700 -0.49479605350535
 6 -9.89401688798880  1.82652597689769 -0.71834464796480
 6 -11.16554050675068  1.54386383088309 -1.14684954465447
 6 -11.19530901810181  0.16081362716272 -1.22923295159516
 6 -9.95238284188419 -0.29293948734873 -0.88931113241324
 6 -12.21404234193419  2.53924916631663 -1.45993544624462
 6 -12.43934772767277 -0.67303342714271 -1.68357768836884
 6 -12.34087599649965 -1.17865805810581 -3.12615326652665
 7 -7.26862982538254 -1.40513534923492 -0.05251792689269
 6 -8.26135046134613 -2.18513705920592 -0.41672325222522
 6 -7.85909794959496 -3.53439399079908 -0.42344264406441
 6 -6.53133092359236 -3.51392437453745 -0.06325840754075
 6 -6.15024875657566 -2.20101805760576  0.11150298569857
 6 -8.60101244074407 -4.75655175357536 -0.80025340844084
 6 -5.29892535543554 -4.35963952735274  0.14109908400840
 8 -5.23800479277928 -5.55164202120212  0.14344029262926
 6 -4.16911141374137 -3.35648309570957  0.57310563216322
 6 -3.50264444124412 -3.63764170687069  1.87246321482148
 8 -3.67152993639364 -3.04323168106811  2.86915027322732
 8 -2.70921627442744 -4.69268788728873  1.78793783128313
 6 -2.18761771877188 -5.22027723362336  2.92861026142614
 6  2.80921724212421 -0.74725301420142 -1.18254177137714
 6  4.12900378557856 -0.48637390529053 -0.55428799159916
 6  5.12192768406841  0.40356688468847 -1.06754963196320
 6  5.09386311191119  1.04708238353835 -2.29436357135714
 6  6.45506178487849  0.46186680268027 -0.35487601200120
 6  7.59096054865487 -0.24917346534653 -0.96412674137414
 6  8.87821553315332 -0.11092290839084 -0.16025212761276
 6  10.12104756535654 -0.51260292349235 -0.87618333833383
 6  10.10156343294329 -1.97694557445745 -1.42874984098410
 6  11.38766343014301 -0.31592648374837 -0.09042700520052
 6  12.73273100860086 -0.56231626512651 -0.75179268436844
 6  13.85949722152215 -0.03128884318432  0.18400481208121
 6  15.27244323532353 -0.30369945354535 -0.47408306080608
 6  15.64475074607461 -1.83849223752375 -0.72179400570057
 6  16.29116610931093  0.30388690599060  0.44695943064306
 6  17.70395798349835  0.50904463406341 -0.13685021202120
 6  18.67895831443144  1.14015209370937  0.76541979867987
 6  20.07849065346535  1.51128056055606  0.31309801580158
 6  20.26080892669267  2.37558486358636 -1.00025472137214
 6  21.03441850885088  2.05540724062406  1.42601654165417
 1 -3.97058742224222  3.53124637603760  1.48153424922492
 1 -9.87883000630063  3.83236551105110 -0.65214974117412
 1 -10.24717914201420 -2.58782431753175 -1.21466928632863
 1 -2.58279556675668 -1.22237243994399  2.08746523722372
 1 -2.13936740304030  1.60826288738874  1.28048169716972
 1 -1.87998108450845  1.00051915831583  3.59767010441044
 1 -2.91910902000200  2.24584380718072  3.58541656385638
 1 -3.53814661516152  0.53260841514151  3.70357204240424
 1 -1.97271239023902 -1.63710438123812 -0.50726873397340
 1 -2.16729309830983  0.14408202800280 -0.72786952155216
 1 -0.25364079277928  0.40548013531353  1.04700856385639
 1 -0.08665708600860 -1.32818358495850  1.20614407270727
 1 -5.61861603930393  6.82857036903690  0.73780361166117
 1 -5.71597306860686  5.87065994739474  2.36171818431843
 1 -4.32785763036304  5.51710597859786  1.26048678127813
 1 -9.18223848364836  5.79096247824782 -0.46617797049705
 1 -8.77440650435043  8.12484220522052  0.49547932363236
 1 -7.48447637973798  7.50503734013401  1.69546850715072
 1 -11.95910638363836  3.22581172827283 -2.43946977847785
 1 -13.26605390309031  2.05509425182518 -1.67056278447845
 1 -12.29654068676868  3.38068540264026 -0.63387382688269
 1 -12.63220518541854 -1.34309523232323 -0.96027952885289
 1 -13.40136243534353 -0.09960267076708 -1.48943469786979
 1 -13.13474867406741 -1.73851751385139 -3.35969692779278
 1 -12.21025143084308 -0.18649712101210 -3.81755073347335
 1 -11.39641448084808 -1.72157318451845 -3.28983726192619
 1 -8.83321794039404 -4.75765226602660 -1.93111917491749
 1 -8.06670105530553 -5.58401435473547 -0.58749870497050
 1 -9.80032421142114 -4.83495194359436 -0.25612788148815
 1 -3.42154967346735 -3.57895450105010 -0.33714145224522
 1 -1.35266865446545 -4.68560077347735  3.31787350495050
 1 -2.99912634993499 -5.47170669556956  3.79997103480348
 1 -1.68675919641964 -6.15332611741174  2.80531389248925
 1  2.50518857365737 -1.76641326412641 -1.54194564326433
 1  2.47257369866987 -0.15326724192419 -2.22485354285429
 1  4.50992147884789 -1.14939335313531  0.32505390559056
 1  4.23697900940094  1.13800934363436 -2.93735422112211
 1  5.32341927412741  2.06283670757076 -2.40459789818982
 1  5.83021258975898  0.67358854975498 -3.05813207010701
 1  6.74658284218422  1.58512849344935 -0.32843322942294
 1  6.17771564366437  0.26757942124212  0.86062225772577
 1  7.29212133493349 -1.31439211221122 -1.38519327652765
 1  7.89513207170717  0.15799490249025 -1.89866068896890
 1  8.84948099239924  0.97971746924692  0.10892332043204
 1  8.87828094889489 -0.51717006970697  0.91302742614261
 1  10.08416304810481  0.10198634643464 -1.70635579357936
 1  9.07445705480548 -1.75819410291029 -2.04629301120112
 1  10.92888202880288 -2.27306070537054 -2.23870922902290
 1  9.99153135023502 -2.65024913961396 -0.53983137683768
 1  11.41542318391839  0.61012744614461  0.37429520032003
 1  11.26871446694670 -0.83755505310531  0.85189150925093
 1  12.81552950545055 -1.60905832513251 -0.87761003250325
 1  12.59163499339934  0.04766970297030 -1.61440577427743
 1  13.62922434273427  0.92437780108011  0.28330315901590
 1  13.74831314191419 -0.41909828872887  1.11386376037604
 1  15.22867326872687  0.22214561156116 -1.42651392019202
 1  15.95864966176618 -2.29878922012201  0.30109197369737
 1  14.81872351675167 -2.31838635863586 -1.29855122862286
 1  16.64752303190319 -1.89938083508351 -1.12230874417442
 1  16.12727600110011  1.50810914461446  0.82206812311231
 1  16.32838691649165 -0.26130241504150  1.39585808050805
 1  18.02895963366337 -0.54660117411741 -0.36762695829583
 1  17.68817612721272  0.99263815791579 -0.98737448104810
 1  18.21316037293729  2.01508277627763  0.85909785658566
 1  18.83354931743174  0.81409624912491  1.54850809630963
 1  20.40749058135814  0.45178617621762 -0.03423753155316
 1  19.86143296179618  3.57533831033103 -0.76214839953995
 1  21.29831363216322  2.55071621372137 -1.10153813501350
 1  19.85512390999100  1.86374666486649 -1.89180756515652
 1  20.80617447094710  1.44669030993099  2.21516518531853
 1  21.99568746154615  2.11202167286729  1.13648030163016
 1  20.64065414391439  2.97534365156516  1.66113325002500

