%nproc=4
%Mem=2GB
# td=(NStates=1) CAM-B3LYP/6-31G(d,p) 

TD

0 1
<<<<<<< HEAD
12 -7.08913948694870  0.60277902600260  0.17001468886889
 6 -4.83283790179018 -1.96247742614261  0.48519505220522
 6 -4.81157108600860  2.88189663696370  1.10966733163316
 6 -9.49750448594859  3.04356985248525 -0.45811867156716
 6 -9.54429474317432 -1.71508701970197 -0.92961939103910
 7 -5.11420484508451  0.41617143524352  0.71443186148615
 6 -4.30469017511751 -0.72926274827483  0.91935995919592
 6 -2.90617962336234 -0.33058248394839  1.38693904810481
 6 -3.02795623402340  1.14256692499250  1.72760349104910
 6 -4.36202319721972  1.54074482328233  1.10479750965097
 6 -2.93407848994900  1.29375166326633  3.18741014991499
 6 -1.93071653265327 -0.57337259865987  0.19795375367537
 6 -0.43325074767477 -0.43066741394139  0.60689481878188
 6  0.42845398259826 -0.67786129902990 -0.55998137863786
 8  0.05489672977298 -1.08054346194619 -1.63698002970297
 8  1.73781559205921 -0.45916331273127 -0.20893768266827
 7 -7.10737118501850  2.59204479427943  0.23338203370337
 6 -6.05467474647465  3.39112008780878  0.75741927552755
 6 -6.45441269436944  4.76713100250025  0.82326301350135
 6 -7.73768647564756  4.82617324882488  0.31757014831483
 6 -8.16304057565757  3.42117131243124 -0.03531098479848
 6 -5.52065002170217  5.85538800470047  1.25206996749675
 6 -8.55811360896089  5.98406944064406  0.06492347774777
 6 -8.54007789908991  7.17234335293529  0.71389763956396
 7 -9.07901017361736  0.61734459555956 -0.50726476017602
 6 -9.90056631633163  1.75586553965397 -0.57972429652965
 6 -11.28401749834983  1.42551089018902 -1.07878959845985
 6 -11.27709011291129  0.08631399549955 -1.26596531053105
 6 -9.84044972567257 -0.41356333063306 -0.95494051015102
 6 -12.30396922062206  2.42115268626863 -1.49653642844284
 6 -12.39476402270227 -0.69280669076908 -1.73301410991099
 6 -12.41727921632163 -0.88174058525853 -3.30071519011901
 7 -7.22521198949895 -1.44342395599560 -0.12970764776478
 6 -8.15898613841384 -2.23754892699270 -0.57044199939994
 6 -7.80944709030903 -3.58035630313031 -0.57913519081908
 6 -6.42154603870387 -3.54385872287229 -0.24411614351435
 6 -6.18215081148115 -2.20144842614261  0.02020482468247
 6 -8.62935040244024 -4.86230907330733 -0.84112259065907
 6 -5.27157162746275 -4.32062594609461  0.22411528412841
 8 -5.16733557145715 -5.63110759415942  0.21304833553355
 6 -4.13344692409241 -3.32630842064206  0.50420028532853
 6 -3.56675730663066 -3.61913713501350  1.82290266316632
 8 -3.73126472707271 -3.11027776397640  2.94660734183418
 8 -2.72735392909291 -4.64225894829483  1.72820140104010
 6 -2.12532312021202 -5.07674190329033  3.00283521902190
 6  2.79781229292929 -0.62359015361536 -1.12201340174017
 6  4.09290137913791 -0.57135531183118 -0.35034518351835
 6  5.08995247964796  0.29903616901690 -0.85088486118612
 6  5.02411083408341  1.06391904120412 -2.06226039133913
 6  6.43780811361136  0.29718156835684 -0.06483296849685
 6  7.63476101400140 -0.12059240614061 -1.05615256575658
 6  8.92660453305331 -0.04633976437644 -0.27383919671967
 6  10.17178780328033 -0.53691076277628 -0.95907687818782
 6  10.15173187338734 -2.01038197429743 -1.32376584158416
 6  11.36596947384738 -0.23122690349035 -0.08766789818982
 6  12.86912181988199 -0.54889894099410 -0.72546256915692
 6  13.97384685308531 -0.16026722952295  0.23778084558456
 6  15.41472759765977 -0.31978570767077 -0.48405664546455
 6  15.72617428632863 -1.76847448124812 -0.81302091979198
 6  16.50806491239124  0.33964832483248  0.39733424062406
 6  17.77974256365636  0.58258965736574 -0.24469028362836
 6  18.79449981948195  1.29367758475848  0.68593902690269
 6  20.17851652085209  1.42139247274727  0.19080384358436
 6  20.34765611941194  2.36692498969897 -1.13632462516252
 6  21.16809774057406  1.90410334663466  1.25281064446445
 1 -4.08998048254826  3.50636615801580  1.47519210611061
 1 -10.11682207490749  3.88837967296730 -0.50678607010701
 1 -10.28043133253325 -2.31178051885189 -1.40413706590659
 1 -2.68518497539754 -0.93578189208921  2.23875456665667
 1 -2.23205681088109  1.67894147674767  1.08757940834083
 1 -1.81625608310831  1.05064551745175  3.42801651515152
 1 -2.96995205520552  2.32036609410941  3.62482464786479
 1 -3.58294173687369  0.76422110611061  3.78034044684468
 1 -2.07208969386939 -1.62817277767777 -0.21202511171117
 1 -2.31064273677368  0.04998224862486 -0.63815385498550
 1 -0.31651516891689  0.48518313221322  0.80434083318332
 1  0.01950414841484 -0.87726224142414  1.46237019221922
 1 -5.83182195759576  6.90092873697370  0.66651236043604
 1 -5.60186717611761  6.04966832993299  2.21647794489449
 1 -4.38799275527553  5.48823999039904  1.04149732533253
 1 -9.26755880838084  5.58415456355636 -0.64449467766777
 1 -9.25241645754575  7.89266000490049  0.25360498229823
 1 -7.84447391319132  7.13756015551555  1.45334371987199
 1 -12.21973607870787  3.14585491149115 -2.36116912161216
 1 -13.28229789898990  1.92674656585659 -1.44043523502350
 1 -12.47267899899990  3.10003865856586 -0.78553979797980
 1 -12.14370914931493 -1.79271871697170 -1.22839779467947
 1 -13.37362608150815 -0.18613535033503 -1.40433596109611
 1 -13.30791714431443 -1.45424011021102 -3.50562044654465
 1 -12.32949651385139  0.13484894729473 -3.67875137083708
 1 -11.43772005130513 -1.45593046014602 -3.72947156715672
 1 -9.05678528152815 -4.66870761366137 -1.71139440354035
 1 -7.81076044084408 -5.68927893209321 -0.91080069306931
 1 -9.44909479437944 -4.90653567486749 -0.25417724032403
 1 -3.22817351325133 -3.24272752345235 -0.05345061656166
 1 -1.74268243474347 -4.12639907960796  3.50908382368237
 1 -2.94256386498650 -5.59267088468847  3.38338117701770
 1 -1.13710182168217 -5.73617289048905  2.49659361226123
 1  2.75445474957496 -1.67951978787879 -1.51371533653365
 1  3.08873635123512  0.06895117471747 -2.07759091129113
 1  4.19984088968897 -1.05262747794779  0.56859007500750
 1  4.11497046054606  1.10274898529853 -2.63461183088309
 1  5.63952936463646  2.16051631053105 -1.78752522072207
 1  5.74088139573957  0.53573468096810 -2.95471420242024
 1  6.53274533743374  1.35667966796680  0.15118776157616
 1  6.36128024742474 -0.20896893429343  0.90308002470247
 1  7.53005038973897 -1.21451068626863 -1.33305462906291
 1  7.59033146904690  0.46046925502550 -2.01004392799280
 1  9.25540759235924  1.15115300030003  0.24757238943894
 1  8.62207069576958 -0.78964447064706  0.56078394209421
 1  10.29657720912091  0.07990052775277 -1.81178606810681
 1  9.33794878037804 -2.23929190569057 -2.04869079387939
 1  10.95789834553455 -2.37590437433743 -1.77039128302830
 1  9.83602648864887 -2.68290023202320 -0.38791823152315
 1  11.35378305920592  0.81367359755976  0.48118960646065
 1  11.25559861326133 -0.85514147544754  0.76539716131613
 1  12.90286360526053 -1.59411757295730 -0.95697336493649
 1  12.89384313681368  0.16155684668467 -1.62958631993199
 1  13.73575501220122  0.85005756175618  0.77819516251625
 1  13.93327608070807 -0.97889749444945  0.97739425592559
 1  15.30189347784778  0.34963444844484 -1.29784414241424
 1  15.52129957285729 -2.46038633073307  0.14083262936294
 1  15.08928197889789 -2.21631400700070 -1.65950336543654
 1  16.84572420182018 -1.80311583648365 -1.30441191069107
 1  16.05929112981298  1.27037487118712  0.83230977527753
 1  16.83505795299530 -0.27469664476448  1.31850461166117
 1  18.15953689238924 -0.43158970637064 -0.46616995739574
 1  17.84106117061706  1.09983730263026 -1.12527610341034
 1  18.39813060566057  2.16062021972197  0.87362536783678
 1  18.81493865416542  0.62090627162716  1.58534853515352
 1  20.44213912661266  0.51114726292629 -0.11729466546655
 1  20.01283539013901  3.48009157105711 -0.91922551595160
 1  21.49666391849185  2.42438909170917 -1.49477084038404
 1  19.78562246664667  1.80042185298530 -1.97896486548655
 1  21.28169414461446  1.34969307840784  2.14698431563156
 1  22.16019772607261  1.96493772347235  0.96246121242124
 1  20.76577630753075  2.86368645194519  1.46232667316732
=======
12 -7.08267884088409  0.65492424052405  0.10380806820682
 6 -4.91154577257726 -1.93103428182818  0.43421995469547
 6 -4.97636756565657  2.73597204450445  1.24036040094009
 6 -9.36965170067007  3.11158665416542 -0.48710156985699
 6 -9.57959827352735 -1.72025753675368 -0.95691212031203
 7 -5.10916434103410  0.36988680678068  0.70646106440644
 6 -4.36203590969097 -0.74476429842984  0.80123814701470
 6 -2.91237024242424 -0.44880430613061  1.19630998519852
 6 -2.98033147154715  1.08478114641464  1.61750248094809
 6 -4.38208520342034  1.49093984278428  1.16137316721672
 6 -2.89296437853785  1.34099638773877  3.08596000490049
 6 -1.94554801580158 -0.64729999139914  0.00547450575058
 6 -0.48505592819282 -0.40761510871087  0.55826995629563
 6  0.58559969716972 -0.77597111001100 -0.48671405190519
 8  0.21071231133113 -1.12461786938694 -1.60630696239624
 8  1.76944875537554 -0.38314571097110 -0.11247803670367
 7 -7.05922637053705  2.60900649044904  0.37519621512151
 6 -6.07151643064307  3.28216919271927  0.82270580418042
 6 -6.35741299439944  4.82672696209621  0.75563625082508
 6 -7.67309001600160  4.84546517801780  0.24737312861286
 6 -8.08181245284529  3.44866406170617  0.01541408770877
 6 -5.44575253195319  5.94081654755476  1.12593735423542
 6 -8.47515531313131  6.04632566626663 -0.00282329692969
 6 -8.37851174247425  7.06534265286529  0.75361161096110
 7 -9.14316658925893  0.69457231833183 -0.44944897859786
 6 -9.88500476017602  1.91915186828683 -0.70318664276428
 6 -11.18724782138214  1.53288162726273 -1.08235995549555
 6 -11.30466287018702  0.13611897599760 -1.11986070007001
 6 -9.97249292999300 -0.30185215951595 -0.84542955905591
 6 -12.16088491219122  2.58683925492549 -1.51090786558656
 6 -12.33539808610861 -0.77448485858586 -1.64229503800380
 6 -12.36218370677068 -1.14630704190419 -3.15344046264626
 7 -7.24999446774677 -1.38529814341434 -0.19273395039504
 6 -8.29032927272727 -2.20249542164216 -0.57839279447945
 6 -7.84491063666367 -3.69424769226923 -0.47027430473047
 6 -6.52152603670367 -3.57789212621262 -0.11152288418842
 6 -6.20054265066507 -2.13913219451945  0.14032683688369
 6 -8.68880634803480 -4.88741158355836 -0.73432191059106
 6 -5.35913038333833 -4.43249713321332  0.20899377197720
 8 -5.22683152105211 -5.65980046344634  0.14935196589659
 6 -4.25950953035303 -3.38548433823382  0.55427529282928
 6 -3.51034166506651 -3.76551177247725  1.85631600450045
 8 -3.73846544714471 -3.20022675887589  2.89538221932193
 8 -2.73462465616562 -4.76442116451645  1.72721130203020
 6 -2.25630621852185 -5.25318954805480  2.91039597509751
 6  2.86014852655265 -0.73002079667967 -1.13248444884488
 6  4.17899998899890 -0.38551672797280 -0.45602575157516
 6  5.11664514891489  0.47341360676068 -0.95078485118512
 6  4.88999742274227  1.35603825312531 -2.35077924322432
 6  6.41110544334433  0.60466231643164 -0.31148763396340
 6  7.59883742164216 -0.08351869876988 -1.02508945944594
 6  8.97331920452045 -0.18745387578758 -0.22348416121612
 6  10.21126175067507 -0.59178625032503 -0.85820679117912
 6  10.11107780798080 -2.05347628372837 -1.32460592559256
 6  11.37007988488849 -0.35656943774377  0.11139200780078
 6  12.77979288698870 -0.65319937103710 -0.58296831973197
 6  13.94014348274827 -0.20336153895390  0.41418848634864
 6  15.30024614951495 -0.19865359445945 -0.37941618141814
 6  15.61471314021402 -1.74520215401540 -0.91569118681868
 6  16.43845795169517  0.31764612461246  0.48095260246025
 6  17.84854944434443  0.65476687508751 -0.18781459605961
 6  18.84230459995999  1.37265548254825  0.68307874087409
 6  20.24307297649765  1.47336767026703  0.20156491969197
 6  20.35738709250925  2.31021931913191 -1.10067105980598
 6  21.20197112791279  2.00028296459646  1.18978434183418
 1 -4.16013749824983  3.39135465686569  1.50877546444644
 1 -9.84435482818282  3.94514534953495 -0.31410680218022
 1 -10.27860114951495 -2.49518885968597 -1.26627327952795
 1 -2.60585704260426 -1.20193850775077  2.11924261546155
 1 -2.10241384658466  1.68219180178018  0.93564421482148
 1 -1.77498195569557  0.98942939583958  3.45714942844284
 1 -3.14670973097310  2.36500055755576  3.34206637203720
 1 -3.33034647734773  0.77961264526453  3.71683409620962
 1 -2.15770825572557 -1.61251121152115 -0.49755366456646
 1 -2.15010668316832  0.02461971237124 -0.84465450505050
 1 -0.22783630103010  0.57227184108411  0.80324072317232
 1 -0.52429023102310 -1.03992850805080  1.44249820502050
 1 -5.72967174257426  6.89511815591559  0.69795550475048
 1 -5.37298428782878  5.98771213431343  2.26167246434643
 1 -4.38616257225723  5.73290445684568  0.89059223482348
 1 -9.09651170367037  6.10252640074007 -0.90548077627763
 1 -8.92842405830583  8.02679341824182  0.69140876267627
 1 -8.12961242704271  7.21795819531953  1.88809719521952
 1 -11.89575368046805  3.19641996799680 -2.36935994069407
 1 -13.06560622982298  2.04396828802880 -1.76755794729473
 1 -12.40915264636464  3.40825948064807 -0.87409865386539
 1 -12.13023780218022 -1.67982742784278 -1.01056601150115
 1 -13.30901962086209 -0.29534627142714 -1.26504203170317
 1 -13.16769312191219 -1.73131781798180 -3.50711059555956
 1 -12.58034159835984 -0.46571110871087 -3.90317381308131
 1 -11.37352363166317 -1.48422328942894 -3.55469408940894
 1 -9.10395999899990 -4.85681642454245 -1.74211747584758
 1 -8.00285965076507 -5.63132313651365 -0.44256386938694
 1 -9.48635852075208 -4.97656267756776 -0.09444126672667
 1 -3.49187988388839 -3.62918616931693 -0.26954222572257
 1 -1.79767793429343 -4.45013145284528  3.61708462376238
 1 -3.02383199179918 -5.66912853045305  3.63774661356136
 1 -1.34052216371637 -5.93688296149615  2.60046399929993
 1  2.81167047114711 -1.76796863276328 -1.36710067506751
 1  2.76977445504550 -0.19972569296930 -2.06907005920592
 1  4.57565847144714 -0.87310952615261  0.39527274327433
 1  3.88837780128013  1.30793950435044 -2.85486385608561
 1  5.32562797449745  2.29149940884088 -2.03020948914892
 1  5.65905321292129  0.77341844934493 -3.16680541154115
 1  6.61684374727473  1.74219821982198 -0.13474083128313
 1  6.18289240864086  0.26458842144214  0.66613633033303
 1  7.32155954065407 -1.12928216341634 -1.27852917651765
 1  7.71852428832883  0.47750095819582 -1.93503642724272
 1  9.12955500710071  0.87891577657766  0.17789542174217
 1  8.73923241194120 -0.57705321152115  0.68408627232723
 1  10.64705225662566  0.21027356505651 -1.72157704720472
 1  9.27727271277128 -1.94883285978598 -2.11340726552655
 1  11.03166572227223 -2.37958474237424 -1.81400564446445
 1  9.98074096009601 -2.82362430443044 -0.53522296199620
 1  11.30599828072807  0.53223545374537  0.54520600810081
 1  11.31982503590359 -0.99005496679668  0.92447306890689
 1  12.86607992689269 -1.60940910211021 -0.89943761136114
 1  12.86739049154915  0.03979467046705 -1.51791515281528
 1  13.78807024372437  0.85779833583358  0.55250259325933
 1  13.97294004710471 -0.83219282398240  1.32978949544955
 1  15.49733302180218  0.21033051805180 -1.40744510251025
 1  15.66330377327733 -2.46074636673667 -0.00405185908591
 1  14.69325237593759 -1.93819619521952 -1.60763817891789
 1  16.57578720812081 -1.93786931183118 -1.48811028052805
 1  15.99539474017402  1.21650948464846  0.98571511581158
 1  16.34442889008901 -0.22292146724672  1.40603336453645
 1  18.45560649934993 -0.24883143054305 -0.86353969436944
 1  17.57065412991299  1.14608192709271 -1.31642521832183
 1  18.50674146674667  2.29138329602960  1.02675068036804
 1  18.90010717101710  0.82889707070707  1.64436443674367
 1  20.52431734443444  0.43260940914091 -0.22651558755876
 1  20.18213231983198  3.28115167706771 -0.87385097849785
 1  21.20845509760976  2.35307195999600 -1.51342270557056
 1  19.72452635703571  1.93103491429143 -1.80283725272527
 1  21.15618159335934  1.40080818991899  2.08329794699470
 1  22.23757546384638  1.89992122182218  0.95998096439644
 1  21.13360309020902  3.05479556285629  1.44540498099810
>>>>>>> 8e03b5b5abfc0030b3aa597dc0de36371bfbd096

