%nproc=4
%Mem=2GB
# td=(NStates=1) CAM-B3LYP/6-31G(d,p) 

TD

0 1
12 -7.09406997999800  0.65710445854585  0.01557924532453
 6 -4.99998461646165 -1.91102228062806  0.55197172987299
 6 -4.83746367526753  2.88514696199620  1.15357172207221
 6 -9.37898263376338  3.10225572107211 -0.29754261396140
 6 -9.45606592029203 -1.79287479847985 -0.96284271337134
 7 -5.09175259985999  0.50443026112611  0.68454887318732
 6 -4.34121382748275 -0.73177299929993  0.80589861306131
 6 -2.93690269566957 -0.38352777847785  1.33212356655666
 6 -3.01302474087409  1.10946361466147  1.74746547724772
 6 -4.39799679457946  1.53341409020902  1.18179520942094
 6 -3.07982306440644  1.32969525762576  3.26266767566757
 6 -1.96044950595059 -0.54120938233823  0.21726568486849
 6 -0.49745716831683 -0.55572992019202  0.70686481578158
 6  0.59496063326333 -0.62769628252825 -0.42130751125112
 8  0.20118135823582 -0.98203361096110 -1.50693702540254
 8  1.85054686518652 -0.43191058745875  0.08895210631063
 7 -7.10975142304230  2.67732332213221  0.34466316181618
 6 -6.11909118811881  3.46725770157016  0.80477401100110
 6 -6.43945119821982  4.79524381378138  0.80451113831383
 6 -7.81932463946395  4.88552918441844  0.40342873417342
 6 -8.20578485008501  3.50603979927993  0.08775132143214
 6 -5.62160011671167  5.95351781768177  1.19968472897290
 6 -8.59447724532453  6.01482251595160  0.17800478587859
 6 -8.68629252055206  7.30045616421642  0.80046629642964
 7 -9.11441371397140  0.71232409350935 -0.56280031373137
 6 -9.92726898659866  1.83901385448545 -0.67506383048305
 6 -11.19504860146015  1.44567290639064 -1.18436015551555
 6 -11.12920532443244 -0.01959659555956 -1.35994470847085
 6 -9.87585326602660 -0.47839981428143 -1.01850686678668
 6 -12.30918974267427  2.36638720972097 -1.40616739153915
 6 -12.26741128742874 -0.80107751785179 -1.91408221672167
 6 -12.12658014641464 -1.11059347054705 -3.48062318091809
 7 -7.23878334663466 -1.37468708230823 -0.15021969896990
 6 -8.31929216901690 -2.22691786388639 -0.60443539873987
 6 -7.78042418801880 -3.62803107060706 -0.47305458275828
 6 -6.40447433153315 -3.50434477147715 -0.14915664756476
 6 -6.14855745214521 -2.09947822912291  0.04290709490949
 6 -8.53410087748775 -4.90152299469947 -0.71167964636464
 6 -5.28106257655766 -4.34181806530653  0.18430130273027
 8 -5.04940377827783 -5.51348583198320  0.29891692239224
 6 -4.19690326972697 -3.27327311711171  0.55129499479948
 6 -3.63613424432443 -3.63342856415642  1.83367374027403
 8 -3.89393099369937 -3.13194993119312  2.93212589368937
 8 -2.80181137483748 -4.70285500790079  1.74598317921792
 6 -2.26072666056606 -5.27734196329633  3.05861079657966
 6  2.87130964266427 -0.73353114771477 -1.07358855925593
 6  4.22555464446445 -0.53885206150615 -0.48210835983598
 6  5.12874635903590  0.24963122852285 -1.01217098979898
 6  4.88884730773077  1.19489213851385 -2.22341650695070
 6  6.44012834563456  0.29778162836284 -0.36191267646765
 6  7.64427196509651 -0.26605695259526 -1.09261621212121
 6  8.95716758935894 -0.22610774117412 -0.32202401520152
 6  10.17232785728573 -0.55245231693169 -1.11071204170417
 6  10.30357705790579 -2.07549848594859 -1.60489395439544
 6  11.46886976387639 -0.33005678647865 -0.19232836423642
 6  12.90568547624762 -0.64639869096910 -0.69948997189719
 6  14.02204167256726 -0.17267847064706  0.21419848734873
 6  15.38557468236824 -0.17150087918792 -0.53856209600960
 6  15.83694536343634 -1.66116375017502 -0.95643526122612
 6  16.44257836373637  0.51609596959696  0.45888039523952
 6  17.85571016041604  0.55108650705070 -0.16969278387839
 6  18.82902327182718  1.26384460146015  0.77051748474848
 6  20.23030169936994  1.34704503800380  0.23502826602660
 6  20.24433578737874  2.13689198639864 -1.04090508320832
 6  21.06545747654766  2.08754169046905  1.31064642804280
 1 -4.15869735423542  3.67344286568657  1.63922850975097
 1 -10.03653404610461  3.86645748074807 -0.44377976947695
 1 -10.32553584298430 -2.47446678747875 -1.39719637183718
 1 -2.78406486338634 -1.01510982488249  2.26512720392039
 1 -2.28649225442544  1.60644422702270  1.30479112951295
 1 -2.17149160666067  1.04873532643264  3.74162787628763
 1 -3.21664672467247  2.48569262676268  3.53135530093009
 1 -3.92902634533453  0.95411009500950  3.77970038283828
 1 -2.19561204610461 -1.47686764716472 -0.17299120832083
 1 -2.04581625412541  0.19031628202820 -0.48307834743474
 1 -0.25184870227023  0.42382699659966  1.05659605870587
 1 -0.28663646564656 -1.35227974317432  1.46825078027803
 1 -6.18081685708571  6.83616226032603  0.71837754695470
 1 -5.58294528392839  6.21999536263626  2.21650794789479
 1 -4.60125408140814  5.90716188258826  0.65219839543954
 1 -9.50335238773877  6.21299744784478 -0.49678990719072
 1 -9.46778799469947  8.05267600650065  0.71504112591259
 1 -7.85081454725473  7.18799519901990  1.49596798229823
 1 -11.93954805990599  3.21919224522452 -1.98715171987199
 1 -12.99568923812381  2.03134702590259 -1.99448063956396
 1 -12.59495122622262  2.75407406210621 -0.36641788578858
 1 -12.42156693509351 -1.82886233133313 -1.47483243814381
 1 -13.12031074997500 -0.30118685548555 -1.46898242574257
 1 -13.11657801040104 -1.55004969116912 -3.90496038053805
 1 -11.91976554075408 -0.16976151375137 -3.93863735943594
 1 -11.19066534583459 -1.73021788888889 -3.57569618961896
 1 -8.86550615361536 -5.04991573447345 -1.82376564066407
 1 -7.94952431723172 -5.66918692289229 -0.27058667166717
 1 -9.39042892779278 -4.96496151745175  0.06153433083308
 1 -3.31457215311531 -3.35209846054605 -0.22503777527753
 1 -1.53600176667667 -4.76492293199320  3.68770168546855
 1 -3.13651325992599 -5.47116873447345  3.69923276217622
 1 -2.04133224472447 -6.38040731393139  2.74700865376538
 1  2.64050335443544 -1.87284912081208 -0.95422938793879
 1  2.67705518311831 -0.18192391279128 -1.91614476667667
 1  4.45125603120312 -1.14085630083008  0.36645986198620
 1  3.86123508700870  0.93633234363436 -2.83105147484749
 1  4.89348476017602  2.37057731663166 -1.91127759595960
 1  5.52111941954195  0.88671977947795 -3.04412314331433
 1  6.68159022192219  1.33960796079608  0.00097274007401
 1  6.22208632803280 -0.34576261366137  0.62669238593859
 1  7.39700708540854 -1.24455369056906 -1.32650397399740
 1  7.59154159005901  0.37996120422042 -2.07457038063806
 1  9.26222827442744  0.79158704370437  0.00264789698970
 1  8.73892238093810 -0.79885539173917  0.59038690239024
 1  10.14846239763976  0.15274781248125 -2.04268915841584
 1  9.34096908240824 -2.49598757525753 -2.07439336413641
 1  11.17067962366237 -2.38007479137914 -2.22537678157816
 1  10.09069195519552 -2.66334827682768 -0.74374381408141
 1  11.23836151705171  0.72673490369037  0.14837632513251
 1  11.36772982638264 -0.84985094639464  0.66027664926493
 1  13.10510382928293 -1.78203636483648 -0.95906357395739
 1  12.96508026052605 -0.20963027202720 -1.79971333263326
 1  13.91787322402240  1.02188474447445  0.32785012801280
 1  14.15906865996600 -0.45678528322832  1.40111662816282
 1  15.19535282378238  0.35309479447945 -1.37373173117312
 1  16.13476091899190 -2.15852614471447  0.09046759285929
 1  15.17767081778178 -2.25860823642364 -1.62363977907791
 1  16.84140376977698 -1.76756228112811 -1.11272274177418
 1  16.09712491319132  1.53945177887789  0.78604514881488
 1  16.57301174837484 -0.22791196629663  1.40850361156116
 1  18.32817375607561 -0.42807935533553 -0.29369270967097
 1  17.71752881738174  0.79756707560756 -1.33303687948795
 1  18.53362415501550  2.21289544724472  1.11990999629963
 1  18.69621678197820  0.57617179817982  1.74386438673867
 1  20.62484739743974  0.27472362056206  0.03091015501550
 1  19.75523963056305  3.19374293619362 -0.93274686808681
 1  21.13160741284128  2.16180283308331 -1.52949431273127
 1  19.50619452385239  1.69199100990099 -1.69679664866487
 1  21.34973094829483  1.39868797789779  2.23795341254125
 1  22.16680838713871  2.41968319801980  1.03582854915492
 1  20.71453118301830  3.01638172147215  1.61447188768877

