%nproc=4
%Mem=2GB
# td=(NStates=1) CAM-B3LYP/6-31G(d,p) 

TD

0 1
12 -7.10623119611961  0.61966071417142  0.10822851025103
 6 -4.77614223222322 -1.91848302670267  0.45902243494349
 6 -4.79342927182718  2.87028547584758  1.13563992889289
 6 -9.38620335583558  3.14801029652965 -0.38264112381238
 6 -9.56643695739574 -1.67932344334433 -0.85547197629763
 7 -5.04095752035203  0.45060487858786  0.70324074237424
 6 -4.30486019211921 -0.69901972397240  0.72497052025203
 6 -2.88676768216822 -0.40962038773877  1.24410476467647
 6 -3.02029546794679  1.07042971127113  1.74304503520352
 6 -4.35228222312231  1.53723447224722  1.04581161106111
 6 -2.93162824492449  1.27245953405341  3.21622303120312
 6 -1.81878533953395 -0.62233749514951  0.07757171547155
 6 -0.44602202480248 -0.49631397859786  0.51251538083808
 6  0.53420455765577 -0.77306081898190 -0.54699007950795
 8  0.29316055615562 -1.21459686728673 -1.70905723742374
 8  1.78846065656566 -0.44754215061506 -0.17598438733873
 7 -7.04683513141314  2.59840543034303  0.24117281278128
 6 -6.07409668866887  3.37296827262726  0.66349988358836
 6 -6.40993824692469  4.75470976037604  0.64723541074107
 6 -7.72506521352135  4.82604323582358  0.23650204150415
 6 -8.11465573717372  3.46381557685769 -0.01718917261726
 6 -5.52049000570057  5.92345481138114  1.22577733823382
 6 -8.68451624922492  5.89437047074708  0.10149713511351
 6 -8.62296618791879  7.07917403600360  0.86458270807081
 7 -9.12820509310931  0.70946380748075 -0.56238027172717
 6 -9.90991725142514  1.74289424252425 -0.64484080818082
 6 -11.23346244284428  1.45638397749775 -1.09709142864286
 6 -11.30910331423142  0.13349871397140 -1.17875658965897
 6 -9.95303098379838 -0.46856883118312 -0.88639365546555
 6 -12.38972779647965  2.41518208920892 -1.29414618941894
 6 -12.42085663196320 -0.78783619371937 -1.63726453495350
 6 -12.30461795019502 -1.24893730493049 -3.13260837943794
 7 -7.18884835313531 -1.37594720832083 -0.17524220122012
 6 -8.19576981678168 -2.19763493559356 -0.64813976917692
 6 -7.80381652725273 -3.56305457295730 -0.58170544784478
 6 -6.44460834493449 -3.50826516351635 -0.09982171407141
 6 -6.17670026642664 -2.11912019331933  0.05611841604160
 6 -8.71245871327133 -4.83230607300730 -0.83481195959596
 6 -5.32875734603460 -4.33503738723872  0.14823769636964
 8 -5.15743458135814 -5.55136962036204  0.13752078277828
 6 -4.09210278967897 -3.29515530533053  0.43427329262926
 6 -3.50160079097910 -3.70513573487349  1.85139551245125
 8 -3.93721532213221 -3.13194993119312  2.88772145324532
 8 -2.64929612331233 -4.68811353375338  1.75665424632463
 6 -2.20826141404140 -5.23173740284028  3.05386032153215
 6  2.95142765446545 -0.71934972957296 -1.16991819221922
 6  4.20619270827083 -0.38829700600060 -0.55975612461246
 6  5.09692317671767  0.52021828722872 -0.83201297399740
 6  5.00619904290429  1.32998564786479 -2.14846901220122
 6  6.47395172797280  0.65774762496250 -0.10852733793379
 6  7.61210874877488  0.13377303040304 -0.96025297579758
 6  8.99224109670967  0.16936180578058 -0.09207101990199
 6  10.13760438493849 -0.64687175887589 -0.82641361186119
 6  9.89496619681968 -2.05252618871887 -0.99695316031603
 6  11.43545642254225 -0.31713549434943  0.01568243684368
 6  12.70792570027003 -0.61582563366337 -0.71434145704570
 6  13.87221669006901 -0.18195939873987  0.19040610811081
 6  15.30193631853185 -0.19596332543254 -0.51445968576858
 6  15.66447811671167 -1.56654428822882 -0.86086570427043
 6  16.39736384228423  0.31611597159716  0.48233274047405
 6  17.81946653605360  0.58158955735574 -0.18720453505351
 6  18.85885625512551  1.25721393839384  0.69229966296630
 6  20.29523819301930  1.28276861036104  0.13291805500550
 6  20.36472782658266  2.07929622682268 -1.19447043974397
 6  21.25560649144915  1.78836177247725  1.15662102550255
 1 -4.17990947544754  3.70623614501450  1.49663425032503
 1 -9.97111750445044  4.01069190419042 -0.52751814331433
 1 -10.23866715611561 -2.52787212801280 -1.19915656785679
 1 -2.79261571847185 -1.19907822172217  1.92583327452745
 1 -2.16991059625963  1.76372995559556  1.39226987738774
 1 -1.85376983448345  0.97539799269927  3.48058177167717
 1 -2.76412147214721  2.18498255575558  3.57464963036304
 1 -3.65001844454445  0.70603528752875  3.71771418421842
 1 -1.77886037093709 -1.53818377877788 -0.46656056525653
 1 -2.12138381088109 -0.10068281788179 -0.90712075167517
 1 -0.15937945534553  0.38943355725573  1.06406680578058
 1 -0.18757655965597 -1.16544105930593  1.18647260246025
 1 -5.93798257365737  6.93129177327733  0.71804751395140
 1 -5.50168715811581  6.12975633873387  2.26691298839884
 1 -4.54975893189319  5.71951311771177  0.89051222682268
 1 -9.37910996349635  5.71205735383538 -0.62366259445945
 1 -9.22990420632063  7.98284902380238  0.70665028682868
 1 -7.91794125992599  7.09261566106611  1.58257664316432
 1 -12.25305941104110  3.00715104110411 -2.20041304600460
 1 -13.34276394559456  1.80914480568057 -1.62688387988799
 1 -12.34965669676968  3.07234588928893 -0.49593083708371
 1 -12.41450622902290 -1.65678512361236 -1.06790174507451
 1 -13.37295601450145 -0.39701643844384 -1.56726225372537
 1 -13.31504785738574 -1.73839852605261 -3.41026091059106
 1 -12.09662322652265 -0.21793633123312 -3.78367186288629
 1 -11.32946922622262 -1.92120698779878 -3.15127374737474
 1 -8.84727433043304 -4.83659440234023 -2.01156442054205
 1 -8.22186155095510 -5.63011301550155 -0.57702731573157
 1 -9.65292517741774 -5.03117813911391 -0.29385120772077
 1 -3.32186288218822 -3.33331658235824 -0.22880815231523
 1 -1.64780294679468 -4.54732117181718  3.52396531183118
 1 -2.92146175477548 -5.33464508210821  3.84922776167617
 1 -1.64487259875988 -6.18257753095310  2.97849180208021
 1  2.68278758285829 -1.79656149204920 -1.43470743574357
 1  2.57167464506451 -0.09784550495050 -1.96509966216622
 1  4.17542844844484 -0.86097831303130  0.35281849784978
 1  3.92064102760276  1.80398910931093 -2.39939830953095
 1  5.77569298099810  2.28921918081808 -2.05555202340234
 1  5.46427373497350  0.82354346184618 -3.00288901990199
 1  6.71055311821182  1.65493949394939  0.09785242804280
 1  6.30475459485949  0.10462242484248  0.73779349604960
 1  7.38627601230123 -0.97433666886689 -1.35847717131713
 1  7.83467590349035  0.70263347144714 -1.72262518611861
 1  9.33172522412241  1.24388227322732  0.26415404760476
 1  8.81363985268527 -0.26454196039604  0.84155201890189
 1  10.40762831423142 -0.21641910421042 -1.87465235473547
 1  8.98374335983598 -2.44203217971797 -1.54568049284929
 1  10.63161571727173 -2.51098788268827 -1.65944018791879
 1  9.96251913791379 -2.85664760676068 -0.09494893459346
 1  11.60065774667467  0.76187841804180  0.46612810031003
 1  11.38516156955696 -1.19724568586859  0.90887150875087
 1  12.77415073397340 -1.57855601680168 -0.84201186878688
 1  12.54996874937494  0.24951564256426 -1.42692605390539
 1  13.72572400910091  0.75866842284228  0.82010935393539
 1  14.14157691079108 -0.94156376107611  0.94573108960896
 1  15.19704299279928  0.59710919591959 -1.34109846784678
 1  15.48987643054305 -2.15140543264326  0.25290383648365
 1  14.87354040474047 -2.08134050965096 -1.44145156025603
 1  16.73294292369237 -1.88125365026503 -1.27224869436944
 1  15.86039123982398  1.31479931363136  0.52523906820682
 1  16.37334178137814 -0.17726690179018  1.52067482868287
 1  18.35813675237524 -0.27864441184118 -0.77283062346235
 1  17.52677974247425  1.21924924382438 -1.01076465226523
 1  18.47205799839984  2.26608076577658  0.92402040734073
 1  18.95067222752276  0.71815599659966  1.63895389568957
 1  20.40207512021202  0.25581172937294 -0.02332526852685
 1  20.24753886048605  3.12831639353935 -1.15568916231623
 1  21.46023027512751  1.92368902170217 -1.44040540384038
 1  19.50680458485849  1.50972278307831 -1.91283825282528
 1  21.04863083828383  1.07954606370637  2.12212182938294
 1  22.37587929422942  1.61385261496150  0.84897986428643
 1  21.11098082798280  2.73885396869687  1.34077451795180

