%nproc=4
%Mem=2GB
# td=(NStates=1) CAM-B3LYP/6-31G(d,p) 

TD

0 1
12 -7.10975154815482  0.68616736483648  0.07283497089709
 6 -4.89333395139514 -1.93847502590259  0.54128066076608
 6 -4.84882481138114  2.82924137143714  1.14406077097710
 6 -9.35438017351735  3.12036753225323 -0.48803166286629
 6 -9.47417773147315 -1.74789030003000 -0.85521195029503
 7 -5.18335175977598  0.47581739983998  0.73663408170817
 6 -4.35330503660366 -0.72871269326933  0.81295931913191
 6 -2.96379538493849 -0.38328775447545  1.37280763496350
 6 -3.03200663906391  1.07951061936194  1.73649438013801
 6 -4.45240223512351  1.45072582138214  1.21044807470747
 6 -3.02576765886589  1.34019630773077  3.28541995089509
 6 -1.90734419541954 -0.65780104150415  0.17836179447945
 6 -0.46169359195920 -0.55981032823282  0.70359448874887
 6  0.56194733193319 -0.66792030493049 -0.52984836533653
 8  0.20003124322432 -1.01671707930793 -1.67093342504250
 8  1.80531234173417 -0.39700709710971 -0.21226801570157
 7 -7.09443989188919  2.58010360016002  0.29468816431643
 6 -6.06845612461246  3.26282725852585  0.71373490709071
 6 -6.48458571167117  4.77620190959096  0.67102778997900
 6 -7.72260496749675  4.80727135863586  0.24024241554155
 6 -8.14692896449645  3.46656585188519  0.04988753505351
 6 -5.50171812851285  5.94638710461046  1.07683244374437
 6 -8.50518831643164  6.00536156985699  0.11417840324032
 6 -8.53938783008301  7.10361648024803  0.90896714651465
 7 -9.09779205180518  0.69002186328633 -0.53488752245225
 6 -9.89601586128613  1.82224217731773 -0.69502582668267
 6 -11.18241733833383  1.43844218331833 -1.08937065656566
 6 -11.15648805270527  0.02966833093309 -1.30443915791579
 6 -9.87633331403140 -0.42609458375838 -0.86184120022002
 6 -12.29245806950695  2.37421799279928 -1.39229600440044
 6 -12.34730927722772 -0.74073148324832 -1.71487229572957
 6 -12.29450693909391 -1.12001441264126 -3.18273339193919
 7 -7.26427589588959 -1.37864747834783 -0.15864054105411
 6 -8.24898513831383 -2.20258543064306 -0.55618057325733
 6 -7.87048319391939 -3.63378164566457 -0.49057633493349
 6 -6.50931481558156 -3.53737807480748 -0.11871360326033
 6 -6.18615121152115 -2.10673895519552  0.03368617281728
 6 -8.62944041144114 -4.76221906430643 -0.79069754815482
 6 -5.28133260356036 -4.33215709920992  0.21139401200120
 8 -5.22210104800480 -5.60186466986699  0.15496252695270
 6 -4.24170775017502 -3.30167595739574  0.58766863216322
 6 -3.59278990989099 -3.65457067836784  2.02147252015202
 8 -3.80639223982398 -3.03939067526753  3.03273595469547
 8 -2.76913810751075 -4.62534725712571  1.78524710561056
 6 -2.11104169206921 -5.28572280138014  2.92159709520952
 6  2.84139665136514 -0.57482527712771 -1.24200540094009
 6  4.15279736873687 -0.50675885218522 -0.62675282428243
 6  5.19131261566157  0.37862412781278 -0.99074884758476
 6  5.13932235523552  1.29603225252525 -2.16141030633063
 6  6.52273660646065  0.31185303550355 -0.25789227442744
 6  7.57721525942594 -0.27506785368537 -1.15057200770077
 6  8.98711058365837 -0.17034216461646 -0.35038685148515
 6  10.21407203170317 -0.60717778947895 -0.96775774627463
 6  10.19768646884688 -2.07661859795980 -1.40815428042804
 6  11.44361723862386 -0.35222900370037 -0.08208734013401
 6  12.84233914161416 -0.57561161226123 -0.75589561246125
 6  14.00562003040304 -0.17816901970197  0.19956702420242
 6  15.33959008390839 -0.17947167626763 -0.48677691749175
 6  15.74944661356136 -1.62924055785579 -0.78446806450645
 6  16.35129923582358  0.56008036803680  0.41914642184218
 6  17.82374696409641  0.61974337273727 -0.17248306290629
 6  18.82455282478248  1.29339755675568  0.83577401040104
 6  20.23439210841084  1.37787812131213  0.31258602180218
 6  20.31115246904691  2.30770906810681 -0.93607460016002
 6  21.17841877267727  1.83107604390439  1.21780714411441
 1 -4.16486797129713  3.52269779117912  1.47510209710971
 1 -10.13089348204820  3.72465330033003 -0.73205859735974
 1 -10.18206149554956 -2.48197753855386 -1.17164381658166
 1 -2.69994645154515 -1.15959427332733  2.31858254945494
 1 -2.36107971317132  1.62836641924192  1.36127677807781
 1 -1.94320877837784  0.94872532543254  3.44188790229023
 1 -3.12140720072007  2.33246730423042  3.47994015941594
 1 -3.96364980768077  0.91209589358936  3.58918133093309
 1 -2.09823230813081 -1.76674663506351 -0.06527043624362
 1 -1.94569624212421 -0.03644639423942 -0.84681472107211
 1 -0.45589910731073  0.51153576747675  1.10297069616962
 1 -0.20739854185419 -1.25208972417242  1.51735569076908
 1 -5.79299807520752  6.93639228332833  0.55323103230323
 1 -5.52765975537554  5.97358072117212  2.21262755985599
 1 -4.44410836683668  5.78402956935694  0.80921409700970
 1 -9.39264131663166  5.78755490359036 -0.68608883708371
 1 -9.42413362926293  7.88270900980098  0.80780040184018
 1 -7.98552801860186  7.15088148764876  1.88424681018102
 1 -12.13218732383238  3.03213353935394 -2.40606361106111
 1 -13.21972164136413  1.96915080628063 -1.79105029652965
 1 -12.51296302740274  3.08405706040604 -0.55240648464846
 1 -12.55061984038404 -1.63613305840584 -1.07895285018502
 1 -13.24977369626963 -0.01021775857586 -1.73927945544554
 1 -13.27778413101310 -1.59816450265026 -3.46924680918092
 1 -12.13135669986999 -0.20242478007801 -3.64308780448045
 1 -11.34094037333733 -1.71951681878188 -3.33945256525653
 1 -9.23169277227723 -4.49363010591059 -1.78350161426143
 1 -8.03335270007001 -5.88763876807681 -1.14356396939694
 1 -9.30150003490349 -4.90403542484249  0.02104028142814
 1 -3.37103779967997 -3.40269352005200 -0.05818108960896
 1 -1.76081424792479 -4.51435787548755  3.65549846514651
 1 -3.12521212981298 -5.68321993959396  3.35233807270727
 1 -1.41976008750875 -6.04753402660266  2.63409736263626
 1  2.42183148724872 -1.45575741164116 -1.84348831383138
 1  2.67165464306431  0.09172345194519 -1.88710186238624
 1  4.44536544214422 -1.17700991619162  0.17242045804580
 1  4.22512147564756  1.51946065646565 -2.63479184888489
 1  5.49263467516752  2.36124638353835 -1.98028449664966
 1  5.57840514811481  1.07179828732873 -3.01661039203920
 1  6.77926998989899  1.26214021402140 -0.03261061826183
 1  6.45996011541154 -0.26429446684668  0.69644936163616
 1  7.30205759045905 -1.29015825102510 -1.17214853845385
 1  7.65578801470147 -0.00466725862586 -2.30849377297730
 1  9.11424347594759  1.01690957595760 -0.00808317611761
 1  8.93680216891689 -0.55993149934993  0.59348721242124
 1  10.30368792019202  0.10499303700370 -1.84294918441844
 1  9.21841682718272 -2.35977395389539 -2.00989691449145
 1  10.99856241194119 -2.39409619351935 -2.09977422132213
 1  10.27956084208421 -2.80204214621462 -0.48614805450545
 1  11.53266094699470  0.66803903410341  0.03306479397940
 1  11.29612266566657 -1.00963692499250  0.74335495709571
 1  13.17552087098710 -1.64363252445245 -0.93671133873387
 1  12.78776252875288  0.03157384838484 -1.64768813011301
 1  13.97955939263926  0.81623417941794  0.67258460146015
 1  13.94137689078908 -0.89039864456446  1.13623013951395
 1  15.18690197869787  0.38741822682268 -1.56910126812681
 1  15.63196063896390 -2.49584987708771 -0.03187464136414
 1  15.01037408810881 -2.06405878147815 -1.48083549864986
 1  16.77439706910691 -1.68215374027403 -1.40071154065407
 1  16.15334053475348  1.51629946364636  0.88493503780378
 1  16.65385983318331 -0.02338151325133  1.31734449564957
 1  18.09768070677068 -0.48181472887289 -0.55123846424642
 1  17.71940900540054  1.35929324822482 -1.03989756555656
 1  18.28034882748275  1.97459161686169  1.25416342164216
 1  18.76573373367337  0.62136631763176  1.68180818111811
 1  20.50216512921292  0.37322347054705 -0.02198513451345
 1  20.07499160576057  3.46525008690869 -0.60671426482648
 1  21.23971822392239  2.10014666746675 -1.48273963726373
 1  19.51300520492049  1.76078788958896 -1.71258822782278
 1  21.30634660986099  1.25816392549255  1.99375899309931
 1  22.15443715001500  2.09282051175118  0.79526449274927
 1  20.76206593649365  2.74007409070907  1.53814425492549

