%nproc=4
%Mem=2GB
# td=(NStates=1) CAM-B3LYP/6-31G(d,p) 

TD

0 1
12 -7.13300387338734  0.69299804790479  0.03072075947595
 6 -4.87468208620862 -1.96001718011801  0.61651818451845
 6 -4.71805173407341  2.89757820512051  1.07034339923992
 6 -9.44755949144914  3.06535203070307 -0.45337819751975
 6 -9.50202051575157 -1.70504601560156 -0.85604203330333
 7 -5.08526195079508  0.54058387648765  0.83126354465447
 6 -4.33707341344134 -0.64627444944494  0.81828985218522
 6 -2.91114011941194 -0.40238966466647  1.24425477967797
 6 -2.90450388878888  1.09522219051905  1.68890962166217
 6 -4.25306230113011  1.50343109190919  1.15994302420242
 6 -2.89163424552455  1.22510479857986  3.27567897679768
 6 -1.80260372137214 -0.55316057745775  0.12107606590659
 6 -0.45976339893989 -0.52490683788379  0.62128625792579
 6  0.45476661386139 -0.69597311021102 -0.59215459595960
 8  0.16619785988599 -0.95832123972397 -1.66938327002700
 8  1.70958276877688 -0.66057345374537 -0.18001479037904
 7 -7.13908435633563  2.57791338113811  0.39423811931193
 6 -6.03974325332533  3.34924590039004  0.72905643924392
 6 -6.35457271037104  4.70847513691369  0.78195888308831
 6 -7.72995570257026  4.83185381688169  0.32347073837384
 6 -8.14433870547055  3.40294949024903  0.03199574587459
 6 -5.39272722942294  5.80167263316332  1.04221898239824
 6 -8.49872767036704  5.99202023572357  0.05250223562356
 6 -8.42448633993399  7.22364848344835  0.66756300610061
 7 -9.09872214481448  0.70555341644164 -0.58995302900290
 6 -9.85351161086109  1.70884083718372 -0.76799312341234
 6 -11.18498759535954  1.48770710981098 -1.13319503900390
 6 -11.20264266816682  0.08191355545555 -1.20291900590059
 6 -9.93473915461546 -0.35989796409641 -0.96406142224222
 6 -12.32000082378238  2.57056762776278 -1.38732550735074
 6 -12.33697824412441 -0.75438284838484 -1.68868967746775
 6 -12.40846833523352 -1.11016342754275 -3.23359847844785
 7 -7.27226669496950 -1.35637525112511 -0.07781245824582
 6 -8.23154339413941 -2.21685685778578 -0.60135509070907
 6 -7.75068121372137 -3.64346261376138 -0.60907818511851
 6 -6.55357924202420 -3.51084542154215 -0.09719145104510
 6 -6.11196379277928 -2.16977525882588  0.17574037823782
 6 -8.62329979737974 -4.88085092749275 -0.91274975337534
 6 -5.25081955225523 -4.25127901140114  0.15351822442244
 8 -5.12126096399640 -5.58386286968697  0.17707473817382
 6 -4.17815139453945 -3.30086587638764  0.60243010831083
 6 -3.60936156705671 -3.78142336363636  1.99848022092209
 8 -3.87127872847285 -3.24675141134113  3.02776545764576
 8 -2.72397359105911 -4.80207492989299  1.76841542244224
 6 -2.25343593149315 -5.20173440254025  3.01841677717772
 6  2.77548005970597 -0.68993678827883 -1.26157735813581
 6  4.03662575157516 -0.45533370967097 -0.52951310031003
 6  5.13697718211821  0.39848611401140 -0.93125289798980
 6  5.08493691669167  1.21047369666967 -2.23853801910191
 6  6.33751808460846  0.39975182538254 -0.18080456565657
 6  7.51334887278728 -0.37855820272027 -0.84635158565857
 6  8.90021189378938 -0.13976910731073 -0.13766557935794
 6  10.11432205670567 -0.58425549724973 -0.89305027552755
 6  10.13018971917192 -2.09448038413841 -1.31477494249425
 6  11.42740561746175 -0.30179396019602 -0.08668780018002
 6  12.83123803150315 -0.35714976607661 -0.77332735563556
 6  13.96785625402540  0.01296009320932  0.11260832833283
 6  15.29618574347435  0.04434070497050 -0.56001424122412
 6  15.76909857875788 -1.42603023682368 -1.09324894259426
 6  16.34463856975698  0.53247760776078  0.50242474967497
 6  17.72843743314331  0.61564296269627 -0.07704351895190
 6  18.74912528202820  1.38658687568757  0.79000943394339
 6  20.20154882408241  1.26974730823082  0.25944070727073
 6  20.33503485728573  2.06552484968497 -1.01168216091609
 6  21.22667359815982  1.74311724802480  1.28701406480648
 1 -4.11673315781578  3.57270279167917  1.31537612451245
 1 -10.06913730643064  3.92044287928793 -0.82016740824082
 1 -10.31845513491349 -2.62242158295830 -1.19711636383638
 1 -2.53727018391839 -1.01826013991399  2.10849154035403
 1 -2.11282488768877  1.71741532413241  1.17866851725173
 1 -1.90785524302430  0.86093654655466  3.78105181868187
 1 -2.81718677867787  2.34297835533553  3.41827399279928
 1 -3.67256069876988  0.81658634263426  3.72391480428043
 1 -1.90020250515051 -1.48414837523752 -0.34635854505450
 1 -2.18496016851685 -0.14577732733273 -0.77961800140014
 1 -0.15250876827683  0.51639625352535  1.08934933403340
 1 -0.33042084408441 -1.13268778397840  1.48202215741574
 1 -5.63787256265627  6.64649329342934  0.47716342554255
 1 -5.55887287668767  6.27081044414441  2.11974827192719
 1 -4.38966292229223  5.62561372777278  1.08444161976198
 1 -9.33718577107711  5.85826197429743 -0.71387161536154
 1 -9.22981419731973  8.07083782268227  0.48891851365136
 1 -7.54112357815782  7.45654205370537  1.26649503500350
 1 -12.06630073517352  3.15799612561256 -2.15850885558556
 1 -13.28433810301030  2.00557444864486 -1.46325751725173
 1 -12.53075480658066  3.24154280898090 -0.40912215621562
 1 -12.10736551495149 -1.60001944704470 -1.11337629252925
 1 -13.27772649154915 -0.40876761356136 -1.36843237073707
 1 -13.21591794439444 -1.62173685988599 -3.58371825632563
 1 -12.40748431263126 -0.10785532313231 -3.60589408510851
 1 -11.45042132143215 -1.94360922802280 -3.28797741774177
 1 -9.18877848084809 -4.71796253915392 -1.86612987708771
 1 -7.94600396519652 -5.82506251045104 -0.83541315431543
 1 -9.28937882278228 -5.00606562786279  0.03857203460346
 1 -3.38881957785779 -3.33174642534253 -0.42635790729073
 1 -1.68842700920092 -4.35245168486849  3.41596451175117
 1 -2.81620122872287 -5.63434505210521  3.80534337323732
 1 -1.59734784628463 -5.93312258545855  2.80921487438744
 1  2.75578488258826 -1.72160399629963 -1.58551251625163
 1  2.45887336493649  0.11160544014401 -1.80673382558256
 1  4.12530343594359 -1.06339855505551  0.25498871487149
 1  4.07596656015602  1.40775948634863 -2.45566393609361
 1  5.55615102680268  2.26112637153715 -1.82034850305031
 1  5.65524283188319  0.80720182768277 -3.12130086108611
 1  6.57793985688569  1.35566956695670  0.25554819761976
 1  6.10418453785379 -0.23411144854485  0.63576329302930
 1  7.21340872557256 -1.57163639883988 -0.94251557515752
 1  7.51473390929093 -0.09321611351135 -1.98739166276628
 1  8.93669572117212  1.01533941894189  0.13538117031703
 1  8.73123161186119 -0.79692519871987  0.75791365506551
 1  10.25435298669867 -0.14374183648365 -1.81923681318132
 1  9.44314930043004 -2.36646462296230 -1.95375129992999
 1  11.10159271497150 -2.04818160206021 -2.10007425132513
 1  10.32100498649865 -2.85617755975598 -0.60664010371037
 1  11.41621930283028  0.69828205840584  0.33673516101610
 1  11.46143919731973 -1.06558251955195  0.66151677327733
 1  13.01808512741274 -1.52368052925292 -1.22208987658766
 1  12.52866661916192  0.20565125612561 -1.57729109040904
 1  13.58895033173317  0.92624518051805  0.71424876787679
 1  13.91220397349735 -0.66992659735974  0.96021253775378
 1  15.58222151065107  0.88046753175317 -1.45998035603560
 1  15.90520796369637 -2.21404169626963 -0.36177763166317
 1  14.88308135883588 -1.82036441204120 -1.79878729382938
 1  16.74058368776878 -1.33402892779278 -1.82640410991099
 1  15.98018321902190  1.49587742144214  0.88971551585159
 1  16.29801424862486 -0.18643781888189  1.22611537273727
 1  18.13539447814782 -0.15382192959296 -0.30222356275628
 1  17.82924998949895  1.11528884778478 -1.11581515731573
 1  18.57025781838184  2.42260641834183  0.80912891819182
 1  18.70334749504951  0.86983116411641  1.80666066636664
 1  20.43175808850885  0.22676882508251  0.09543660766077
 1  19.95535964256425  3.04731829372937 -0.86550014341434
 1  21.38399265136514  2.05727238003800 -1.30240160346035
 1  19.72307621202120  1.60945275607561 -1.81303827282728
 1  21.09144511971197  1.20653876297630  2.27440705790579
 1  22.30384209050905  1.50180140984098  0.87881284758476
 1  21.00687041694169  2.74723480678068  1.64109454995500

