%nproc=4
%Mem=3GB
# td=(NStates=1) iop(3/107=0140000000,3/108=0140000000) CAM-B3LYP/6-31G(d,p) 

TD

0 1
12 -7.11338603030303  0.63180156365637  0.10963733373337
 6 -4.74170298679868 -1.93961119171917  0.43578898129813
 6 -4.70974700530053  2.84234295219522  1.11434153935394
 6 -9.45187195169517  3.12127968096810 -0.38725120042004
 6 -9.50109620762076 -1.77842960866087 -0.81696850175017
 7 -5.11423845504550  0.43472956355636  0.73735155915592
 6 -4.31637388468847 -0.72057320052005  0.87491538623862
 6 -2.89712593319332 -0.37140553855386  1.15396106520652
 6 -3.06014924182418  1.07627632923292  1.83669994929493
 6 -4.38157839253925  1.43098774987499  1.19909430333033
 6 -2.98931511231123  1.07291011031103  3.34473978857886
 6 -1.93517924762476 -0.46238222742274 -0.07080327002700
 6 -0.56402211141114 -0.37889113711371  0.49727310961096
 6  0.50725264846485 -0.56413303520352 -0.61674146424642
 8  0.26500671747175 -1.07021079877988 -1.75172256535654
 8  1.77972657105711 -0.35554549294929 -0.22810819841984
 7 -7.03923156655666  2.64975818571857  0.20328125222522
 6 -6.07780792459246  3.35647941534153  0.72402827892789
 6 -6.37115202360236  4.76356321992199  0.72829108780878
 6 -7.73313809910991  4.84273607880788  0.26408253465347
 6 -8.06297582508251  3.42559949874987  0.03384138273827
 6 -5.48581061496150  5.86512598629863  1.15351550675068
 6 -8.58475848384838  6.03446371597160  0.06491710421042
 6 -8.51713012301230  7.15851500120012  0.75236929622962
 7 -9.04567360846085  0.67946494089409 -0.51591816571657
 6 -9.84601208750875  1.85504882918292 -0.70907372087209
 6 -11.18852280498050  1.47724716921692 -1.19221408110811
 6 -11.17498698589859  0.09070661646165 -1.15308533683368
 6 -9.86577418101810 -0.38312850625062 -0.86531873317332
 6 -12.19813075077508  2.47875311671167 -1.53372282498250
 6 -12.35823961686169 -0.80201632543254 -1.66461579217922
 6 -12.26962887178718 -1.13599379167917 -3.14010466166617
 7 -7.25099806220622 -1.35566040174017 -0.02205488058806
 6 -8.29588391469147 -2.20991953745375 -0.41953353325333
 6 -7.84529656945695 -3.63203375477548 -0.42176247604760
 6 -6.54365215571557 -3.51142412451245 -0.16986906860686
 6 -6.16103983568357 -2.21112906870687  0.10230206560656
 6 -8.59476181568157 -4.88532463086309 -0.91287467056706
 6 -5.32960842374237 -4.32077564096410  0.18669364346435
 8 -5.26632762506251 -5.61465832283228  0.06538248684868
 6 -4.12149665226523 -3.32908035543554  0.52960128172817
 6 -3.66046022282228 -3.72466040874087  1.91844781328133
 8 -3.84367715111511 -3.23375073297330  3.01828518671867
 8 -2.79951530433043 -4.80485910441044  1.80622966046605
 6 -2.13420237723772 -5.33132833873387  3.02145954635464
 6  2.74832115251525 -0.38432672157216 -1.35942946014601
 6  4.12144302950295 -0.32956822472247 -0.69514207700770
 6  5.17956344764476  0.44149067706771 -1.01152402940294
 6  5.09830355595559  1.54625230053005 -2.10008414341434
 6  6.36070234893489  0.39477009300930 -0.19234975937594
 6  7.72527397999800 -0.08076662466247 -0.82775310401040
 6  8.93664137573757 -0.19295111121112  0.05736963456346
 6  10.16396185678568 -0.52700436363636 -0.83193891389139
 6  10.18597187378738 -1.98789666956696 -1.28400536653665
 6  11.40167483128313 -0.19625451655166  0.00342237973797
 6  12.70707844334433 -0.43386341984198 -0.70557806290629
 6  13.92393366516652 -0.16311202550255  0.05159157075708
 6  15.26703269426943 -0.28887797139714 -0.57156280878088
 6  15.65502177317732 -1.66567495579558 -1.02635446174617
 6  16.36610360306031  0.37132364966497  0.37265199989999
 6  17.83126071377138  0.51665539513951 -0.19618614561456
 6  18.75126554515451  1.26302438093809  0.76565982268227
 6  20.20917372177218  1.21788122062206  0.26260296629663
 6  20.45250809660966  1.91884919001900 -1.09372406830683
 6  21.06252131913191  1.84613631353135  1.31268520852085
 1 -4.10683104660466  3.54445769716972  1.43500959675968
 1 -10.12948507180718  3.95506778127813 -0.44584911111111
 1 -10.35352977707771 -2.57882341744174 -1.40844866426643
 1 -2.51821910911091 -1.18572877557756  1.86376286698670
 1 -2.24304777107711  1.81584364546455  1.37736138513851
 1 -1.87094018041804  0.76686579297930  3.73070340774077
 1 -3.22074918401840  2.03610283308331  3.78501652385239
 1 -3.71912471297130  0.44261941624162  3.80911259645965
 1 -2.18592371137114 -1.29598026882688 -0.61041904900490
 1 -2.13037940694069  0.40332795259526 -0.76088282288229
 1 -0.48547397609761  0.52976256355636  0.97108097109711
 1 -0.19963838413841 -1.08579934653465  1.15713917221722
 1 -5.55646982468247  6.76303381538154  0.39086891819182
 1 -5.66193766506651  6.06232911431143  2.29484149664966
 1 -4.47226207080708  5.47920218821882  1.00785151775178
 1 -9.27725798559856  5.72996637863786 -0.84457581028103
 1 -9.12489155285529  7.77044676567657  0.25799557525753
 1 -7.71265919801980  7.63226006240624  1.33778273857386
 1 -12.02714318731873  2.95816496359636 -2.55330116161616
 1 -13.35248254595460  1.91901064346435 -1.46372210041004
 1 -12.20905193789379  3.26885421952195 -0.66258669816982
 1 -12.17290925582558 -1.59571049384938 -0.98641214211421
 1 -13.33072537163716 -0.34791750225023 -1.14802055645565
 1 -13.15643084228423 -1.73509717181718 -3.59130008810881
 1 -11.95705611131113 -0.45760423172317 -3.94205318371837
 1 -11.38607344674467 -1.91072209940994 -3.00578885708571
 1 -8.71659627822782 -4.82491899269927 -1.99379544254425
 1 -7.96080046524652 -5.78570452375238 -0.72484243934393
 1 -9.53951813081308 -4.73766221462146 -0.41522379107911
 1 -3.13549106760676 -3.37856446204620 -0.12093983208321
 1 -1.86059944754475 -4.23912612601260  3.66112783038304
 1 -3.03469990729073 -5.67608713361336  3.54663570127013
 1 -1.36634715521552 -5.95000578537854  2.81159452055206
 1  2.49213726852685 -1.22623924672467 -1.68869031773177
 1  2.63644008530853  0.42694077887789 -2.05631668916892
 1  4.21221170787079 -1.11196961076108  0.22534393459346
 1  4.20458577007701  1.54836037873787 -2.35000548624863
 1  5.44272120432043  2.49320974487449 -1.75738317671767
 1  5.66714628312831  1.29646083698370 -3.10592684958496
 1  6.92147033093309  1.47951793239324  0.11639125302530
 1  6.17743561566157 -0.27915525222522  0.65593178867887
 1  7.53650577337734 -1.10956162916292 -1.44579933713371
 1  7.76466902540254  0.66954605760576 -1.59446026892689
 1  9.02897894219422  0.78957845534553  0.47737016511651
 1  8.76588970977098 -0.79703805650565  0.85974209760976
 1  10.19880451225123  0.12121826962696 -1.63318847684768
 1  9.25618522762276 -2.14065234873487 -1.78479686158616
 1  10.96148528912891 -2.20095349464946 -1.93188854695470
 1  10.40131232833283 -2.51035515021502 -0.47741513521352
 1  11.47863950555055  0.94161059445945  0.37018478927893
 1  11.35629322482248 -0.90884218181818  0.90613693379338
 1  12.53427137963797 -1.56655407470747 -0.82567483898390
 1  12.59925575547555  0.00558549454946 -1.59893422712271
 1  13.84880630093009  0.73573893719372  0.53099792849285
 1  13.78497680828083 -0.89399577847785  0.92603497749775
 1  15.14400480188019  0.30846424342434 -1.34910617941794
 1  15.74537833463346 -2.26361570277028 -0.05405354085409
 1  14.84672631703170 -2.11512603260326 -1.70970234373437
 1  16.59709798939894 -1.55617651465147 -1.47426393969397
 1  16.04487776127613  1.32776110981098  1.01127704400440
 1  16.26962103990399 -0.41190747554755  1.31179967466747
 1  18.18077481518152 -0.46389290329033 -0.44674487008701
 1  17.65390269986998  1.24609350345035 -1.01806755035503
 1  18.25496455335534  2.16603787178718  0.95806775357536
 1  18.74496045854585  0.59075391489149  1.63293653915392
 1  20.52871270357036  0.01597259485949  0.08916480868087
 1  19.84351116961696  2.86231700820082 -0.85761794649465
 1  21.48343214401440  2.12190333243324 -1.23159114031403
 1  19.93518191579158  1.35636592679268 -1.87867625202520
 1  21.26126998049805  1.07534317521752  2.20627429622962
 1  22.23395128792879  1.83613408410841  0.95989264286429
 1  20.79606968546855  2.92987910511051  1.71596873357336

