%nproc=4
%Mem=2GB
# td=(NStates=1) CAM-B3LYP/6-31G(d,p) 

TD

0 1
12 -7.14795536853685  0.58931767986799  0.09366705410541
 6 -4.92790740874087 -1.89588076647665  0.39072560526053
 6 -4.79252918181818  2.86899534683468  1.06410277517752
 6 -9.42554729022902  3.09168466396640 -0.28605146484648
 6 -9.62008232193219 -1.80776628762876 -0.85508193729373
 7 -5.05668909350935  0.39027884598460  0.55975639393939
 6 -4.31421112721272 -0.68216803880388  0.62987101030103
 6 -2.88630763616362 -0.37626705240524  1.09362971717172
 6 -3.02354579297930  1.06512918121812  1.57669840054005
 6 -4.37806480138014  1.50470121892189  1.11262829272927
 6 -3.06742182428243  1.22215450355036  3.18030943984398
 6 -1.84530799179918 -0.60681594299430  0.02247620592059
 6 -0.47026444904490 -0.31483583078308  0.39252338163816
 6  0.50087122432243 -0.52575608850885 -0.60234561506151
 8  0.36905814591459 -0.85936134373437 -1.77810414211421
 8  1.77205901640164 -0.39810720712071 -0.18225501440144
 7 -7.09205965386539  2.55473106290629  0.33581227672767
 6 -5.98954823382338  3.36846782258226  0.76362989658966
 6 -6.41960921402140  4.72741703110311  0.74817550475048
 6 -7.81000370737074  4.83927455895590  0.35800419171917
 6 -8.13854812641264  3.42085128042804  0.10267281358136
 6 -5.49344730143014  5.80870333623362  1.20289505000500
 6 -8.64821261886189  5.99232026572657  0.21138812421242
 6 -8.62305619691969  7.11296741534153  0.87809405920592
 7 -9.13346561916192  0.59493235433543 -0.42316635033503
 6 -9.89727598729873  1.78592854595460 -0.64108043214321
 6 -11.25774487108711  1.37787612671267 -1.18538025752575
 6 -11.26390879477948  0.07642300640064 -1.21681039503950
 6 -10.01136681738174 -0.41028300260026 -0.79725474157416
 6 -12.35677450115011  2.40702127312731 -1.45770254505451
 6 -12.38101264756476 -0.88212562266227 -1.69570037853785
 6 -12.22870035843584 -1.06942935413541 -3.29362448104810
 7 -7.28634810311031 -1.38798841244124 -0.28432310931093
 6 -8.33411365116512 -2.23550872297230 -0.53799875507551
 6 -7.77496364196420 -3.64655292279228 -0.38784606190619
 6 -6.50442432653265 -3.60110444744474 -0.06361809370937
 6 -6.26229882628263 -2.18321660296030  0.09656246044604
 6 -8.54096156355635 -4.93574641704170 -0.76356483488349
 6 -5.25816028632863 -4.35963984748475  0.10760363296330
 8 -5.13552239013901 -5.53737822122212  0.10142717341734
 6 -4.14118769816982 -3.23320911071107  0.51956182148215
 6 -3.54407503840384 -3.56571179247925  1.96181655455546
 8 -3.87343894449445 -2.99433616981698  2.93208588968897
 8 -2.83667486118612 -4.70998572097210  1.84417299819982
 6 -2.34281486938694 -5.22553678277828  3.04738967446745
 6  2.76995950765077 -0.47574536913691 -1.19862106250625
 6  4.09278136713671 -0.31335951225123 -0.58740888988899
 6  5.20341382578258  0.43112937833783 -0.99546931963196
 6  5.09362778577858  1.40808345764576 -2.12258642394239
 6  6.48679301210121  0.45575742594259 -0.22062854805481
 6  7.69598713661366 -0.04974532143214 -0.92648959945995
 6  9.00991286388639  0.00694556415642  0.04120230743074
 6  10.25010563506351 -0.57115418711871 -0.77033800430043
 6  10.14345104530453 -2.14334527062706 -0.89883334833483
 6  11.49191206810681 -0.29942372317232  0.05865673427343
 6  12.78158306600660 -0.47457150825083 -0.60159018191819
 6  14.05216468486849 -0.14534573737374  0.22570963846385
 6  15.34350047494750 -0.26079980908091 -0.54361260106011
 6  15.60298196709671 -1.66680431423142 -0.85770538823882
 6  16.51494560046005  0.25788014801480  0.36015052225223
 6  17.93591818121812  0.44863626202620 -0.19139495409541
 6  18.83101347084709  1.28294651165117  0.62776320932093
 6  20.33706237543754  1.26640697419742  0.24208897209721
 6  20.38852020582058  1.87212550975098 -1.27604859755976
 6  21.21612254305431  2.03687662396240  1.24069943334333
 1 -4.10451193569357  3.56700222162216  1.30565515241524
 1 -10.04774516721672  3.85491632663266 -0.58990438193819
 1 -10.36850013941394 -2.42838217901790 -0.96201285348535
 1 -2.73585004190419 -0.86407472137214  2.03480417161716
 1 -2.25255886108611  1.83124670727073  1.32699334973497
 1 -2.04866932443244  0.85945639853985  3.61126483998400
 1 -3.19870493049305  2.30003406090609  3.59694185958596
 1 -3.92109555225523  0.39266395039504  3.59526193899390
 1 -2.14295678057806 -1.60526048644865 -0.40813472267227
 1 -2.06663833633363  0.04546179657966 -0.81190122972297
 1 -0.45053857125713  0.64072868676868  0.91402180128013
 1 -0.41878968096810 -0.97071158635864  1.24004795999600
 1 -5.89152792819282  6.65206385048505  0.82282799199920
 1 -5.29801679107911  5.81740510361036  2.28942523962396
 1 -4.41550550655066  5.71224239063906  0.84070724632463
 1 -9.65632768526853  5.81052720082008 -0.34565479367937
 1 -9.37466868276828  7.99786052495249  0.90240986278628
 1 -7.77015648144815  7.32289868936894  1.77329571507151
 1 -11.95029913501350  2.95056538253825 -2.15385839053905
 1 -13.26971664086409  1.88251214241424 -1.93769496099610
 1 -12.61920365146515  3.13547220192019 -0.72161340534053
 1 -12.25228000640064 -1.83250269536954 -1.22535749064906
 1 -13.35885460436044 -0.53525026182618 -1.50049557705771
 1 -13.01996834943494 -1.79292397859786 -3.58230811531153
 1 -12.31331489568957 -0.07562209980998 -3.92392588828883
 1 -11.12282856215622 -1.48780364746475 -3.62504112411241
 1 -8.95343494649465 -5.11537228012801 -1.83914717881788
 1 -7.77846721152115 -5.85524552875288 -0.60406001900190
 1 -9.36001588648865 -5.09048406970697  0.07336551395139
 1 -3.41998269416942 -3.46205945664567 -0.27045231673167
 1 -1.65680384688469 -4.58151459115912  3.48266118141814
 1 -3.45112472107211 -5.22167378497850  3.87758059695970
 1 -1.80488860036004 -6.21881115431543  2.88691264416442
 1  2.81737104120412 -1.60762259815982 -1.70643460846085
 1  2.59070654825483  0.31847612721272 -1.98586173837384
 1  4.33147405300530 -0.94935715091509  0.20485370137014
 1  4.12507147064706  1.35634434483448 -2.56983535323532
 1  5.17487289898990  2.33096335523552 -1.84035050325033
 1  5.93104041164116  1.30355146264626 -2.96537526852685
 1  6.55700776367637  1.47874187418742  0.04280692349235
 1  6.30081420082008 -0.17412544994499  0.73296301300130
 1  7.72705008970897 -1.12638187338734 -1.14044536813681
 1  8.18364079998000  0.37738094619462 -1.84543746734673
 1  8.94510656225622  0.98629651465147  0.28752638483848
 1  8.71932042074207 -0.75995150135014  0.79926779047905
 1  10.27173472487249 -0.15166262856286 -1.73029791929193
 1  9.08962394789479 -2.38401637813781 -1.42523844864486
 1  10.91749430513051 -2.62700948484848 -1.46318056195620
 1  10.09083196919692 -2.57394933693369  0.06720728102810
 1  11.39737741864186  0.83196542674267  0.31445293279328
 1  11.40749380278028 -0.97084304560456  0.85565618721872
 1  12.86540985988599 -1.55639380058006 -0.73736140374037
 1  12.87120087258726  0.08514920592059 -1.64674803610361
 1  13.82751418811881  0.99613216921692  0.41680902390239
 1  14.03252600570057 -0.79511911661166  0.99732624912491
 1  15.30133342184218  0.48202768776878 -1.33832819081908
 1  15.40819826272627 -2.36146643874387 -0.06913836773677
 1  15.10156320702070 -2.15636801240124 -1.69770718581858
 1  16.78576820622062 -1.92363788868887 -1.17232870237024
 1  16.18112331303130  1.30008784248425  0.57067361166117
 1  16.50738518571857 -0.17100627572757  1.20683344454445
 1  18.32488342704270 -0.59761630903090 -0.26205954635464
 1  17.65248231273127  0.90605792469247 -1.07769134493449
 1  18.40417120972097  2.16892104980498  0.51917992329233
 1  18.84113127342734  0.91382556355636  1.51400140044004
 1  20.61450636333633  0.21722787098710  0.06950401440144
 1  20.42225633223322  3.09629319121912 -1.34573816721672
 1  21.37094134623462  1.76874352715271 -1.77654901820182
 1  19.46907081148115  1.54674648544855 -1.97102407140714
 1  21.31591756695670  1.67245535463546  2.09476909410941
 1  22.33358506480648  2.17604883458346  0.96716168246825
 1  20.81056078597860  3.19480956425643  1.25657609810981

