%nproc=4
%Mem=2GB
# td=(NStates=1) CAM-B3LYP/6-31G(d,p) 

TD

0 1
12 -7.10061063406341  0.58740748884888  0.10132782018202
 6 -4.79958457645765 -1.94432561096110  0.55775230793079
 6 -4.84229415831583  2.88534698199820  1.24126049094909
 6 -9.47838257375738  3.06464195969597 -0.35166802650265
 6 -9.46874718841884 -1.72325783678368 -0.83269969906991
 7 -5.06295972057206  0.47601741984198  0.79731014931493
 6 -4.35889559565957 -0.62847266926693  0.83007103030303
 6 -2.87670667606761 -0.29731915761576  1.24647500170017
 6 -3.02465590399040  1.15835850415042  1.66902763346335
 6 -4.38901589648965  1.52210295909591  1.24466149604960
 6 -3.16520160226023  1.23713600170017  3.27732914181418
 6 -2.03702716371637 -0.41924718611861 -0.01361740344034
 6 -0.50861828442844 -0.35130947814781  0.46514064336434
 6  0.45287642484248 -0.57522103500350 -0.56351173167317
 8  0.24235547564756 -1.00895630323032 -1.74137046874687
 8  1.79098090859086 -0.47232462886289 -0.11525831473147
 7 -7.14294474237424  2.63548913871387  0.29837853335334
 6 -6.08133741274127  3.39966094189419  0.72980651425143
 6 -6.47721497459746  4.72907719711971  0.76478716591659
 6 -7.75245795279528  4.90484111561156  0.29445783708371
 6 -8.23911818341834  3.53591278657866  0.08498104440444
 6 -5.51691964866487  5.86021848774878  1.16754151465147
 6 -8.65345314291429  5.99413044674468  0.04552153755376
 6 -8.41373526482648  7.16901301990199  0.72032828262826
 7 -9.02042431503150  0.70120298139814 -0.60014404810481
 6 -9.81062732243224  1.81214116721672 -0.71350767486749
 6 -11.13924302090209  1.46924526362636 -0.97932965246525
 6 -11.19929233313331  0.09494485858586 -1.17836655065507
 6 -9.85990167086709 -0.37895987028703 -0.86711172727273
 6 -12.33012183588359  2.43580415141514 -1.29335611041104
 6 -12.34861940824082 -0.76971438153815 -1.69559036753675
 6 -12.15667315571557 -1.09234164536454 -3.16442156075608
 7 -7.13573304160416 -1.44689430303030 -0.19114379137914
 6 -8.21753199299930 -2.23787895999600 -0.56424137933793
 6 -7.76647279287929 -3.62523079057906 -0.57558483578358
 6 -6.42149603370337 -3.56293063006301 -0.15973770567057
 6 -6.11547414381438 -2.21428971027103  0.04794759895990
 6 -8.60217768516852 -4.73198604100410 -0.91325980438044
 6 -5.28565303560356 -4.34615849934993  0.08228110071007
 8 -5.18466730463046 -5.55893037643764  0.16281331203120
 6 -4.14396797619762 -3.32159794959496  0.49919978527853
 6 -3.54674530543054 -3.74287950925093  1.86128650155015
 8 -3.82832443304330 -3.20148688488849  2.83548622972297
 8 -2.66624781848185 -4.74138886128613  1.75644422532253
 6 -2.17768835673567 -5.18270249934993  3.09253418891889
 6  2.79360187188719 -0.72521031563156 -1.17068826922692
 6  4.13042513151315 -0.52206038233823 -0.55573572257226
 6  5.15692917731773  0.13830009540954 -1.07329710241024
 6  5.02402082508251  0.97070972027203 -2.32887705300530
 6  6.40609494229423  0.23654550475048 -0.24743122832283
 6  7.68412595049505 -0.19095944284428 -1.01972892339234
 6  8.86416828942894 -0.16514164456446 -0.12657447024702
 6  10.19101972647265 -0.51700877257726 -0.84828579907991
 6  10.16312301250125 -1.98254919101910 -1.31784524952495
 6  11.27632050895090 -0.19571335213521  0.07787865646565
 6  12.75473038073807 -0.44000805190519 -0.61520154305431
 6  13.98528799719972 -0.08285948874887  0.32064913241324
 6  15.29617574247425 -0.16716044514451 -0.54592283208321
 6  15.47436910581058 -1.68188582238224 -0.72656227392739
 6  16.45300940684069  0.47611197119712  0.35567007420742
 6  17.87577216661666  0.55830722912291 -0.17536335093509
 6  18.88641901140114  1.26023424042404  0.76314674767477
 6  20.28109677887789  1.34565489898990  0.13905866906691
 6  20.37909926372637  2.16288458565857 -1.10163115581558
 6  21.16993792459246  1.96287922422242  1.24891025442544
 1 -4.17869935443544  3.57152267366737  1.80293488038804
 1 -10.25491588428843  3.71356219121912 -0.47492288378838
 1 -10.23507679707971 -2.33211255205521 -1.30120677287729
 1 -2.34995145204520 -0.99504781868187  1.91955264646465
 1 -2.23871747694769  1.87273085568557  1.36787743814381
 1 -2.17602205970597  1.08436888978898  3.64621833533353
 1 -3.53569862986299  2.13643770127013  3.64252641804180
 1 -3.78629207190719  0.29702438643864  3.47496990979098
 1 -2.36810929582958 -1.44540450085009 -0.22932684188419
 1 -2.22994466696670  0.37801505190519 -0.81624166376638
 1 -0.25663918131813  0.60307492139214  0.80564096319632
 1 -0.42299010101010 -0.95207972317232  1.31249520472047
 1 -5.76342511791179  6.79250789488949  0.50483619281928
 1 -5.37824481388139  6.22747611071107  2.21380767786779
 1 -4.44058801480148  5.62270343674367  0.85039821542154
 1 -9.10853290579058  5.76876302440244 -0.73657388558856
 1 -9.15393660956096  8.06162690159016  0.40645026682668
 1 -7.58982844864486  7.22237863736374  1.42424080958096
 1 -12.27215132023202  2.90641096709671 -2.41920492519252
 1 -13.29007867706771  1.80135402660266 -1.30081127262726
 1 -12.12638436953696  3.32409106380638 -0.53662490649065
 1 -12.32520729912991 -1.73497294239424 -1.05271022592259
 1 -13.45198391729173 -0.38435517231723 -1.48563409090909
 1 -13.15168152075208 -1.45407009320932 -3.61975185968597
 1 -11.87602116631663 -0.19384392199220 -3.94874837053705
 1 -11.22662894219422 -1.88372323942394 -3.09964858485849
 1 -9.13203280628063 -4.63923466636664 -1.86860012411241
 1 -7.99130849564956 -5.51377138133813 -0.93706331933193
 1 -9.32415230013001 -4.88421344264427 -0.06685850845084
 1 -3.24113480938094 -3.51884513521352 -0.11662693419342
 1 -1.96771493799380 -4.36748318801880  3.87032994829483
 1 -3.21914152275228 -5.54059567716772  3.56772961186119
 1 -1.43657176867687 -5.85334460766077  3.00127408030803
 1  2.58847815191519 -1.80345218111811 -1.41468543354335
 1  2.58185566316632 -0.12325804620462 -2.14078723092309
 1  4.54488539413941 -1.08277049224922  0.40157337333733
 1  4.13337230073007  1.02320103050305 -2.63959232893289
 1  5.49314472617262  2.03684394329433 -2.11533800200020
 1  5.65968327592759  0.52902400990099 -3.14684341534153
 1  6.56511857475747  1.38000200020002 -0.07505486268627
 1  6.30689480888089 -0.29180721812181  0.72011172787279
 1  7.34116150085008 -1.14268350355035 -1.60074139773977
 1  7.89077151305130  0.59912312041204 -1.83171609520952
 1  8.95814786638664  0.78120600560056  0.32820045224522
 1  8.72036052475248 -0.89443494969497  0.74836269997000
 1  10.07080463186318  0.12000453815382 -1.91754664416442
 1  9.20322530803080 -2.16161413791379 -1.72918884368437
 1  10.96872942864286 -2.32373915781578 -1.92853709760976
 1  10.21058394439444 -2.85635757775778 -0.35378481818182
 1  11.32463014391439  0.90053228342834  0.49741122862286
 1  11.24586764016402 -0.87024298559856  0.98105872747275
 1  12.84415773467347 -1.36982514371437 -0.90407807540754
 1  12.65377913041304  0.18059875087509 -1.50931429272927
 1  13.88301973867387  1.06236879287929  0.72705004800480
 1  14.06249900300030 -0.96314591929193  1.02340885738574
 1  15.17894118261826  0.43420290529053 -1.58614297229723
 1  15.59124656755676 -2.24108440054005  0.17130567666767
 1  14.86086913761376 -2.21716409200920 -1.39057647274727
 1  16.45792542194220 -1.87640316521652 -1.29584105360536
 1  16.04538973967396  1.28993682738274  0.59294583888389
 1  16.34608905610561 -0.10125930103010  1.24212697389739
 1  18.23457439613961 -0.46542308970897 -0.53217655805581
 1  17.86082314681468  1.06915423432343 -1.25960953675368
 1  18.36842763536354  2.24139829752975  1.16132413771377
 1  18.94964212451245  0.55988016901690  1.63870387068707
 1  20.45888080078008  0.30403655185519 -0.17080001600160
 1  19.97401150775077  3.13906746864686 -0.97451104450445
 1  21.26865111721172  2.21650830363036 -1.64552591589159
 1  19.82276618101810  1.64793660446045 -1.91327829682968
 1  21.38281425662566  1.35917402650265  2.20821043824382
 1  21.99362106840684  2.15712694239424  0.61188615491549
 1  20.56535626552655  3.04259434273427  1.39088952945295

