%nproc=4
%Mem=2GB
# td=(NStates=1) CAM-B3LYP/6-31G(d,p) 

TD

0 1
12 -7.12580315331533  0.62738148624862  0.00384807220722
 6 -4.82493711171117 -2.00537171557156  0.60101663436344
 6 -4.78422835173517  2.84923337063706  1.16061242614261
 6 -9.34914965046505  3.15745124062406 -0.43242610231023
 6 -9.58291860556056 -1.79423493449345 -0.84191062016202
 7 -5.05123854845485  0.41279109720972  0.79319973827383
 6 -4.27531723782378 -0.74076389838984  0.80292831603160
 6 -2.99687869326933 -0.36891631733173  1.17369772397240
 6 -2.99173261166117  1.07326999529953  1.66565729642964
 6 -4.33348034293429  1.50827157595760  1.19852688258826
 6 -2.94410949304931  1.13890617871787  3.25053646254625
 6 -1.92409587058706 -0.72607786918692 -0.02231827352735
 6 -0.43418084068407 -0.43005735293529  0.41897602690269
 6  0.48560969816982 -0.80990450335034 -0.62552793329333
 8  0.24358559865987 -1.14580998859886 -1.78768510021002
 8  1.79467127762776 -0.57131452785279 -0.24429121802180
 7 -7.01421186908691  2.66889247904790  0.19267796329633
 6 -5.97080635963596  3.36608758455846  0.74665819941994
 6 -6.38538579167917  4.73154744414441  0.76285697289729
 6 -7.53956666366637  4.81625225672567  0.27374576587659
 6 -8.06781105270527  3.47291648694870  0.06885943224322
 6 -5.33859181588159  5.84546701260126  1.15762052255226
 6 -8.45173297089709  6.15293632733273  0.04297128252825
 6 -8.43219711101110  7.15712183078308  0.82571882168217
 7 -9.10390266286629  0.61684454555456 -0.64162819651965
 6 -9.82071833153315  1.79471942504250 -0.64290061416142
 6 -11.19767886448645  1.51746008510851 -1.13107482698270
 6 -11.17501990589059  0.17017238133813 -1.30818953295330
 6 -9.88991467216722 -0.47763973827383 -0.92589760586059
 6 -12.35049387308731  2.47689826082608 -1.25326210101010
 6 -12.43188773507351 -0.67372478257826 -1.61697250575058
 6 -12.45518300670067 -0.81103351455145 -3.18787390599060
 7 -7.30617008530853 -1.46229584318432 -0.12100677767777
 6 -8.35786602640264 -2.27852302440244 -0.44478943414341
 6 -7.91887803340334 -3.62666093359336 -0.44511178847885
 6 -6.55524940904090 -3.63599793679368 -0.07065879777978
 6 -6.21229382578258 -2.21102938423842  0.18578138233823
 6 -8.74895236263626 -4.81096393879388 -0.86805528392839
 6 -5.33346781708171 -4.41043492699270  0.26427930053005
 8 -5.09779861776178 -5.64212869626963  0.27509454015402
 6 -4.16316989638964 -3.34756054585459  0.56876674197420
 6 -3.53992462336234 -3.65618083938394  1.86668704160416
 8 -3.76754835543554 -3.19585632183218  2.99353203430343
 8 -2.77999919361936 -4.75505022742274  1.70248882978298
 6 -2.17163775167517 -5.10898512761276  2.92866780228023
 6  2.67730024172417 -0.90347814241424 -1.23664486488649
 6  4.08471056005601 -0.55240341664166 -0.67977812681268
 6  4.98258174257426  0.38549481488149 -1.13045281798180
 6  4.95850427342734  1.21686433573357 -2.28568273357336
 6  6.33982831563156  0.49371122132213 -0.30443692889289
 6  7.67340487838784 -0.09270961786179 -0.94743169366937
 6  8.93470534313431  0.06500136973697 -0.11937375017502
 6  10.20388101260126 -0.49988706040604 -0.88978994949495
 6  10.20057675787579 -1.92290322642264 -1.19801326632663
 6  11.38293117001700 -0.15568934973497  0.07194806340634
 6  12.73266817451745 -0.44351840294029 -0.67493751665167
 6  13.99010847924792 -0.13894509730973  0.20695776327633
 6  15.40112623752375 -0.21421515061506 -0.48020626042604
 6  15.66053772267227 -1.63176080988099 -0.82913253095310
 6  16.43269737563756  0.33465782578258  0.49640414761476
 6  17.81280586998700  0.61828322672267 -0.08761457605761
 6  18.78152852235224  1.38725694269427  0.88069850285029
 6  20.20022869206921  1.38190852435244  0.21405616881688
 6  20.33670502430243  2.09141743894389 -1.07001799449945
 6  21.18335926672667  2.03124606090609  1.22897826122612
 1 -3.91455293979398  3.58048356975698  1.54695928282828
 1 -10.09070946364636  4.14695553055306 -0.26801219271927
 1 -10.40760404980498 -2.61971131193119 -1.14789144134413
 1 -2.76453291019102 -0.98771708560856  1.86553724492449
 1 -2.21987559275928  1.54461804440444  1.09844049444944
 1 -1.86907136463646  0.91855230813081  3.42971668516852
 1 -3.47054211421142  2.07752180968097  3.69023118851885
 1 -3.46268971167117  0.35711039503950  3.93228564136414
 1 -1.99847233213321 -1.82098205860586 -0.32365627482748
 1 -2.08890056255626 -0.25207795739574 -0.98588862846285
 1 -0.21903542094209  0.46174078797880  0.69303970307031
 1 -0.16656445844584 -1.23377789298930  1.28753270847085
 1 -5.60145892129213  6.78555719981998  0.55736144534453
 1 -5.52754974437444  6.08534189728973  2.27040333743374
 1 -4.31263521952195  5.32553371977198  0.91679485508551
 1 -9.00546259875988  6.10841698979898 -0.81658188638864
 1 -9.13602481838184  8.05956669556956  0.89037865966597
 1 -7.79720918671867  7.09533593309331  1.71908029352935
 1 -11.96962106720672  3.25435576157616 -2.03662666736674
 1 -13.29579924912491  1.95024891609161 -1.71158234973497
 1 -12.19866159725973  2.86691534623462 -0.26420766476648
 1 -12.39434421282128 -1.58158760386039 -1.01450640554055
 1 -13.30999971887189 -0.13146988378838 -1.31407693519352
 1 -13.23518987158716 -1.57925261146115 -3.40783066756676
 1 -12.63277684188419 -0.02140667826783 -3.78004149984998
 1 -11.46467274657466 -1.20896576367637 -3.49821844184418
 1 -8.62756235923592 -4.73194393729373 -2.00041330543054
 1 -8.15025439023902 -5.66108611281128 -0.37736734973497
 1 -9.72631251615162 -4.63015803710371 -0.46572839543954
 1 -3.50116081198120 -3.67175042574257 -0.24103937543754
 1 -1.58716688318832 -4.14495093479348  3.24828774407441
 1 -3.00583019161916 -5.09986160376038  3.87908074697470
 1 -1.59913802530253 -5.90995026822682  2.67359131203120
 1  2.52787209130913 -1.93385522142214 -1.24843880888089
 1  2.52994047164716 -0.45464118451845 -2.29570272247225
 1  4.46408731433143 -1.04133634883488  0.15240845684568
 1  3.90907987148715  1.33227193759376 -2.87449581928193
 1  5.16577198889889  2.43269352825283 -2.04153062126213
 1  5.85700300790079  1.07843895139514 -3.00733946494649
 1  6.29058112101210  1.65414941494149 -0.08816617381738
 1  6.19035315471547  0.00460242284228  0.70473018971897
 1  7.45470285498550 -1.24566380158016 -1.09883120672067
 1  7.92598503440344  0.31666487458746 -1.87229015261526
 1  8.99811186278628  1.21211909690969  0.04873250545055
 1  8.70260874957496 -0.53834934113411  0.90911877557756
 1  10.32369992139214 -0.13786124842484 -1.84776966646665
 1  9.19966495199520 -2.28648662516252 -1.70426635143514
 1  10.92691524722472 -2.56914369826983 -1.87604184808481
 1  9.79925281128113 -2.52888483048305 -0.42524196389639
 1  11.49221690259026  0.82041427162716  0.64599608710871
 1  11.47242029542954 -0.66805276657666  1.12508312991299
 1  12.79366268516852 -1.50354851605161 -0.93377104470447
 1  12.93267702020202  0.32309300030003 -1.59301266256626
 1  13.92122355905591  0.77162971897190  0.78375571857186
 1  13.90305305840584 -0.87277688238824  1.07038355485549
 1  15.40946423492349  0.49559904490449 -1.39871422942294
 1  15.62454989788979 -2.32377266936694 -0.00853230713071
 1  14.95932898359836 -2.13988636423642 -1.77193460856086
 1  16.65775540494050 -1.76953247814781 -1.26323779327933
 1  16.13229843054305  1.35281311501150  0.87682422672267
 1  16.64684913211321 -0.36574574967497  1.39812257345735
 1  18.37520845954596 -0.35599214661466 -0.43970731113111
 1  17.68829589408941  1.10203752265227 -0.98000157595760
 1  18.60801159375938  2.57612176987699  0.86142414771477
 1  18.67413457375738  0.97811199219922  1.85102510281028
 1  20.51100601330133  0.30484663286329  0.17613467746775
 1  19.98087219381938  3.14466802870287 -1.08796238963896
 1  21.36035028712871  2.10676732953295 -1.57812917621762
 1  19.60926483088309  1.56834864566457 -1.77446441544154
 1  21.11804777997800  1.61783989308931  2.21377099429943
 1  22.24610631693169  1.87778900860086  0.81679664596460
 1  20.96579630953095  3.19735981928193  1.23527396789679

