%nproc=4
%Mem=3GB
# td=(NStates=1) iop(3/107=0140000000,3/108=0140000000) CAM-B3LYP/6-31G(d,p) 

TD

0 1
12 -7.13624831653165  0.62585096859686  0.01482785278528
 6 -4.87078589508951 -1.97620485108511  0.48335373777378
 6 -4.83602963356336  2.79290800870087  1.31440154535454
 6 -9.44475123962396  3.20095764876488 -0.53289576487649
 6 -9.56669276727673 -1.63002476817682 -0.96628343324332
 7 -5.07874490569057  0.39205529612961  0.83891171517152
 6 -4.34923717101710 -0.78530967416742  0.85916381108111
 6 -2.88125434603460 -0.41254965296530  1.41598726782678
 6 -3.08396162306231  1.07276597819782  1.86366264556456
 6 -4.41835206990699  1.44197884898490  1.29758415231523
 6 -2.99702588338834  1.06024884418442  3.35602091669167
 6 -2.05297102680268 -0.61323731293129  0.13771758205821
 6 -0.56895260446045 -0.53931717971797  0.53993737603760
 6  0.40579250245025 -0.72101872377238 -0.58593838393839
 8  0.22420263706371 -0.99728350605061 -1.76209360246025
 8  1.67296589498950 -0.54779471787179 -0.09996538413841
 7 -7.20267791119112  2.65789899979998  0.35618654275428
 6 -6.01991213501350  3.35222899029903  0.89849572567257
 6 -6.32089699809981  4.79634649824983  0.82393065176518
 6 -7.66831161646165  4.97429923512351  0.33850997739774
 6 -8.12084161166117  3.56753369216922  0.08931693029303
 6 -5.37865989988999  5.92095156885689  1.32000215541554
 6 -8.48067807580758  6.05075534513451  0.06750736323632
 6 -8.34994340434043  7.27257640734073  0.74966902620262
 7 -9.22372141324132  0.72937993239324 -0.65649222312231
 6 -9.87715520182018  1.85960928522852 -0.61904471797180
 6 -11.27189114181418  1.58949839433943 -1.14661952165217
 6 -11.21707119431943  0.21756930273027 -1.31714174247425
 6 -9.94590219381938 -0.28174836823682 -1.02595479677968
 6 -12.36632757045705  2.46462170357036 -1.31433088578858
 6 -12.36505029792979 -0.59506563036304 -1.76098542914291
 6 -12.28044995389539 -1.26569676197620 -3.25484613581358
 7 -7.20790375277528 -1.31192602830283 -0.26389906500650
 6 -8.26658098439844 -2.17282582808281 -0.64258583848385
 6 -7.81353339313931 -3.57111766316632 -0.57317761756176
 6 -6.48388617911791 -3.55332831493149 -0.17097917961796
 6 -6.17908163986399 -2.06150410621062 -0.05636380098010
 6 -8.70403274277428 -4.78349444784478 -0.92191557465747
 6 -5.41678714161416 -4.45916948034804  0.19801477557756
 8 -5.15344633693369 -5.61747860486049  0.23938988758876
 6 -4.18477297989799 -3.27872531993199  0.56249457105711
 6 -3.67573174997500 -3.62858080078008  1.92027799629963
 8 -3.80207299069907 -3.08477583548355  2.92007536573657
 8 -2.73366871967197 -4.62971158965897  1.70970000750075
 6 -2.22361131813181 -5.14651985788579  2.88899630003000
 6  2.81745806620662 -0.73262155105511 -1.12156567376738
 6  4.09858074327433 -0.41874714261426 -0.46190875367537
 6  5.12200769206921  0.20746727472747 -1.09053193019302
 6  5.15456918251825  0.78195587088709 -2.47227136213621
 6  6.48774505320532  0.38084870087009 -0.26412693709371
 6  7.63293474607461 -0.37372592059206 -0.91643197189719
 6  8.92413012461246 -0.28938075417542 -0.07989409180918
 6  10.29455491609161 -0.82545420862086 -0.88127384738474
 6  10.11505478207821 -2.25302318221822 -1.22391935793579
 6  11.48398306210621 -0.41244613571357 -0.01335929842984
 6  12.85158289378938 -0.61441147464746 -0.71828933403340
 6  13.98848011981198 -0.28665437973797  0.34037044864486
 6  15.38599459045905 -0.20584966856686 -0.36722237473747
 6  15.79969624062406 -1.53098148644864 -0.91382320862086
 6  16.52137913061306  0.40874739203920  0.47913264796480
 6  17.89875746344634  0.61022475207521 -0.22003853085309
 6  18.83702412101210  1.40108818731873  0.67793104980498
 6  20.23787659205921  1.57874730723072  0.14472117811781
 6  20.27514035983598  2.46670397549755 -1.16799149504950
 6  21.19676474347435  2.20667236713671  1.19158309830983
 1 -4.17507787128713  3.74487773917392  1.65645174097410
 1 -10.10361248454845  3.91967424192419 -0.83102762896290
 1 -10.36544096819682 -2.35199073417342 -1.11400922032203
 1 -2.67381466866687 -1.20811101380138  2.16639313001300
 1 -2.24358782508251  1.70018207930793  1.21719536853685
 1 -1.89818290469047  0.95567467386739  3.73024336173617
 1 -3.36634374347435  1.94746396919692  3.84246226842684
 1 -3.71991479197920  0.24418957325733  3.80552223742374
 1 -2.35030014901490 -1.45495616641664 -0.21734974207421
 1 -2.31717808680868 -0.06476885708571 -0.74621135573557
 1 -0.32926835553555  0.33055264256426  1.15549941294129
 1 -0.31909032933293 -1.23611437803780  1.39769322762276
 1 -5.52877705540554  6.78885639763976  0.62972280358036
 1 -5.36985845714571  6.34629751115112  2.40135214771477
 1 -4.25606045064506  5.42888715671567  1.08092882548255
 1 -9.34388464826483  5.93223660566057 -0.54245559825983
 1 -9.06863592729273  8.17795751675168  0.36869664536454
 1 -7.71676960906091  7.34081091749175  1.60530949124912
 1 -12.21436190919092  2.92698184528453 -2.39483531503150
 1 -13.41918921662166  2.02649139153915 -1.33890961916192
 1 -12.38647968066807  3.12382971707171 -0.39816025552555
 1 -12.35994795969597 -1.41377230003000 -0.87700120102010
 1 -13.35654795389539  0.03608089758976 -1.57203295769577
 1 -13.10005520472047 -1.83298696079608 -3.55089604770477
 1 -11.96937734343434 -0.29782825412541 -3.97681666006601
 1 -11.44610945034503 -1.86821784898490 -3.34911318951895
 1 -8.62527714631463 -5.08081458225823 -2.23111917491749
 1 -8.05970035523552 -5.56911286458646 -0.52777273237324
 1 -9.70950512951295 -4.61372982138214 -0.52914518321832
 1 -3.47396491499150 -3.53938054365436 -0.04722246034603
 1 -1.68700208780878 -4.35218743214322  3.42457417501750
 1 -2.80007644494449 -5.70762028692869  3.54588562626263
 1 -1.36116663716372 -5.92353313811381  2.71256461756176
 1  2.71995004980498 -1.69561618441844 -1.57054850355036
 1  2.60676711801180 -0.17906982218222 -1.92963402090209
 1  4.28725921262126 -0.80073848764877  0.55234663486349
 1  4.15842115361536  1.11281682438244 -2.69069955565557
 1  5.57690462266227  1.74080450435043 -2.42529996839684
 1  5.60664023252325  0.18775996689669 -3.20839709660966
 1  6.80842902680268  1.34178415901590 -0.08236862296230
 1  6.35675354745475 -0.05483281998200  0.85659185468547
 1  7.31075319811981 -1.41102177517752 -0.98886364356436
 1  7.67541009950995  0.23700280328033 -1.73575439833983
 1  9.17036308060806  0.61406090359036  0.13724615271527
 1  8.79834295509551 -1.02536088878888  0.71282740614061
 1  10.25787041884189 -0.35484933713371 -1.96219137713771
 1  9.35829543864386 -2.25454373787379 -1.95449383128313
 1  11.13127226782678 -2.48863226252625 -1.64117947604760
 1  9.94462665976598 -2.97844195889589 -0.33041043474347
 1  11.45092673427343  0.57968440184018  0.36002377317732
 1  11.46084367986799 -1.04152545014501  0.93068938903890
 1  12.93695164766477 -1.58572599189919 -1.04669694119412
 1  13.01287711761176  0.09386432243224 -1.45459979367937
 1  13.64336575687569  0.78758412171217  0.69832466116612
 1  14.03747205780578 -0.89912629152915  1.12319469346935
 1  15.29627002840284  0.38414181118112 -1.26057732653265
 1  15.94958875567557 -2.36448578977898 -0.01220935643564
 1  15.06285793019302 -2.01287580758076 -1.66904827832783
 1  16.69451773137314 -1.33196409340934 -1.38303481678168
 1  16.20041331483148  1.18558689238924  0.87117303360336
 1  16.68975305310531 -0.38822510731073  1.41683017771777
 1  18.33614035173517 -0.27101361536154 -0.45591578717872
 1  18.05920322992299  1.27136603070307 -1.26249199279928
 1  18.56316537343734  2.50733200120012  0.64333628042804
 1  18.86866282878288  1.04526936643664  1.69287253275328
 1  20.75215504780478  0.68312931053105 -0.33938804660466
 1  19.81379819831983  3.41375215171517 -0.86550873557356
 1  21.26699049984999  2.50885202730273 -1.67083506470647
 1  19.62323072067207  1.86882717291729 -1.79890827522752
 1  21.09443329682968  1.52808844974498  2.23947761656166
 1  22.21935982878288  2.26625709640964  1.12332898649865
 1  20.86333641214122  3.24798091529153  1.35934307100710

