%nproc=4
%Mem=2GB
# td=(NStates=1) CAM-B3LYP/6-31G(d,p) 

TD

0 1
12 -7.11195176817682  0.60167891599160  0.05674336173617
 6 -4.87595221322132 -1.94476565496550  0.59840637333733
 6 -4.77391732063206  2.74692313961396  1.35435180008001
 6 -9.38783351885188  3.10027552305230 -0.31211407110711
 6 -9.47488780248025 -1.72042755375538 -0.97347377647765
 7 -5.10873429802980  0.36782660076008  0.74391480978098
 6 -4.30125983208321 -0.72900272227223  0.88709673287329
 6 -2.93620262566257 -0.40404983068307  1.28344869906991
 6 -3.08076151455146  1.06327899619962  1.70791152185219
 6 -4.41839883478348  1.53826457525753  1.23673070297030
 6 -2.99644472657266  1.16114840294029  3.25924733363336
 6 -1.95346880788079 -0.48567382878288  0.11869582788279
 6 -0.46176359895990 -0.41381572877288  0.55816994629463
 6  0.49391052825283 -0.61008452135214 -0.59847522802280
 8  0.18149939003900 -1.09990539813981 -1.66796312801280
 8  1.80795260576058 -0.27343473987399 -0.22572936183618
 7 -7.11001144904490  2.63711930173017  0.42208090359036
 6 -6.00823010201020  3.35827680348035  0.77571110471047
 6 -6.45621287438744  4.77807209660966  0.77303799099910
 6 -7.71441414841484  4.78828946044604  0.27537592889289
 6 -8.15809008060806  3.59912910821082  0.06851939823982
 6 -5.57520547724773  5.91493395929593  1.21791655215522
 6 -8.47068486608661  6.06115714941494 -0.02609562416242
 6 -8.59824371567157  7.17698381698170  0.65403165296530
 7 -9.15885815841584  0.65944880598060 -0.48072210591059
 6 -9.85394165386539  1.78031798489849 -0.62916924102410
 6 -11.16283538013801  1.53499183828383 -1.08343006250625
 6 -11.24900730463046  0.20399576367637 -1.33753246724672
 6 -9.92385806650665 -0.37566954125413 -0.90045506160616
 6 -12.26992581628163  2.47720829182918 -1.43673044784478
 6 -12.31407595389539 -0.73175058515852 -1.85754656315632
 6 -12.17629511791179 -0.90434284548455 -3.41875699429943
 7 -7.13486295459546 -1.38705831943194 -0.16529120612061
 6 -8.19750999079908 -2.18976414851485 -0.63471842704270
 6 -7.85934207980798 -3.55378364586459 -0.58992626992699
 6 -6.46752063616362 -3.61641597859786 -0.16496822872287
 6 -6.13422601900190 -2.17409569086909  0.09029183338334
 6 -8.60214768216822 -4.77172001440144 -0.87757623602360
 6 -5.36054052435244 -4.43766765026503  0.26288916151615
 8 -5.14143298119812 -5.58999348274827  0.15353238393839
 6 -4.22967654705471 -3.35071086088609  0.62587245254525
 6 -3.63885451635164 -3.68340356165617  1.95211558445845
 8 -3.89273087368737 -3.16065280148015  3.02921560266027
 8 -2.72368356205621 -4.66375109750975  1.86807538843884
 6 -2.19610019791979 -5.25279950905090  3.04686962246225
 6  2.74576708840884 -0.61546934153415 -1.16868806920692
 6  4.11086317531753 -0.42791096739674 -0.55183533253325
 6  5.19391287568757  0.27613387878788 -0.97395716841684
 6  5.14865328832883  0.90378302760276 -2.27004116941694
 6  6.51347568036804  0.22508435863586 -0.17087357255726
 6  7.78164570247025 -0.34575492239224 -0.93447039753975
 6  9.00315218781878 -0.21939707010701 -0.07441925472547
 6  10.19756038053805 -0.68266533823382 -0.82138310881088
 6  10.13033973417342 -2.18565950205021 -1.22110557555756
 6  11.46798967586759 -0.37762154295430 -0.02864199559956
 6  12.74351925962596 -0.49269332043204 -0.75531555445545
 6  13.92483195159516 -0.09260046284628  0.04073114061406
 6  15.33867999289929 -0.23181691079108 -0.68244648444844
 6  15.83320498939894 -1.64152178597860 -0.96659627732773
 6  16.26820092599260  0.44470883088309  0.38803331053105
 6  17.75750033943394  0.58554995339534 -0.19246506110611
 6  18.77546791629163  1.23466168316832  0.76716714971497
 6  20.21737040624062  1.48012834633463  0.24479924312431
 6  20.28036939073908  2.34475277247725 -1.11697268996900
 6  21.09076000680068  2.18156109240924  1.28570393379338
 1 -4.06984846934694  3.42729825122512  1.69799438633863
 1 -10.04550494319432  3.88940977597760 -0.53812920442044
 1 -10.39546283568357 -2.61858119891989 -1.04915156735674
 1 -2.65530198709871 -1.02470078397840  2.08958965016502
 1 -2.31883548874888  1.52532611521152  1.19774042444244
 1 -2.05199965746575  0.91052150505050  3.57340105360536
 1 -3.26564162416242  2.21904596209621  3.61034319971997
 1 -3.76668011071107  0.14181886588659  3.65795820862086
 1 -1.91353383828383 -1.43105306570657 -0.43953786298630
 1 -2.10268194069407  0.35140239063906 -0.68120816041604
 1 -0.18419193659366  0.50599521342134  1.38304870397040
 1 -0.20759856185619 -1.44652916811681  1.12687664286429
 1 -6.09869864526453  6.79628827292729  0.84303001220122
 1 -5.83483047244725  6.08318168126813  2.27771406850685
 1 -4.48506246224622  5.74339550595059  0.87826100170017
 1 -9.09531158365837  5.87649379747975 -1.07515774397440
 1 -9.24300551645164  8.00608134703470  0.29996961876188
 1 -8.16809627542754  6.99522592209221  1.68265665116512
 1 -12.41561566666667  3.06237656365637 -2.35750875557556
 1 -13.26366603580358  2.03415730693069 -1.56753794529453
 1 -12.35380711181118  3.19882853755376 -0.42702394639464
 1 -12.22674745314531 -1.79894934003400 -1.41193614851485
 1 -13.41105982488249 -0.38109484628463 -1.62113764126413
 1 -13.04376072867287 -1.83619830603060 -3.71983186768677
 1 -12.59368293249325  0.06837229962996 -3.86062955865587
 1 -10.98670494979498 -1.30451531863186 -3.58253687368737
 1 -9.30021962496250 -4.55735647854786 -1.74487775187519
 1 -7.79921928672867 -5.64032403660366 -0.96243585658566
 1 -9.32887277217722 -5.26396141744175 -0.11439326192619
 1 -3.69543023892389 -3.64382763346335 -0.16753202470247
 1 -1.67211537803780 -4.51083752345235  3.38129104440444
 1 -3.06627623622362 -5.55890750835083  3.59651249014902
 1 -1.46068417991799 -5.99135840904090  2.67806175907591
 1  2.96630593469347 -1.75092692859286 -1.51068503350335
 1  2.40904838243824 -0.18599431983198 -2.16057921012101
 1  4.19175008060806 -0.68479069426943  0.62346556255626
 1  4.07763672717272  1.05980469086909 -2.85288365806581
 1  5.50260567226723  1.98143840274027 -2.15993246144614
 1  5.77454476207621  0.47140824832483 -2.95871460246025
 1  6.98933099599960  1.23071707170717  0.19210185298530
 1  6.26431055045505 -0.44340237763776  0.70364008070807
 1  7.63920130483048 -1.41767100230023 -1.46835815941594
 1  7.90227266316632  0.22891609970997 -1.81560448404840
 1  9.21978403000300  0.77430531553155  0.30800843304330
 1  8.93613210191019 -0.78128363456346  0.75414327802780
 1  10.23340089148915 -0.29427688998900 -1.76515140464046
 1  9.16977196269627 -2.42463043954395 -1.65810173497350
 1  10.92897545324533 -2.58817560146015 -1.65990023392339
 1  10.05586847284729 -3.08418036003600 -0.36580602030203
 1  11.49734741564156  0.73428565876588  0.30623211071107
 1  11.40925397879788 -1.05398135943594  0.88639926152615
 1  12.80242356125613 -1.61111927312731 -1.10264793239324
 1  12.71206495899590  0.08339903090309 -1.66418978027803
 1  13.93157459415942  1.03502605860586  0.31432877587759
 1  13.92081483458346 -0.69128873357336  1.08551506800680
 1  15.32542583108311  0.31326081108111 -1.58028238623862
 1  15.95147259015902 -2.02547283938394  0.12306085218522
 1  14.90214326502650 -2.09404177977798 -1.51230864596460
 1  16.60017964736474 -1.76058158305831 -1.52087355685569
 1  15.97523272397240  1.50190802450245  0.32281882618262
 1  16.43999844704470  0.16992781768177  1.49998275947595
 1  18.15576651535153 -0.33855040244024 -0.47009034943494
 1  17.65918298279828  1.22325964486449 -1.27002057785779
 1  18.28418921152115  2.16953111081108  0.98369637493749
 1  18.78847600790079  0.49640382138214  1.56401640194019
 1  20.80879579227923  0.49275542374237  0.08865592959296
 1  19.81127523412341  3.54351791369137 -1.02636623002300
 1  21.28340259235924  2.66047270007001 -1.36311767506751
 1  19.73398730313032  1.89349115991599 -1.88674564356436
 1  21.26062203740374  1.45365347444744  2.10237985518552
 1  22.17811951825182  2.30302153185318  1.00562552885289
 1  20.68295802570257  3.06229631293129  1.60320076057606

