%nproc=4
%Mem=2GB
# td=(NStates=1) CAM-B3LYP/6-31G(d,p) 

TD

0 1
12 -7.10752132513251  0.62399114721472 -0.07709002160216
 6 -4.85258987698770 -2.02556373477348  0.51611814451445
 6 -4.77473740264026  2.85219366666667  1.00313667856786
 6 -9.34549928542854  3.05792128762876 -0.44912777247725
 6 -9.46933724742474 -1.73111862286229 -0.97214364346435
 7 -5.16107953255326  0.37595741384138  0.73354377267727
 6 -4.35155486158616 -0.69816963896390  0.84409243244324
 6 -2.95817482288229 -0.40593001870187  1.13018337253725
 6 -3.08108154655466  1.09027169546955  1.61841257195720
 6 -4.40543753865387  1.53011376017602  1.02447947784778
 6 -3.21800688278828  1.25256754485449  3.11484289318932
 6 -1.95135859685969 -0.52705796719672  0.08235219351935
 6 -0.49598702130213 -0.45872021922192  0.53324745404540
 6  0.55747688488849 -0.79826333923392 -0.59054443494349
 8  0.28936017611761 -1.19988539613961 -1.67505383708371
 8  1.68595040554055 -0.36363375977598 -0.08279506840684
 7 -7.19197964586459  2.64538012781278  0.12648134363436
 6 -6.10150942994300  3.34117509330933  0.71396493009301
 6 -6.41295854895490  4.78420270967097  0.81878256545655
 6 -7.74480718771877  4.87219785128513  0.32505089638964
 6 -8.18145241684168  3.55462465776578  0.02803534983498
 6 -5.49921787848785  5.89152161806181  1.31749651015102
 6 -8.64658245584558  6.07457849154916  0.16077306270627
 6 -8.60305419671967  7.18202432103210  0.89284553435344
 7 -9.08608088068807  0.57634049514951 -0.54301833553355
 6 -9.80734699439944  1.74735468856886 -0.74745106920692
 6 -11.20559965656566  1.46669500860086 -1.16944866436644
 6 -11.24029643354335  0.09746511061106 -1.29236795079508
 6 -9.92607828852885 -0.46510848514851 -1.00141515761576
 6 -12.24323314701470  2.50580115111511 -1.48847562236224
 6 -12.41290583688369 -0.68195560566057 -1.79923073157316
 6 -12.24294178257826 -0.98297070827083 -3.22533765236524
 7 -7.14898436673667 -1.42794240784078 -0.19529420642064
 6 -8.22408264806481 -2.21976714881488 -0.50842579777978
 6 -7.87089323492349 -3.61201946944694 -0.47516479377938
 6 -6.51897578167817 -3.56154049104911 -0.01446317821782
 6 -6.20029262566257 -2.25473375467547  0.11615441964196
 6 -8.75727319471947 -4.90686352875288 -0.62739121752175
 6 -5.32150662096210 -4.34270815431543  0.29085195779578
 8 -5.16667550545055 -5.59441392479248  0.35141217191719
 6 -4.11583516291629 -3.29616540634063  0.58178804410441
 6 -3.62415304620462 -3.69219444074407  1.88647902080208
 8 -3.75006660726073 -3.14722145834583  2.98899158025803
 8 -2.86564775847585 -4.82516723912391  1.77291587248725
 6 -2.15647623552355 -5.26928115721572  3.05812074757476
 6  2.76688920062006 -0.73807160176018 -1.08087928832883
 6  4.09216130513051 -0.38043621992199 -0.51019116811681
 6  5.08640212461246  0.47059332473247 -0.87784755745575
 6  4.88245666866687  1.35164781408141 -2.02098626392639
 6  6.43923825662566  0.45403725392539 -0.16093257845785
 6  7.72073961186119 -0.03874422132213 -1.04417136763676
 6  8.96501837443744 -0.10578570897090 -0.06770858365837
 6  10.26757738223822 -0.51595866756676 -0.87408837933793
 6  10.15794249444944 -1.99657059315932 -1.26828029302930
 6  11.41977485438544 -0.23397717851785 -0.07109624102410
 6  12.76564147184718 -0.40958500960096 -0.85044506740674
 6  14.03630309870987 -0.17449865266527  0.18361542904290
 6  15.46441256615662 -0.11189491859186 -0.51082932273227
 6  15.75618728762876 -1.50868850265027 -1.06859647734773
 6  16.49501360726073  0.37504186418642  0.42905741294129
 6  17.83370796019602  0.57818921732173 -0.19676549114912
 6  18.87756812631263  1.25711392839284  0.74355478847885
 6  20.34862353155316  1.30426075957596  0.17923268646865
 6  20.43376473027303  2.09048734593459 -1.12524351705171
 6  21.29234016481648  1.75822875917592  1.33273863726373
 1 -4.07539902440244  3.29697521892189  1.76645123202320
 1 -10.33935432813281  3.85547638263826 -0.36033142464246
 1 -10.23963725312531 -2.58722806360636 -1.09779643184318
 1 -2.58670512741274 -0.96714502840284  2.04404509570957
 1 -2.15495910111011  1.67137071967197  1.29832048244824
 1 -2.22254671217122  0.81339179207921  3.59141285478548
 1 -3.25521058105811  2.31707576507651  3.61356352175217
 1 -3.85387883058306  0.41023570757076  3.52967538033803
 1 -1.95690817571757 -1.63798375877588 -0.48604251345135
 1 -2.12645431793179  0.28213546394639 -0.62666270587059
 1 -0.27790130753075  0.58182279617962  0.82751315041504
 1 -0.41009881188119 -1.06411092629263  1.49748370357036
 1 -5.56671544694469  6.98745738983898  0.79775548474847
 1 -5.73447043644364  6.15521888498850  2.47965426252625
 1 -4.61988594459446  5.31356252265227  1.26569974557456
 1 -9.34789684218422  6.25072122022202 -0.82783301150115
 1 -9.05533674957496  8.12782352125213  0.77740736253625
 1 -7.97375684148415  7.00168656815682  1.81718010351035
 1 -11.82410651575158  3.34161448744875 -2.25383838853885
 1 -13.09201887108711  1.80502439363936 -1.82171336283628
 1 -12.71774350545055  2.97139579427943 -0.29594083808381
 1 -12.58881365976598 -1.60694013911391 -1.25448040294029
 1 -13.26709542844284 -0.06271300810081 -1.65539106660666
 1 -13.08635498809881 -1.73522820902090 -3.69113899839984
 1 -12.29347291149115 -0.12744728232823 -3.62378587428743
 1 -11.33132941224122 -1.37302216931693 -3.53754237423742
 1 -8.69776937993799 -5.03947469036904 -1.78025128922892
 1 -8.07283664846485 -5.83316332053205 -0.10321993499350
 1 -9.82886277117712 -4.80261528282828 -0.01849367196720
 1 -3.42185288118812 -3.24704795549555 -0.28952422392239
 1 -1.86418458495850 -4.46972341204120  3.60066298159816
 1 -3.10030963956396 -5.65959757735774  3.80166300520052
 1 -1.15389350085008 -5.82566183938394  2.74347830073007
 1  2.70445975007501 -1.91422325822582 -1.24773873887389
 1  2.45755323292329 -0.35952167256726 -2.10719387158716
 1  4.22295320092009 -1.23270548574857  0.38844206020602
 1  3.87883684718472  1.50871958235824 -2.27360573027303
 1  5.46727213891389  2.28554881378138 -1.83680014821482
 1  5.46547385498550  0.96978808630863 -2.91969070007001
 1  6.60795285818582  1.51829582958296  0.23009565236524
 1  6.31259537893789 -0.23595163256326  0.60245996269627
 1  7.58450583528353 -0.98035727092709 -1.29682100570057
 1  7.80383281918192  0.61172438053805 -1.87317024062406
 1  9.32694474607461  0.88587647264726  0.13773140534053
 1  8.59764825352535 -0.68746425262526  0.92666052975298
 1  10.55948349974997  0.07546008370837 -1.74517940744074
 1  9.19925491099110 -2.30020799729973 -1.67302322712271
 1  11.01032358805881 -2.29602638653865 -1.92322656655666
 1  10.30661354735474 -2.86559850185018 -0.36118555825583
 1  11.47754543544355  0.80376260646065  0.29336082358236
 1  11.58447150055006 -0.97142310361036  0.76234685628563
 1  12.67036035493549 -1.51714987618762 -1.10400806840684
 1  12.90277402990299  0.19171986298630 -1.61124448574857
 1  13.69474091079108  0.76484904090409  0.95793313631363
 1  13.98468122122212 -1.04519412411241  0.82586910341034
 1  15.38926221472147  0.61451093609361 -1.34160851885188
 1  15.91137858075808 -2.15904619671967 -0.23903535743574
 1  14.75321837253725 -2.08457083268327 -1.38540595569557
 1  16.56872650205021 -1.86892241714171 -1.91787325682568
 1  16.10440564126413  1.32602043574357  0.86790333463346
 1  16.43684813201320 -0.24271344644464  1.30518327952795
 1  18.31921285998600 -0.43848039543954 -0.48306164656466
 1  17.73786085058506  1.13676099499950 -1.29084266006601
 1  18.57078787138714  2.37046120382038  0.92751075637564
 1  18.89785694599460  0.76154033503350  1.62335233553355
 1  20.56837174987499  0.23536968516852 -0.14980791679168
 1  20.05379948654865  2.99149271117112 -0.84791838523852
 1  21.35701995409541  2.47599425222522 -1.65155651895190
 1  19.79419332373238  1.65110692149215 -1.95861283028303
 1  21.23431940714071  1.17596570567057  2.24733435063506
 1  22.39977168346834  1.78753998369837  0.83379834613461
 1  21.17605733563357  2.81533161646165  1.56741718221822

