%nproc=4
%Mem=2GB
# td=(NStates=1) CAM-B3LYP/6-31G(d,p) 

TD

0 1
12 -7.06864743774377  0.59315806390639  0.05935362276228
 6 -4.80681529952995 -1.99268044644464  0.37648418111811
 6 -4.77747767666767  2.89502795009501  1.17735410031003
 6 -9.30769550505051  3.11302679817982 -0.45038789848985
 6 -9.58338865256526 -1.77382289328933 -0.81575800490049
 7 -5.09652307690769  0.45510532863286  0.66912733103310
 6 -4.31384109020902 -0.76006582858286  0.77919594279428
 6 -2.93084208960896 -0.41587101280128  1.23355370957096
 6 -3.05677911631163  1.00732340064006  1.59048977967797
 6 -4.39367636253625  1.48005875467547  1.07341437133713
 6 -2.89228431053105  1.33644593269327  3.15514692359236
 6 -1.89822328332833 -0.58825408680868  0.06822078037804
 6 -0.42049947254725 -0.37740208740874  0.53170730003000
 6  0.54646578377838 -0.70899441234123 -0.62593797429743
 8  0.24008524862486 -1.09249465706571 -1.72162849454945
 8  1.75669748024802 -0.38765616201620 -0.20358714761476
 7 -7.07080752865287  2.58751434123412  0.38344704020402
 6 -5.94020329932993  3.31941291709171  0.73867740134013
 6 -6.36517377047705  4.75072936233623  0.69743043024302
 6 -7.62197490449045  4.86885751725173  0.34390278157816
 6 -7.97602187378738  3.43778297359736 -0.03690114381438
 6 -5.44316227292729  5.82847531343134  1.23687844834483
 6 -8.67192499009901  5.95347638133813  0.12445943134313
 6 -8.57429132043204  7.17470358895890  0.73337958775878
 7 -9.05768804140414  0.69320218131813 -0.56080011371137
 6 -9.75696195589559  1.80933088618862 -0.61530785488549
 6 -11.17672676927693  1.44602294139414 -1.06981870137014
 6 -11.20750315421542  0.10194555865587 -1.23651236523652
 6 -9.82383806450645 -0.37347932223222 -0.91114613071307
 6 -12.26893571727173  2.43687425842584 -1.24419119391939
 6 -12.39288383468347 -0.73210062016202 -1.62316312481248
 6 -12.34858234663466 -1.20343275447545 -3.12650776937694
 7 -7.20669013731373 -1.42468208180818 -0.20595527252725
 6 -8.26990723052305 -2.24011918401840 -0.51947690289029
 6 -7.83668981458146 -3.64581284878488 -0.48963624092409
 6 -6.51695557965797 -3.57154149114912 -0.13014474637464
 6 -6.13864646104610 -2.28627690899090  0.06357916211621
 6 -8.68437590499050 -4.72757559996000 -0.83813229162916
 6 -5.30282475277528 -4.29881376487649  0.23730660326033
 8 -5.24248308620862 -5.47670215361536  0.26845387608761
 6 -4.16715029442944 -3.27002279207921  0.49654952025203
 6 -3.50360099099910 -3.70470569186919  1.80655102800280
 8 -3.85768736933693 -3.21425816201620  2.82866554765477
 8 -2.58622981668167 -4.66454117651765  1.71281986288629
 6 -2.19042963086309 -5.19088331743174  3.09724465996600
 6  2.75401791349135 -0.55016281088109 -1.18596979737974
 6  4.10457254625463 -0.51648982528253 -0.53342349134914
 6  5.04759824422442  0.30811707710771 -0.95178495119512
 6  5.07799622262226  1.22162481178118 -2.12735690099010
 6  6.29108344114411  0.39775162536254 -0.27789427462746
 6  7.50771830973097 -0.03959430633063 -1.04654160466047
 6  8.83575544814481  0.07277214681468 -0.28067988078808
 6  10.06631725622562 -0.50800787248725 -0.91577254775478
 6  9.95863256345634 -1.95425636173617 -1.24646811181118
 6  11.39107198409841 -0.31280506130613  0.03441431003100
 6  12.66390129782978 -0.65113916501650 -0.52268229112911
 6  13.92866233463346 -0.20425162796280  0.28957602510251
 6  15.34233035793579 -0.21004473357336 -0.40217845764576
 6  15.67900956985699 -1.69304693849385 -0.85735535323532
 6  16.40476458235824  0.42147650765076  0.47096160336034
 6  17.77044163356335  0.64412581098110 -0.16033184778478
 6  18.80006037553756  1.34447266426643  0.66975740874087
 6  20.30918958815882  1.36133646714671  0.21808657185719
 6  20.41909326312631  2.07447574477448 -1.12347334003400
 6  21.17971890269027  2.01788472477248  1.34814017741774
 1 -4.02417390189019  3.55410093149315  1.57958254515451
 1 -10.05014540724072  3.96507734273427 -0.73683907540754
 1 -10.36832012141214 -2.52518185898590 -0.92625927812781
 1 -2.73253971087109 -1.09767808170817  2.02559325052505
 1 -2.29341294649465  1.58379196179618  1.05859651005101
 1 -2.05091954945495  0.75695614851485  3.41147486098610
 1 -2.64857991799180  2.54843890139014  3.34345651105111
 1 -3.76608005070507  0.94271895589559  3.81996440924092
 1 -1.89143162806281 -1.65322528292829 -0.40226413561356
 1 -2.29931160366037  0.06543379377938 -0.74533457305731
 1 -0.29256277367737  0.57701231513151  0.87997839693969
 1 -0.27389519151915 -1.03478799399940  1.33729768496850
 1 -5.45641441684168  6.69036768086809  0.63153886308631
 1 -5.35145213461346  5.94936829992999  2.33546984408441
 1 -4.35060901690169  5.58767993439344  0.99972314791479
 1 -9.68065011751175  5.77935408350835 -0.57005723392339
 1 -9.28425964186419  7.96208694759476  0.76350597239724
 1 -7.75474494029403  7.32379877937794  1.43938232373237
 1 -12.00049415451545  3.21916224222422 -1.97083008770877
 1 -13.21883155235524  1.87413130433043 -1.58492968446845
 1 -12.62875460656066  2.96487514221422 -0.23295453945394
 1 -12.36251102950295 -1.65312475757576 -0.95667062196220
 1 -13.32540125902590 -0.09043578037804 -1.41827735523552
 1 -13.12651900450045 -1.97468215441544 -3.36808669316932
 1 -12.40385394959496 -0.22950748834883 -3.74060755645564
 1 -11.19176545584559 -1.50302516961696 -3.20559917991799
 1 -9.14540414341434 -4.61358210111011 -1.79973323742374
 1 -8.21309067386739 -5.80019002320232 -0.64546415941594
 1 -9.67314719961996 -4.95112013331333 -0.17979980258026
 1 -3.54381507740774 -3.22648589928993 -0.14636990849085
 1 -1.48848701520152 -4.45504194389439  3.48340125542554
 1 -3.01930153875387 -5.34468608620862  3.68670150905091
 1 -1.90630874237424 -6.22903217641764  2.85088904180418
 1  2.66982628672867 -1.46466830273027 -1.65191915691569
 1  2.74700217781778  0.03679795939594 -2.10348350055005
 1  4.36013691929193 -1.28418063326333  0.18686190219022
 1  4.08965792929293  1.42189089948995 -2.80168853855386
 1  5.46860227192719  2.18640889978998 -1.94957142534253
 1  5.77403471107111  0.83308441594159 -2.94933366436644
 1  6.68425048794879  1.29833383338334  0.03642628542854
 1  6.46139025842584 -0.16947498489849  0.65566528322832
 1  7.42018940364036 -1.13322255745575 -1.48599992359236
 1  7.68181061696170  0.38275148324832 -1.95738866246625
 1  9.12833488508851  0.96914479947995  0.04778241044104
 1  8.71295978467847 -0.59462496869687  0.66556442014201
 1  10.40504805620562  0.17780031773177 -1.85824071357136
 1  8.88985397089709 -2.09106708320832 -1.94114003880388
 1  10.74699725542554 -2.35619240314031 -1.68335257915792
 1  9.82980586658666 -2.36506844884488 -0.22362180188019
 1  11.21196887778778  0.59895212541254  0.52227371487149
 1  10.94563761716172 -0.86867282858286  0.97844846644664
 1  12.65341866076608 -1.77003516471647 -0.73162082968297
 1  12.59807355985598  0.03560425142514 -1.49238259955996
 1  13.94573601030103  0.69840239623962  0.92181952495249
 1  14.11830458355836 -0.66251585628563  1.28558507500750
 1  15.21011429992999  0.44028351335134 -1.39035339333933
 1  15.60750819371937 -2.58317860996100 -0.18400985488549
 1  15.17950100080008 -1.89914228982898 -1.87478489358936
 1  16.67841747114712 -1.88332385728573 -1.26543801330133
 1  16.07790299099910  1.41443927762776  1.00370691499150
 1  16.66020046724672 -0.42970214531453  1.27839060026003
 1  18.24053499219922 -0.28623517091709 -0.35192853325332
 1  17.67189425392539  0.87236455535554 -1.28779235503550
 1  18.56162695529553  2.32515667336734  0.93383138843884
 1  18.73013017331733  0.76630081108111  1.69296929722972
 1  20.66220113281328  0.23732988118812  0.10247731173117
 1  19.91441554815481  3.11024458635864 -1.36106970037004
 1  21.49185343744374  2.05806245904590 -1.36903826712671
 1  19.86691059545955  1.49786159695970 -2.01414838383838
 1  21.15267124232423  1.35735384448445  2.21617123432343
 1  22.19535124142414  1.98479970967097  0.93983895019502
 1  20.90567029692970  3.00070015331533  1.67494793529353

