%nproc=4
%Mem=3GB
# td=(NStates=1) iop(3/107=0140000000,3/108=0140000000) CAM-B3LYP/6-31G(d,p) 

TD

0 1
12 -7.10769546124612  0.55901428492849  0.03189955995600
 6 -4.86876569306931 -1.98826605720572  0.48855425782578
 6 -4.71147717831783  2.85657437533753  1.09336944214421
 6 -9.41035780028003  3.14918247124712 -0.54202667796780
 6 -9.52029812781278 -1.69462122782278 -0.90415722062206
 7 -5.04047107830783  0.48892498309831  0.60843866786679
 6 -4.38689093639364 -0.72396353955396  0.76984487918792
 6 -2.93777999859986 -0.32733113111311  1.10571624072407
 6 -2.97367059395940  1.06984568616862  1.57480375967597
 6 -4.35584581928193  1.58006265736574  1.07155154905491
 6 -2.76050223102310  1.21954477377738  3.15288060266027
 6 -2.00538626832683 -0.68052404160416 -0.04306049574957
 6 -0.57585329452945 -0.47308055605561  0.52394577687769
 6  0.41612353555356 -0.76100272217222 -0.58961875197520
 8  0.18215843264326 -1.02083586128613 -1.74711210431043
 8  1.63612221062106 -0.36688662706271 -0.20076546414641
 7 -7.02988063146315  2.68190140004000  0.28056898099810
 6 -6.08194833863386  3.37832159955996  0.78658453455346
 6 -6.48230313871387  4.75389225282528  0.92820107880788
 6 -7.74584937023702  4.75883768896890  0.35863198959896
 6 -8.07834736223622  3.51020795959596  0.03041103970397
 6 -5.56540857475748  5.93022249594959  1.39154931013101
 6 -8.64949495749575  6.03552382198220  0.34255486798680
 6 -8.39180759075908  7.16626577627763  1.03442750205020
 7 -9.16517555865587  0.66327332173217 -0.58269484338434
 6 -9.88809629592959  1.83644696899690 -0.70777359085909
 6 -11.24569852255226  1.50975041954195 -1.15786064576458
 6 -11.22948243544355  0.09244679047905 -1.36087611591159
 6 -9.90570817441744 -0.30530072347235 -0.90566276757676
 6 -12.36744768246825  2.39950519191919 -1.21545099779978
 6 -12.32768656155616 -0.76006213001300 -1.86300563116312
 6 -12.31126303520352 -1.05722591489149 -3.35327597879788
 7 -7.17508047044704 -1.33520835653565 -0.15000767586759
 6 -8.26460078637864 -2.31557010251025 -0.55612719261926
 6 -7.82668470827083 -3.62615316671667 -0.43948424822482
 6 -6.48091588208821 -3.50113309540954 -0.17343942564256
 6 -6.20119385108511 -2.21598955475548  0.02873470887089
 6 -8.66162850235023 -4.89780587898790 -0.72900628372837
 6 -5.31934739763976 -4.28924248764877  0.21894686878688
 8 -5.20001099339934 -5.54979183618362  0.19015496409641
 6 -4.13138764136414 -3.27089453685369  0.52746106770677
 6 -3.54671884868487 -3.65698364106411  1.86332230073007
 8 -3.78647143054305 -3.12695005290529  2.97146050425042
 8 -2.83153850665066 -4.81172979147915  1.84605364286429
 6 -2.14402335933593 -5.11070627652765  3.06359375977598
 6  2.70647696809681 -0.58850713961396 -1.16584010121012
 6  3.92632351755175 -0.49358462636264 -0.48070063286329
 6  5.01688718001800  0.23657018501850 -0.97111998899890
 6  5.04030775637564  1.07723539883988 -2.29104323932393
 6  6.40296657535754  0.26064668066807 -0.26543706810681
 6  7.64745619821982 -0.26985553355336 -1.02448277697770
 6  8.93939165076508 -0.11118293439344 -0.10254635703570
 6  10.29148460906091 -0.54560622382238 -0.87061278127813
 6  10.23231650825083 -1.96516439633963 -1.31677864386439
 6  11.45250991479148 -0.26787167826783  0.04759679717972
 6  12.80111784728473 -0.51434146764676 -0.65983348844885
 6  14.04793606540654 -0.11302701700170  0.18337474907491
 6  15.38337432843284 -0.30701978557856 -0.43035868836884
 6  15.72515878687869 -1.71880026832683 -0.64306613291329
 6  16.44950194289429  0.57430394769477  0.44992972767277
 6  17.82890047774778  0.72737646724672 -0.28089461646165
 6  18.81781219981998  1.45605368386839  0.64124738143814
 6  20.31708451285128  1.25499493199320  0.21274798079808
 6  20.44490733653365  1.99730703580358 -1.08491318721872
 6  21.24437950495049  1.78767046694669  1.29309324932493
 1 -4.26941730523052  3.72437568896890  1.77556365216522
 1 -10.04875699899990  3.83452572707271 -0.68035256145615
 1 -10.34668909300930 -2.32583811891189 -1.27421524092409
 1 -2.43424071127113 -0.67416761946195  2.04594108480848
 1 -2.07199066536654  1.73824588568857  1.14567821682168
 1 -1.80032311871187  0.99230833723372  3.53718405580558
 1 -2.86148325742574  2.31211043384338  3.46733475567557
 1 -3.50744354485449  0.75558071237124  3.72733441864186
 1 -2.09790490949095 -1.70110078087809 -0.51033904100410
 1 -2.24922129112911  0.10738835863586 -0.82588932353235
 1 -0.30522595129513  0.37573716101610  1.05546940994099
 1 -0.34051247154715 -1.13756452305231  1.29533299159916
 1 -5.48578275597560  6.75168268026803  0.71677150845084
 1 -5.76025749704970  6.39883276467647  2.38927093959396
 1 -4.57564240884088  5.51089535753575  1.45582631523152
 1 -9.47350761056106  6.09163254525452 -0.34650600330033
 1 -9.14185324902490  8.00025974697470  0.93783355905591
 1 -7.43612154425443  7.40743758015802  1.85981494179418
 1 -12.15173564656466  3.19457860496050 -2.06010184168417
 1 -13.20818811651165  1.92786152855286 -1.48141386958696
 1 -12.21769280198020  3.00211754585459 -0.28282872237224
 1 -12.18650061496150 -1.88397932073207 -1.28198169906991
 1 -13.50205250435043 -0.48328103860386 -1.49692544694469
 1 -13.35760095929593 -1.47924158625863 -3.72712367046705
 1 -12.27266767246725 -0.21183965526553 -3.84263324172417
 1 -11.53597843724372 -1.75884691189119 -3.61195947414741
 1 -8.98886350495049 -4.78630513131313 -1.75924198719872
 1 -8.13020740594059 -5.75109106240624 -0.60256021112111
 1 -9.45853003200320 -4.93856230463046  0.11542927422742
 1 -3.28012553105311 -3.50605721132113 -0.09651738983898
 1 -1.85743913151315 -4.13472568596860  3.48524024162416
 1 -2.87838427572757 -5.41364088898890  3.64508554625462
 1 -1.30167068756876 -5.76382716751675  2.84166752785279
 1  2.69369742454245 -1.58397502030203 -1.52439388808881
 1  2.50400684198420 -0.05717763296330 -1.93476453395340
 1  4.03552403910391 -1.07859627342734  0.48472987318732
 1  4.06237154865487  1.28322386508651 -2.63454394009401
 1  5.72707964016402  2.07547797169717 -2.00772821122112
 1  5.51296086458646  0.71450264116412 -3.25667192409241
 1  6.34278246214622  1.26449643024302  0.21889150305031
 1  6.25029290139014 -0.31590892759276  0.59770596609661
 1  7.45640776357636 -1.37908858185819 -1.08611336853685
 1  7.73202576107611  0.24537364036404 -1.92492331523152
 1  9.05018106240624  1.01689118661866  0.31179360746075
 1  8.73458657945795 -0.79958831153115  0.66419254265427
 1  10.42703733553356  0.14522066986699 -1.85882104010401
 1  9.52577218631863 -2.25127341084108 -1.91503988588859
 1  11.21297043764377 -2.14619801910191 -1.87096245434543
 1  10.29487168426843 -2.58687280198020 -0.44558195189519
 1  11.36592823442344  0.74889132253225  0.23761153195320
 1  11.39445704120412 -0.74265556315632  1.01108742884288
 1  12.94443239573958 -1.57874529382938 -0.91316358785879
 1  12.88021385128513 -0.00671573557356 -1.54425875957596
 1  13.81735315561556  1.02396776007601  0.41598642734273
 1  13.79996830743074 -0.67847422632263  1.19288166216622
 1  15.31631203260326  0.34610800780078 -1.25834710351035
 1  15.80892468926893 -2.15321466266627  0.48711057555756
 1  15.10841248564856 -2.42297681768177 -1.15128650215021
 1  16.89954823442344 -1.68632952995300 -1.08969548284829
 1  16.14220749424942  1.52197053075307  0.72206812311231
 1  16.56975105290529  0.06204992019202  1.32944143884388
 1  18.06949368706871 -0.33799031303130 -0.72002219781978
 1  17.71085839543954  1.25256415051505 -1.15368111171117
 1  18.48543760066006  2.66502777077708  0.70897284408441
 1  18.81829779227923  0.94990983048305  1.73496674217422
 1  20.58970880318032  0.28714971257126  0.05085097729773
 1  20.06725354385439  3.06777755425543 -1.19375155985599
 1  21.53640744154416  2.01523266536654 -1.57698567976798
 1  19.99868826642664  1.52498278847885 -1.90494887928793
 1  21.23174702820282  1.05017065796580  2.09931360016002
 1  22.34861275407541  1.72118258895890  0.94489114271427
 1  20.85562564106411  2.83937005420542  1.43041017771777

