%nproc=4
%Mem=2GB
# td=(NStates=1) CAM-B3LYP/6-31G(d,p) 

TD

0 1
<<<<<<< HEAD
12 -7.12510308330833  0.61494024212421  0.03445113251325
 6 -4.85382000000000 -1.90916209460946  0.59197573027303
 6 -4.85743567246725  2.84427287458746  1.19224558945895
 6 -9.42329706520652  3.08190368586859 -0.50437329702970
 6 -9.56990730443044 -1.67084259525953 -0.96392282138214
 7 -5.07842126672667  0.41969178727873  0.72953337163716
 6 -4.33794350045005 -0.74028385038504  0.79548757195720
 6 -2.87287629302930 -0.42372179787979  1.38813916811681
 6 -3.00378381678168  1.14062673097310  1.70779150985099
 6 -4.28627562246225  1.48279902870287  1.16871390129013
 6 -2.95546062816282  1.44763705180518  3.23609501840184
 6 -1.87145060606061 -0.69255451685169  0.29607356565657
 6 -0.46861428402840 -0.50100444764476  0.74676880618062
 6  0.54549568676868 -0.66721023392339 -0.37239261976198
 8  0.26928816891689 -1.20628603620362 -1.36780311201120
 8  1.84066587708771 -0.49277667406741  0.03320653175318
 7 -7.09820026792679  2.57368295809581  0.36004469997000
 6 -6.09635891489149  3.39831080688069  0.76796032963296
 6 -6.48006525962596  4.80683497289729  0.78211889908991
 6 -7.82577528452845  4.73936456795680  0.32122051335134
 6 -8.15633990559056  3.40920011531153 -0.00560801450145
 6 -5.46898485518552  5.94102656855686  1.04092885338534
 6 -8.64582237983798  5.97959899359936  0.04270125552555
 6 -8.58184207550755  7.13248936753675  0.78216446624662
 7 -9.11074334693469  0.63525638673867 -0.49432346604660
 6 -9.80344660436043  1.74187414051405 -0.73464978907891
 6 -11.13254235083508  1.44489282838284 -1.06952867236724
 6 -11.13771617551755  0.15589095319532 -1.35047376137614
 6 -9.88649433013301 -0.34474644894489 -0.97539255535554
 6 -12.20168899259926  2.45388595959596 -1.49535631043104
 6 -12.35075962226223 -0.77111452155216 -1.88653946244624
 6 -12.32751023942394 -1.15537794899490 -3.27160227882788
 7 -7.20624009230923 -1.41713132673267 -0.10199487648765
 6 -8.28448868866887 -2.19726489858986 -0.57145210041004
 6 -7.84607075267527 -3.59390765826583 -0.46704398169817
 6 -6.57720160426043 -3.60678501550155  0.01105937403740
 6 -6.22769536593659 -2.20431871317132  0.14098690289029
 6 -8.72742020942094 -4.78585142754275 -0.93507198559856
 6 -5.29393386368637 -4.35927981148115  0.23558643124312
 8 -5.29315815371537 -5.54849933333333  0.19777680838084
 6 -4.15269884928493 -3.29333512331233  0.56845671097110
 6 -3.43276390729073 -3.56243146444644  1.85363573647365
 8 -3.61800340094009 -3.02895963216322  2.92815549664966
 8 -2.65389658335834 -4.75085980838084  1.69661824272427
 6 -2.13755434333433 -5.38457268636864  2.86661159665967
 6  2.77929044074407 -0.68391618621862 -1.06604780518052
 6  4.17360944994499 -0.43144132043204 -0.51001115011501
 6  5.19315279967997  0.34829109450945 -0.96930670337034
 6  4.85920434343434  1.22305495479548 -2.11945611091109
 6  6.47959229202920  0.50300215041504 -0.19019550475048
 6  7.54688222612261 -0.06333668056806 -1.04492144264426
 6  8.90821269386939 -0.05812094249425 -0.26119793259326
 6  10.20663128762876 -0.44501157285729 -0.99566053655366
 6  10.04440114031403 -1.91285222132213 -1.49672313731373
 6  11.44705758265827 -0.27646142694269 -0.05479461086109
 6  12.79587449514951 -0.38250230133013 -0.79205922882288
 6  14.03028249664967  0.02559135633563  0.16456352385239
 6  15.30180630553055 -0.12397612671267 -0.54748298809881
 6  15.64958662756276 -1.59173680748075 -0.98756837453745
 6  16.47344145004501  0.38168252825283  0.41261576877688
 6  17.85120971037104  0.56590798919892 -0.24421023562356
 6  18.79365973547355  1.12608082508251  0.78257869086909
 6  20.21964063326332  1.26199653315332  0.23850861406141
 6  20.32478383218322  2.08754705190519 -1.03047404010401
 6  21.17083801460146  1.68222115841584  1.25700106350635
 1 -4.00301178567857  3.43800932233223  1.54525911281128
 1 -10.12751314401440  3.70716155115512 -0.56571196269627
 1 -10.25644893429343 -2.53834317511751 -1.16152280448045
 1 -2.72392884978498 -1.21370968486849  2.22760345154515
 1 -2.27839144434443  1.86590017261726  1.11523217361736
 1 -2.00877533503350  1.12311276417642  3.77094080758076
 1 -3.42944800480048  2.55929998749875  3.37494966036604
 1 -3.66815025772577  0.66488117211721  3.33255566836684
 1 -2.04289677457746 -1.74667462786279 -0.08224213341334
 1 -2.10715238773877 -0.09207195679568 -0.49387942754275
 1 -0.13974749214921  0.41821643554355  1.14688508760876
 1 -0.28340614261426 -1.08821333653365  1.67547150235024
 1 -5.61293006840684  6.88824746884688  0.51572728192819
 1 -5.61989897929793  6.11549491259126  2.08915521262126
 1 -4.42152610861086  5.85501666806681  0.86352952855286
 1 -9.27417947044705  6.11032718081808 -0.78680890909091
 1 -9.24920613651365  7.97337807670767  0.56020564236424
 1 -7.95902536833683  7.17929432893289  1.79678806430643
 1 -11.88272237733773  2.90143046904690 -2.39395239993999
 1 -13.14372404160416  2.03713760496050 -1.73684487598760
 1 -12.46066779787979  3.23682233693369 -0.79866111011101
 1 -12.35427020542054 -1.64425387048705 -1.20988594349435
 1 -13.30721944084408 -0.03856059285929 -1.84080960846085
 1 -13.33707005960596 -1.74771945814581 -3.73629351385138
 1 -12.23598716291629 -0.39745428302830 -3.96584007970797
 1 -11.44088036733674 -1.95813068016802 -3.68637725772577
 1 -9.42103170617062 -4.53166390929093 -1.80441370547055
 1 -8.03167253205320 -5.80279028322832 -0.97121673467347
 1 -9.43479336423643 -4.97201222252225 -0.13118494109411
 1 -3.35593628952895 -3.34994824552455 -0.04043931543154
 1 -1.70839900640064 -4.61119755945595  3.53596651195119
 1 -2.99783939253925 -5.63364498209821  3.45687852675268
 1 -1.61577968946895 -6.19371864506451  2.56422037493749
 1  2.69686899099910 -1.82523435933593 -1.32367633263326
 1  2.49957743534353 -0.09014473487349 -1.82744589678968
 1  4.39972087768777 -0.99092130733073  0.29936315231523
 1  3.80746971047105  1.38840755115512 -2.31952032173217
 1  5.46285169686969  2.11663192209221 -1.94853132133213
 1  5.40345765336534  0.68029913741374 -2.87880661166117
 1  6.71761382428243  1.56075007500750  0.11728437123712
 1  6.47917203660366 -0.13549158655866  0.50116983368337
 1  7.32668005270527 -1.19733896909691 -1.26358768236824
 1  7.71134357025702  0.63443665176518 -2.01509443304330
 1  9.06386843844384  1.08846673167317  0.12013964616462
 1  8.76262475117512 -0.65765127132713  0.74019188288829
 1  10.28550610201020  0.11977451515152 -1.93689857935794
 1  9.24633961946195 -1.90128810531053 -2.27723364816482
 1  11.02031458715872 -2.30683746764676 -1.69855409930993
 1  9.68138102410241 -2.58286022802280 -0.49846928662866
 1  11.37316499739974  0.79262149234923  0.25382687018702
 1  11.37285033843384 -0.98464442574257  0.74565518711871
 1  13.08291161006101 -1.35746390759076 -1.10169783738374
 1  12.83017677017702  0.08996968796880 -1.79961332263226
 1  13.90854229092909  1.06791934793479  0.34077142014201
 1  13.86204895799580 -0.61770137483748  0.98777529402940
 1  15.34823811231123  0.57572705770577 -1.44310866886689
 1  15.73251069396940 -2.07692798489849  0.09712825892589
 1  14.83733678437844 -2.17645002060206 -1.56758417351735
 1  16.60478010741074 -1.38696422132213 -1.50956242574257
 1  16.06331153185318  1.44064189788979  0.63703024732473
 1  16.50687513471347 -0.31677085218522  1.23501626282628
 1  18.35733667236724 -0.28925547294729 -0.82100544094409
 1  17.90099716421642  1.22684000290029 -1.23251682748275
 1  18.32272306490649  2.14828898659866  1.08403640894089
 1  18.69957711801180  0.58427260826083  1.73151315161516
 1  20.45561047374737  0.24318046624663 -0.06681961796180
 1  19.93121722832283  3.12506606850685 -0.75670926432643
 1  21.27829208130813  2.17983463626363 -1.32299366266627
 1  19.63368727312731  1.81678348914892 -1.81600856985699
 1  21.11796777197720  1.15317342644264  2.39166878407841
 1  22.28433013931393  1.47247847754775  1.01647661396140
 1  21.07021675157516  2.73163324662466  1.46987742824282
=======
12 -7.10426099909991  0.53309205730573  0.06520420782078
 6 -4.82982760076008 -1.97705888428843  0.57940447314731
 6 -4.83876380528053  2.75339378667867  1.13958032293229
 6 -9.39764449994999  3.13786928242824 -0.40579343904390
 6 -9.53369368306831 -1.78260377137714 -0.92654908400840
 7 -5.10311373597360  0.37596741484148  0.74356477477748
 6 -4.34222392849285 -0.67831765376538  0.72170019321932
 6 -2.88667767316732 -0.39254868056806  1.24561491569157
 6 -3.05157859625963  1.11886455475548  1.79994072477248
 6 -4.39476647154715  1.48649939873987  1.18529555945595
 6 -2.96823190529053  1.16408869696970  3.22412382128213
 6 -1.93696715771577 -0.49344460586059  0.07297125542554
 6 -0.49131655425543 -0.24451879907991  0.52188631793179
 6  0.50559169636964 -0.45317883078308 -0.59259463996400
 8  0.18196943704370 -0.88236364396440 -1.72731906360636
 8  1.75193700420042 -0.38196559295930 -0.25029181808181
 7 -7.03045349324933  2.60881647144714  0.26040473597360
 6 -6.05806508550855  3.39270024582458  0.75373890749075
 6 -6.38781603470347  4.76345063446345  0.76587727492749
 6 -7.71988469546955  4.83979461096110  0.38520691199120
 6 -8.06660093169317  3.46687588288829 -0.01070852455246
 6 -5.50990894759476  5.89730219611961  1.27685244574457
 6 -8.54288208580858  6.09078011171117  0.11492847824782
 6 -8.38878276957696  7.18228434703470  0.75897214701470
 7 -9.10860313291329  0.60572343344334 -0.62289632333233
 6 -9.88433469316932  1.79893984708471 -0.64541086518652
 6 -11.16974607120712  1.39518785788579 -1.09485120462046
 6 -11.13897630153015  0.06463182728273 -1.24919363336334
 6 -9.95399107980798 -0.48266024032403 -0.89218423452345
 6 -12.30240906460646  2.39953052405241 -1.31749852465247
 6 -12.31844639093909 -0.80470788088809 -1.83414422292229
 6 -12.44708219661966 -1.02001441264126 -3.25185030363036
 7 -7.22509197749775 -1.46596621022102 -0.24905958295830
 6 -8.34430467026703 -2.31188636073607 -0.51135609080908
 6 -7.82944909050905 -3.73766203370337 -0.51195847314731
 6 -6.57881176527653 -3.64379871687169 -0.08355008690869
 6 -6.22356495289529 -2.21165944724472  0.04802760696070
 6 -8.73717118451845 -4.86750959335934 -0.77636611501150
 6 -5.34272874317432 -4.43595747924792  0.20439331193119
 8 -5.16902574047405 -5.61650613401340  0.35512254295430
 6 -4.13747732713271 -3.36748253805381  0.64039390469047
 6 -3.60284091499150 -3.67320254155416  1.92325269816982
 8 -3.70582218281828 -3.05600233643364  2.99035171627163
 8 -2.76791798549855 -4.72876759915992  1.85937451835184
 6 -2.20064065196520 -5.19669389848985  3.04521945744574
 6  2.77946045774577 -0.43425121972197 -1.28631983238324
 6  4.15377746674667 -0.39833801010101 -0.63027317631763
 6  5.07065054945495  0.48738500390039 -0.99909968266827
 6  5.07822624562456  1.40422307160716 -2.17380154545455
 6  6.38713304610461  0.41894374457446 -0.29153563876388
 6  7.61835937383738 -0.06060640754075 -1.18671562206221
 6  8.90202207480748  0.03294816441644 -0.39869168196820
 6  10.20932155665566 -0.58265533723372 -1.06682765326533
 6  10.16292299249925 -2.06522745884588 -1.40333379837984
 6  11.38254113101310 -0.28001178197820 -0.06929606100610
 6  12.84845975367537 -0.50882493359336 -0.67804782768277
 6  13.92459192759276 -0.28223942674267  0.24065113261326
 6  15.36830295519552 -0.37434116321632 -0.42577081688169
 6  15.67723939283928 -1.82962059585959 -0.70496011371137
 6  16.56666077197720  0.19995435543554  0.52946745394539
 6  17.93616820622062  0.36469786818682 -0.13366918151815
 6  18.81584195369537  1.27095531253125  0.74930536353635
 6  20.28882755195519  1.45927626112611  0.24545930913091
 6  20.34750610441044  2.14843314051405 -1.01673266596660
 6  21.13742467326733  2.11029396569657  1.30647601100110
 1 -3.99722120662066  3.62918844024402  1.52500708760876
 1 -10.09222961566157  3.89238007300730 -0.50664605610561
 1 -10.28966225562556 -2.58636797759776 -1.23330998319832
 1 -2.65233169006901 -1.09246756065607  2.04627531873187
 1 -2.22291589678968  1.65997958055806  1.35921657205721
 1 -1.96018047554755  0.99863031593159  3.75089880338034
 1 -2.97984304430443  2.07962201970197  3.56533869926993
 1 -3.72852629532953  0.56703138713871  3.87782019481948
 1 -1.83151563646365 -1.30283024342434 -0.41730563976398
 1 -2.13417509000900  0.32193944434443 -0.67871791139114
 1 -0.65538905630563  0.83002761666167  0.80253065216522
 1 -0.11050885288529 -0.85806032123212  1.35799975517552
 1 -5.69642841824182  7.04478312241224  0.62885859505951
 1 -5.76647363676368  6.10881424452445  2.36245254235424
 1 -4.59444340034003  5.49218038443844  1.21551472707271
 1 -9.33390544304430  5.82342849094909 -0.75027525572557
 1 -8.95881709760976  8.03985472437244  0.54273389518952
 1 -7.60979044484449  7.28730513001300  1.57820620612061
 1 -12.07146125122512  3.06703702970297 -2.18014101880188
 1 -13.23026269546955  1.80216410761076 -1.44426561806181
 1 -12.51173290439044  3.24108276297630 -0.53704494849485
 1 -12.31390616901690 -1.72234167926793 -1.23838879377938
 1 -13.09457817671767 -0.32918965576558 -1.27359288678868
 1 -13.30491684428443 -1.70787547374738 -3.45381526602660
 1 -12.16470003420342 -0.06401093869387 -3.94380787648765
 1 -11.53610989028903 -1.81010587768777 -3.41673029302930
 1 -9.36830643364337 -4.79181992489249 -1.73987725182518
 1 -8.05411477627763 -5.71958196239624 -0.69600921392139
 1 -9.52992287718772 -4.95481050235024 -0.14322614521452
 1 -3.32704340024002 -3.49301255195520 -0.20172544404440
 1 -1.63072123862386 -4.18114455415542  3.48748166346635
 1 -3.03428303690369 -5.51696331393139  3.88786162506251
 1 -1.44779289078908 -5.91432070527053  2.67835178807881
 1  2.73133243734373 -1.50178201410141 -1.71647561256126
 1  2.75565304290429  0.49279355895590 -1.86224937713771
 1  4.27537844344434 -0.87454967016702  0.41753496949695
 1  4.11975093859386  1.49129784018402 -2.55042341204120
 1  5.57104251595159  2.33582384128413 -1.87148361656166
 1  5.84777208480848  0.88549965746575 -2.83534226522652
 1  6.59258132103210  1.53578757875788  0.25358800160016
 1  6.41386550595060 -0.10836887428743  0.58475819251925
 1  7.35794317901790 -1.09842907810781 -1.27917924152415
 1  7.72771520742074  0.50347355545555 -2.18531145474547
 1  9.08078012961296  1.10437832283228 -0.36015838363836
 1  8.74833332203220 -0.59295480168017  0.52712057575758
 1  10.37111466286629 -0.02394985728573 -2.03700859035904
 1  9.35842082758276 -2.35648362486249 -1.96194211901190
 1  11.10683323902390 -2.35765254915492 -2.05968021192119
 1  10.08392127812781 -2.82339428142814 -0.53639307900790
 1  11.22995067596760  0.84240647084708  0.02519400690069
 1  11.25870892429243 -0.90470643194319  0.78108873047305
 1  12.72026534543454 -1.59786794799480 -0.97640530813081
 1  12.98982273477348  0.06836752775277 -1.49545290659066
 1  13.67173861056106  0.73760631663166  0.34167151015102
 1  14.00644339743974 -0.87434703940394  1.22378889538954
 1  15.43119640814081  0.36715620062006 -1.36611096909691
 1  15.73666110901090 -2.39275956805681  0.20321886798680
 1  14.91263431413141 -2.32085446104610 -1.41702911801180
 1  16.52963259265927 -2.00526605150515 -1.19450091959196
 1  16.29038423912391  1.26574440814081  0.69275581988199
 1  16.59605405260526 -0.13036221132113  1.53967672887289
 1  18.37365830453045 -0.63368991639164 -0.32231557195720
 1  17.59819688418842  0.91067838673867 -1.18777235303530
 1  18.39991078367837  2.28799295699570  0.83954195949595
 1  18.81257841814181  0.98545272627263  1.67927792809281
 1  20.60934584728473  0.42896904510451  0.23911097509751
 1  19.81026513311331  3.26525008690869 -0.86194978837884
 1  21.25403965606561  2.12491914471447 -1.51892325562556
 1  19.57540144454446  1.82666447724772 -1.82362933193319
 1  21.00890686588659  1.64041215031503  2.44339395659566
 1  22.32060376667667  2.14650588028803  1.19219418571857
 1  20.65191492139214  3.05641572487249  1.54618505900590
>>>>>>> 8e03b5b5abfc0030b3aa597dc0de36371bfbd096

