%nproc=4
%Mem=3GB
# td=(NStates=1) iop(3/107=0140000000,3/108=0140000000) CAM-B3LYP/6-31G(d,p) 

TD

0 1
12 -7.21558625032503  0.66721510501050  0.09396576657666
 6 -4.85447426392639 -1.92964019461946  0.54230963336334
 6 -4.87384341494149  2.89010772867287  1.29146925212521
 6 -9.53841060556056  3.08017557055706 -0.38120059535954
 6 -9.53801989999000 -1.81671343704370 -0.82322912781278
 7 -5.12629966116612  0.47737382798280  0.67359518351835
 6 -4.40284253155316 -0.73414455765577  0.70785868056806
 6 -3.00910713131313 -0.29535793379338  1.20598626772677
 6 -3.07586081298130  1.14756345794579  1.70877715701570
 6 -4.47050728542854  1.48773342444244  1.20218461236124
 6 -3.02623880468047  1.29110192949295  3.19759507410741
 6 -1.98428415811581 -0.46166215541554  0.09396320662066
 6 -0.52187789698970 -0.41430467846785  0.51850523282328
 6  0.48421034423442 -0.65297191909191 -0.70440023012301
 8  0.29837005380538 -1.00609438713871 -1.77033442654265
 8  1.65566416481648 -0.35856579497950 -0.21195658325833
 7 -7.21786943034303  2.64664787468747  0.30211113521352
 6 -6.10941108490849  3.42948671607161  0.79601547764776
 6 -6.42722763116312  4.81098796239624  0.72048030673067
 6 -7.79111389668967  4.91683348854886  0.37538366476648
 6 -8.22905243274327  3.50508744754475  0.15755375397540
 6 -5.53905593949395  5.75418489218922  1.22376253145315
 6 -8.50667067506751  6.01734200380038  0.18198881138114
 6 -8.30175858585859  7.27215636533653  0.71406546584658
 7 -9.15297433853385  0.71267826222622 -0.43228980288029
 6 -9.95975346164616  1.81202452675268 -0.52679549304930
 6 -11.23457741044104  1.45889533403340 -1.02417727742774
 6 -11.28130761796180  0.04907245304530 -1.26405643394339
 6 -10.00201780538054 -0.50124031743174 -0.90830303160316
 6 -12.31348228592859  2.43744898629863 -1.47553700640064
 6 -12.42493628652865 -0.85049117291729 -1.80683001360136
 6 -12.20303221212121 -1.33207339963996 -3.23834448564857
 7 -7.20432339473947 -1.37486232193219 -0.34310698579858
 6 -8.28606293259326 -2.16729527502750 -0.65126670657066
 6 -7.83477551735174 -3.58857940934093 -0.58519881968197
 6 -6.50977876837684 -3.56778976107611 -0.21426350805080
 6 -6.15730946264626 -2.19925788158816 -0.02977114171417
 6 -8.65162750225022 -4.79454555295530 -0.84187757085709
 6 -5.31470693359336 -4.32878644204420  0.14576955105511
 8 -5.16836782908291 -5.47679453645365  0.19544549314931
 6 -4.16091059365937 -3.27680512791279  0.52976129772977
 6 -3.46456063286329 -3.67739568226823  1.78935490399040
 8 -3.61560434383438 -3.10048740664066  2.85811917011701
 8 -2.77994334713471 -4.74773339183918  1.69053809130913
 6 -2.08482743974397 -5.24171937783778  2.84917231763176
 6  2.82426874727473 -0.63068135703570 -1.07140065726573
 6  4.13859474467447 -0.39676494439444 -0.44107667046705
 6  5.12322781408141  0.44969149714971 -0.73999687668767
 6  5.20245397099710  1.15630330563056 -2.00509464446445
 6  6.39988626732673  0.32171278727873  0.00167964356436
 6  7.73392484508451 -0.10046859485949 -0.87399772847285
 6  8.93508121972197 -0.01146296239624 -0.06716281868187
 6  10.23515897649765 -0.65889755295530 -0.72864858485849
 6  10.11170444704470 -2.09792767266727 -1.14644161016102
 6  11.53820848464846 -0.22697758885889 -0.07256521902190
 6  12.81648938443844 -0.50736076957696 -0.72165967106711
 6  14.04000527232723 -0.13081879617962  0.10357676927693
 6  15.49853584458446 -0.36682576617662 -0.60455610811081
 6  15.72040831183118 -1.86771515981598 -0.63436526282628
 6  16.47267426012601  0.38271478877888  0.35629036373637
 6  17.82294988268827  0.47958168776878 -0.30125665266527
 6  18.88508892749275  1.12533061156116  0.61564482118212
 6  20.38325112951295  1.31563099559956  0.12889959595960
 6  20.30510335613561  2.19527683278328 -1.15379007490749
 6  21.19132419941994  1.94089578947895  1.21113505350535
 1 -4.20687105060506  3.52307555895590  1.52014811061106
 1 -10.13298542184218  3.86346862136214 -0.57504203040304
 1 -10.45382980708071 -2.42385792089209 -1.10001782118212
 1 -2.70633792099210 -0.82737293999400  2.06451294199420
 1 -2.42444591089109  1.83988604970497  1.12690633963396
 1 -2.26439952635263  0.78729783618362  3.54333467086709
 1 -3.07147425652565  2.43844306710671  3.35513353555356
 1 -3.77576037653765  0.79785493979398  3.85986767196720
 1 -2.61616673567357 -1.38301897269727 -0.25117312441244
 1 -2.29554592359236  0.35830345014501 -0.72003873847385
 1 -0.32852828152815  0.61139072637264  0.94906876987699
 1 -0.13676209650965 -1.21420218681868  1.23364682298230
 1 -5.39564374207421  6.74117162916292  0.60466029732973
 1 -5.37475894719472  6.28787166856686  2.19721173367337
 1 -4.55352019661966  5.13006727472747  1.25427616021602
 1 -9.47794805460546  5.92102548454845 -0.30192154485449
 1 -8.82175123882388  8.14805452645265  0.45197497319732
 1 -7.53302123422342  7.51175801220122  1.56356531683168
 1 -11.54959543254325  3.17062620972097 -2.39083491499150
 1 -13.22360965866586  2.18310705310531 -1.59923565176518
 1 -12.42734376707671  3.10033736783678 -0.60045048454845
 1 -12.56730869576958 -1.61963288608861 -0.98108160906091
 1 -13.34975727482748 -0.16302901340134 -1.84288004240424
 1 -13.00368556775678 -1.90323398549855 -3.61441239933993
 1 -12.22106251195119 -0.51653012431243 -3.77127610601060
 1 -11.31411625102510 -2.02680370757076 -3.30172845104510
 1 -9.15149976857686 -4.72565906670667 -1.87224328732873
 1 -8.17561194639464 -5.75803175647565 -0.66921687678768
 1 -9.51763594259426 -4.96703515191519 -0.31076334503450
 1 -3.44206172467247 -3.60669727532753 -0.24537227532753
 1 -1.56038942654265 -4.37324953835384  3.24614633223322
 1 -2.84701113841384 -5.46726625152515  3.76402744044404
 1 -1.59964048454845 -6.16166695149515  2.42727608870887
 1  2.60310836563656 -1.68432505530553 -1.34909635833583
 1  2.65784222552255  0.07195528032803 -1.95189624712471
 1  4.31715220192019 -1.21674008780878  0.33304470467047
 1  4.16404171567157  1.53196873957396 -2.43376386208621
 1  5.68500543274327  2.29228965286529 -1.89705714411441
 1  5.65857542604260  0.77395858675868 -2.94887114401440
 1  6.81318950285029  1.28001798239824  0.53348296219622
 1  6.38255612771277 -0.54882221892189  0.83054925042504
 1  7.52869499229923 -1.10177085008501 -1.40659541674167
 1  7.76125868436844  0.80164926792679 -1.73411423432343
 1  9.17414345864587  0.99621911941194  0.18090051815182
 1  8.85319844064407 -0.47646599929993  1.02362848624862
 1  10.35575020682068 -0.07792164436444 -1.62653781178118
 1  9.22407201630163 -2.41513979747975 -1.66479486138614
 1  11.05357449804981 -2.53709710901090 -1.77982334043404
 1  10.08373057015702 -2.71799591429143 -0.19543693739374
 1  11.52820446204620  0.91759819321932  0.21151892269227
 1  11.67734533003300 -0.82619391699170  0.91318763886389
 1  12.99591754425443 -1.60325774507451 -0.97068934043404
 1  12.83021885178518 -0.08844390839084 -1.84798913261326
 1  13.80267168746875  1.05627099039904  0.12839766846685
 1  13.76380469106911 -0.50959733863386  1.15951832583258
 1  15.35503590499050 -0.01903850685068 -1.60034130293029
 1  15.61488528532853 -2.25327466866687  0.31625348984898
 1  14.60026167056706 -2.35611013101310 -1.09651102460246
 1  16.67299557915792 -2.15723662066207 -1.29663617691769
 1  15.94332760626063  1.36708504220422  0.76027194349435
 1  16.53623770157016 -0.37157344214421  1.21956045074507
 1  18.41544828252825 -0.31198771277128 -0.71133132873287
 1  17.73516082568257  1.14138303240324 -1.16172191579158
 1  18.50672972987299  2.07154842284228  1.05864781158116
 1  18.99417538003800  0.58462330183018  1.63021626712671
 1  20.78855868816882  0.36394739233923 -0.20348445624562
 1  20.07183400190019  3.26250702720272 -0.98259044374437
 1  21.42743654445444  2.32335347744775 -1.56955493669367
 1  19.64005240284028  1.68111840204020 -1.87587597199720
 1  21.05358921242124  1.36292193309331  2.15336900570057
 1  22.24091198399840  2.04361483218322  0.75160181378138
 1  20.93971404990499  3.12953907110711  1.40207734443444

