%nproc=4
%Mem=2GB
# td=(NStates=1) CAM-B3LYP/6-31G(d,p) 

TD

0 1
12 -7.23148372137214  0.57181592969297  0.19415710311031
 6 -4.86657127512751 -1.96895807420742  0.53260979367937
 6 -4.85748567746775  2.83689213651365  1.26960332523252
 6 -9.38413314881488  3.03225872137214 -0.45465832553255
 6 -9.63086340004000 -1.74992050305031 -0.85509193829383
 7 -5.03201662626263  0.38579839793979  0.77353777207721
 6 -4.32066177227723 -0.69102892489249  0.84160218341834
 6 -2.90337934333433 -0.41366079177918  1.20613096729673
 6 -3.03481692009201  1.16246891519152  1.74617534823482
 6 -4.39729672457246  1.53026377517752  1.30646767666767
 6 -2.86664174627463  1.20951323942394  3.27287869676968
 6 -1.95928938993899 -0.55586084748475  0.04729868816882
 6 -0.44929235183518 -0.47769211641164  0.34217834713471
 6  0.50593173037304 -0.61902541544154 -0.75446082658266
 8  0.25934717481748 -0.83140854845485 -1.90768710041004
 8  1.77426923742374 -0.51403880028003 -0.29779656855686
 7 -7.10341078897890  2.58666425622562  0.33642233773377
 6 -6.13119239823982  3.38699967576758  0.79102263586359
 6 -6.42039929302930  4.71643593299330  0.77776846404640
 6 -7.70572327932793  4.88491912341234  0.23061145244524
 6 -8.16291056265627  3.45333452875288 -0.01802925662566
 6 -5.41746970367037  5.78187065296530  1.31058581908191
 6 -8.56562436003600  6.09535056875688  0.04206119151915
 6 -8.50156404770477  7.24109022762276  0.79098534833483
 7 -9.23335560816082  0.65312817391739 -0.55116915061506
 6 -9.92377863756376  1.71915186828683 -0.66979330343034
 6 -11.25107420402040  1.46900523962396 -1.14411613111311
 6 -11.30629303320332  0.12110747484748 -1.37706642064206
 6 -9.98067374807481 -0.42546452075208 -0.97096211231123
 6 -12.27584640834083  2.40736130713071 -1.47024379917992
 6 -12.43957850415041 -0.67563497359736 -1.85862667116712
 6 -12.41693918231823 -0.96274868606861 -3.33377849644965
 7 -7.32286175447545 -1.34112372597260 -0.14388906590659
 6 -8.41007124692469 -2.23937911001100 -0.37700265546555
 6 -7.95787193279328 -3.63462172967297 -0.34193147044704
 6 -6.57196108020802 -3.56797113411341  0.02991125922592
 6 -6.24961755815582 -2.21563984528453  0.18352115631563
 6 -8.71806927432743 -4.90201304370437 -0.53434191259126
 6 -5.33005747604760 -4.36236011951195  0.25098797139714
 8 -5.13962280018002 -5.55762024542454  0.22693972467247
 6 -4.17730130953095 -3.36273206300630  0.55014487978798
 6 -3.62609324022402 -3.72420764206421  1.86610698359836
 8 -3.74205580618062 -3.14138087428743  2.89784246534653
 8 -2.67360855455546 -4.73762848524852  1.71181976287629
 6 -2.12629321722172 -5.14703893299330  2.90985592109211
 6  2.81562407410741 -0.69245704030403 -1.41555275567557
 6  4.08776086508651 -0.60789896619662 -0.61438158715872
 6  5.19954343874387  0.23968023342334 -1.13021279397940
 6  5.16520494349435  1.11215386468647 -2.27390155545555
 6  6.42296662946295  0.32803465366537 -0.27860434563456
 6  7.71678921682168 -0.13785413231323 -0.95055200570057
 6  8.98972084468447 -0.06104123452345 -0.13712552535254
 6  10.24870549504950 -0.39538661036104 -0.89836080658066
 6  10.19870657085709 -1.92326326242624 -1.24664812981298
 6  11.47891076797680 -0.19606338713871  0.00484135273527
 6  12.87575248294829 -0.42394644574457 -0.68930895379538
 6  14.05373484188419 -0.01525272807281  0.25315238273827
 6  15.45149127402740 -0.29544327342734 -0.30388862866287
 6  15.73662533143314 -1.77148478227823 -0.78361797949795
 6  16.49345345124512  0.33333769376938  0.49133364056406
 6  17.81271586098610  0.48707010541054 -0.08198401300130
 6  18.84806517601760  1.31535975297530  0.77461789478948
 6  20.31205987518752  1.39261959545955  0.18368313151315
 6  20.37245859965997  2.14377267446745 -1.07592858555856
 6  21.26966789758976  1.95628856515652  1.20869623302330
 1 -4.34243572807281  3.56744226562656  1.53952853975398
 1 -10.05936632933293  3.82222305730573 -0.57929332083208
 1 -10.42357564696470 -2.44904424522452 -0.95493214541454
 1 -2.70591704860486 -1.21217953185319  1.93649434063406
 1 -2.35211881708171  1.77462104470447  1.26277692809281
 1 -1.95485994349435  0.74099455235524  3.62088580208021
 1 -3.02663772377238  2.40288434593459  3.64259642504250
 1 -3.67993143584358  0.71757644164416  3.90011242404240
 1 -2.25066755165517 -1.56841680208021 -0.44353826302630
 1 -2.11738341084108  0.05666291669167 -0.83739377897790
 1 -0.22810632803280  0.40938555245525  0.96589698879888
 1 -0.19657745974597 -1.27542205740574  1.09203315851585
 1 -5.62474124952495  6.84345298939894  0.89558526772677
 1 -5.09094608400840  5.81938530163016  2.25539183628363
 1 -4.52590654665467  5.70140130653065  0.78531170677068
 1 -9.53539559205921  6.00486663476348 -0.45023525172517
 1 -9.23419463536354  8.10798153705371  0.76836645844584
 1 -7.85543500930093  7.40222662216222  1.71764014951495
 1 -11.89080318541854  2.94288461446145 -2.37422042674267
 1 -13.19122879207921  1.96968085928593 -1.89949114061406
 1 -12.57909964106411  3.07665632033203 -0.49803104710471
 1 -12.37349212761276 -1.48821826692669 -1.17663261816182
 1 -13.40788950785078 -0.06345308210821 -1.54126965446545
 1 -13.22014836743674 -1.54150883708371 -3.63021290579058
 1 -12.45426899109911 -0.09002353995399 -3.73316681238124
 1 -11.53583986328633 -1.43026789388939 -3.60050867086709
 1 -9.40120972397240 -4.84931567446745 -1.44101736583658
 1 -8.01598096289629 -5.64887489168917 -0.44080369336934
 1 -9.32291217611761 -5.26970199149915  0.48836701410141
 1 -3.63487418331833 -3.65017826852685 -0.34682995449545
 1 -1.69451761826183 -4.32918935863586  3.45812872817282
 1 -2.85944555315531 -5.72575419301930  3.56906974587459
 1 -1.34028213971397 -5.88306757995800  2.52896684958496
 1  2.78553785788579 -1.66144798069807 -2.06686065106511
 1  2.70828830643064  0.04489876947695 -2.05264841704170
 1  4.31837274287429 -1.22030424562456  0.28921213721372
 1  4.29703866736674  1.07350606100610 -2.90355872557256
 1  5.37549296099610  2.30981124002400 -1.88419488768877
 1  5.90303761136114  1.01293240074007 -3.15961469246925
 1  6.52882494539454  1.40748474847485  0.03865650845084
 1  6.31731585098510 -0.26289432683268  0.64448416511651
 1  7.60832821752175 -1.11545078027803 -1.40130145374537
 1  7.74017645354535  0.42561576967697 -1.95776870047005
 1  8.88450050165016  1.03697158215822 -0.21520388818882
 1  8.81321981068107 -0.39969547574757  0.87527539123912
 1  10.36440399179918  0.09328186588659 -1.94333922342234
 1  9.27827281278128 -2.27817579407941 -1.63239916471647
 1  11.06997955365537 -2.32257904180418 -1.75881012491249
 1  10.36700958695870 -2.54753669566957 -0.42336177587759
 1  11.34686236713671  0.99949217941794  0.37758924642464
 1  11.37522057545755 -0.88466442774277  0.73691431303130
 1  12.88235155405541 -1.34906306750675 -0.95934360196020
 1  12.70011376387639 -0.06225553455346 -1.64309767106711
 1  13.95691712841284  1.14450700670067  0.42306964996500
 1  13.78844159725973 -0.85433503820382  1.08956547304730
 1  15.45813910241024  0.15316480148015 -1.30846520452045
 1  15.88943638653865 -2.44984527662766  0.05126367246725
 1  14.87734078477848 -1.97166954255425 -1.46146356145615
 1  16.68295792519252 -1.89686521142114 -1.51352282178218
 1  16.08581378207821  1.31643947764776  0.88750529482948
 1  16.75817026422642 -0.25449462456246  1.26090885208521
 1  18.27933887258726 -0.49915646304630 -0.29716305670567
 1  17.86415347984799  1.04577189608961 -1.02767634343434
 1  18.34748554115412  2.38301245894589  1.06097410271027
 1  18.84803196349635  0.93725790679068  1.88370837113711
 1  20.45620053275328  0.35811195939594  0.13102016601660
 1  19.97290139673967  3.22552611451145 -0.94669826322632
 1  21.55467972007201  2.15792244504450 -1.35800716401640
 1  19.77633153755376  1.83064487528753 -1.91478844784478
 1  21.49863583878388  1.30971908100810  2.17663728092809
 1  22.29743144944494  2.39444067376738  0.99862482878288
 1  20.93351308120812  3.10877096039604  1.66240668116812

