%nproc=4
%Mem=2GB
# td=(NStates=1) CAM-B3LYP/6-31G(d,p) 

TD

0 1
<<<<<<< HEAD
12 -7.12508308130813  0.53953270137014  0.11366905430543
 6 -4.86166078407841 -2.01895307370737  0.52235876857686
 6 -4.77839776867687  2.93099154645464  1.04389075397540
 6 -9.39181391689169  3.03552904840484 -0.25384824452445
 6 -9.55543585728573 -1.75017052805281 -0.85785221432143
 7 -5.00740416501650  0.44614443254325  0.60892131043104
 6 -4.35568527462746 -0.74131395339534  0.73880190339034
 6 -2.95324432983298 -0.42745217091709  1.17450780498050
 6 -3.07727116551655  1.16942961126113  1.58729946064606
 6 -4.41624861976198  1.55744649344935  1.00463749364937
 6 -3.12526760886089  1.34841712981298  3.09337074597460
 6 -1.87412087308731 -0.70416567796780  0.05625958425843
 6 -0.41405882848285 -0.48467281448145  0.55861999129913
 6  0.58802994019402 -0.66624013691369 -0.63076845734573
 8  0.23013425352535 -0.96648205580558 -1.72753908560856
 8  1.82964477497750 -0.40458785518552 -0.23583037193719
 7 -7.03111355925593  2.66487207700770  0.26115481098110
 6 -5.97640691969197  3.45170614641464  0.66485001860186
 6 -6.45959321242124  4.79300358975898  0.69086977417742
 6 -7.79390209720972  4.77649828132813  0.36827521882188
 6 -8.16810108170817  3.38892808810881  0.10260280658066
 6 -5.49482743944394  5.87872033793379  1.00729549004900
 6 -8.68466626422642  5.99736076977698  0.16121310671067
 6 -8.49523341464146  7.19587570617062  0.68182443224322
 7 -9.11428370097010  0.67122998409841 -0.55158919261926
 6 -9.88254451415141  1.68821877497750 -0.60333665776578
 6 -11.19628872547255  1.45580391949195 -0.95228694819482
 6 -11.29579198309831  0.14407977207721 -1.24590330433043
 6 -9.90907658835884 -0.41339331363136 -0.86848186428643
 6 -12.24774359805981  2.40600117111711 -1.24221099589959
 6 -12.41010555685568 -0.74889229932993 -1.64824563306331
 6 -12.38818630703070 -1.19655206640664 -3.14518963756376
 7 -7.25764523282328 -1.40663027662766  0.03094841784178
 6 -8.30385062486249 -2.30198537063706 -0.40901585678568
 6 -7.86059220482048 -3.64227249474948 -0.39015629292929
 6 -6.46948083218322 -3.50944528152815 -0.09922165406541
 6 -6.16313891029103 -2.19104738603860  0.14527733193319
 6 -8.59874734213421 -4.93081592399240 -0.63771224962496
 6 -5.32524699499950 -4.35942982648265  0.12952582518252
 8 -5.22508134603460 -5.52192667606761  0.10549758045805
 6 -4.17434101350135 -3.32449823962396  0.60560042534253
 6 -3.58180881178118 -3.69666488778878  1.88443881678168
 8 -3.88959055965597 -3.17277401360136  2.94784746584658
 8 -2.84075526922692 -4.71942666506651  1.77795637653765
 6 -2.17287787568757 -5.17657188628863  2.88682361786179
 6  2.81971448314831 -0.61586938153815 -1.20115131553155
 6  4.13939602860286 -0.34844302060206 -0.50637078607861
 6  5.18477196159616  0.36328259365937 -0.98939871257126
 6  5.10432885588559  1.16980963026303 -2.35518968426843
 6  6.36699103190319  0.45589743994399 -0.20642712791279
 6  7.56776431433143 -0.06288663556356 -0.94875182568257
 6  8.99390126272627  0.07721259085909 -0.23764557735774
 6  10.24107473197320 -0.35738280998100 -1.05621659215922
 6  10.31378807900790 -1.91454239033903 -1.45419888488849
 6  11.49069194609461  0.07971419061906 -0.25635476687669
 6  12.75694060176018 -0.37766181728173 -0.80341036393639
 6  13.89860932933293  0.09962876007601  0.08653572107211
 6  15.33292941784178 -0.12108583768377 -0.39554779457946
 6  15.53937560646064 -1.51140877467747 -0.87499711741174
 6  16.45732983888389  0.41026538653865  0.40950545774577
 6  17.92959754915491  0.35925732413241 -0.11467728232823
 6  18.95468583808381  1.01392960996100  0.97478791179118
 6  20.37640630983098  1.16910724422442  0.38907367056706
 6  20.50546189999000  1.91014931213121 -0.91090208290829
 6  21.20608153895390  1.68580151645164  1.46756211961196
 1 -4.05004648914892  3.45602112351235  1.39564415131513
 1 -10.08082847554756  3.75307614261426 -0.20509590109011
 1 -10.28922221162116 -2.65425476627663 -1.06211286348635
 1 -2.66815327222722 -0.95734404830483  1.91773246444644
 1 -2.25774938013801  1.47704128672867  1.04338498889889
 1 -2.15416987448745  1.12340279317932  3.46000971447145
 1 -3.07749280928093  2.48230228772877  3.25712787818782
 1 -3.95013845654565  0.65459014301430  3.50419283208321
 1 -2.03401588648865 -1.72334229462946 -0.38357226642664
 1 -2.35081675417542 -0.19717246684668 -0.79580962056206
 1 -0.32066558395840  0.45287990189019  0.99005940504050
 1 -0.22016981898190 -1.27031154635464  1.13205716091609
 1 -6.18803757915792  6.92177082118212  0.70407611681168
 1 -5.35087207660766  5.89487285038504  2.06166246334633
 1 -4.52220617661766  5.51753291969197  0.51098427402740
 1 -9.62381443394339  5.76680282838284 -0.39630985918592
 1 -9.35278649454945  8.04782552145215  0.85599522132213
 1 -7.63907337313731  7.38917531703170  1.34195258075808
 1 -11.89504360946095  3.08803912991299 -2.11060406510651
 1 -13.21322099129913  1.99926381758176 -1.64659585108511
 1 -12.37338907000700  3.22494114881488 -0.37504874887489
 1 -12.68555333373337 -1.68122756785679 -1.12558751365136
 1 -13.26589530843084 -0.29916665346535 -1.63518904640464
 1 -13.21273762636264 -1.97796248244824 -3.62203208770877
 1 -12.71867543174317 -0.49304384198420 -3.82218571427143
 1 -11.49155543484349 -1.70267513461346 -3.41587020702070
 1 -8.85623522652265 -5.10956169906991 -1.73393665776578
 1 -8.15086445124512 -5.76488649284928 -0.32248186118612
 1 -9.45016490139014 -5.20655567686769 -0.30011183378338
 1 -3.44336503240324 -3.50570382108211 -0.12447771927193
 1 -1.60068823532353 -4.52655909560956  3.35900881618162
 1 -2.84805441404140 -5.60722233983398  3.79134197309731
 1 -1.43525163666367 -5.88296756995700  2.54575852875288
 1  2.46625592969297 -1.48985082098210 -1.59024298929893
 1  2.62508998659866  0.06530080968097 -1.92753590579058
 1  4.25950685628563 -1.01591380658066  0.29290250625062
 1  3.94656361986199  1.45371408180818 -2.38649701940194
 1  5.82720813251325  2.07863812271227 -2.24338080628063
 1  5.38194550215021  0.38759986748675 -3.21896062706271
 1  6.33936599949995  1.65518951895190 -0.07225458265827
 1  6.38000211961196  0.00570253285329  0.88360807750775
 1  7.23728111281128 -1.13126236143614 -1.34723604720472
 1  7.57492992889289  0.44422763086309 -1.95287821142114
 1  9.10040209180918  1.19550743574357 -0.01770413821382
 1  8.72468095679568 -0.45126063226323  0.73106096979698
 1  10.24859241064106  0.34750728842884 -1.95778066756676
 1  9.40185517101710 -2.21520949744975 -2.15238116291629
 1  11.24577713341334 -1.98708549244924 -1.95131937583758
 1  10.51659454545455 -2.62431437343734 -0.64737417711771
 1  11.25163284418442  1.26609884008401 -0.17436594909491
 1  11.35572862626263 -0.32811877317732  0.70836145774578
 1  12.72966628552855 -1.73537169836984 -0.69752742034203
 1  12.82991674417442 -0.11116042504250 -1.85420878217822
 1  13.75200663736374  1.16001855785579  0.20679802280228
 1  13.71174392749275 -0.06557616231623  1.26007252375238
 1  15.29861314981498  0.40296978197820 -1.32900725872587
 1  15.57812525542554 -2.28277856995699 -0.08285973987399
 1  14.82906595729573 -1.78678105370537 -1.69012642774277
 1  16.61913154255426 -1.56917244214421 -1.33056452595259
 1  16.40957615831583  1.42246007970797  0.59540608490849
 1  16.47315176237624  0.00630145504550  1.26732949414941
 1  18.15419635833583 -0.77152369976998 -0.42740608100810
 1  18.20932799729973  0.99582690159016 -1.01554513031303
 1  18.42411320392039  2.06502065976598  1.13969197449745
 1  19.07121428172817  0.31543572457246  1.88806880718072
 1  20.72658757145715 -0.02007585938594  0.13003006700670
 1  19.91588569516951  2.72027558945895 -0.78830242364236
 1  21.54544879697970  2.14253090589059 -1.15065642894289
 1  19.93757766216622  1.23592540334033 -1.73770073907391
 1  20.92181815701570  1.26903501260126  2.35814543174317
 1  22.38116982328233  1.68484971467147  1.26066103240324
 1  20.83218294819482  2.70749083238324  1.87990843134313
=======
12 -7.11888246124612  0.55864461256126  0.19056674407441
 6 -4.96005062306231 -1.89171034943494  0.54367089978998
 6 -4.79400932983298  3.01981042834283  1.23761012591259
 6 -9.45787052255226  3.02815831133113 -0.35671853155316
 6 -9.43652396609661 -1.78195370637064 -0.79715614471447
 7 -5.02025545014501  0.49809962806281  0.72969338763876
 6 -4.35845555165517 -0.63422324432443  0.81054907810781
 6 -2.85248425382538 -0.39371879757976  1.15680603480348
 6 -3.00178361676168  1.05565823412341  1.59732046274627
 6 -4.41790878577858  1.56384713351335  1.22917994789479
 6 -3.04380946304630  1.26826911501150  3.12922433133313
 6 -1.88664212521252 -0.67012227362736  0.04164812311231
 6 -0.44908233083308 -0.43150749794980  0.43045717501750
 6  0.54901603880388 -0.63534704760476 -0.71159654015402
 8  0.24560580068007 -0.99184459205921 -1.86658298999900
 8  1.78728053855386 -0.49366676307631 -0.30997778667867
 7 -7.09603005090509  2.60181577137714  0.32793148864886
 6 -6.02143142214222  3.45787676347635  0.72485601920192
 6 -6.48074532763276  4.81286557595760  0.71973266046605
 6 -7.69475218221822  4.86376700820082  0.37402579387939
 6 -8.14729900150015  3.43443263856386  0.09775232153215
 6 -5.57696565326533  5.84353681958196  1.09667442794279
 6 -8.60257805540554  5.92251328502850  0.08325531093109
 6 -8.42128601990199  7.11656777537754  0.71348759855986
 7 -9.08681095369537  0.63651651275128 -0.43832786648665
 6 -9.81540780048005  1.77187714081408 -0.68617494159416
 6 -11.11524062066207  1.40713905300530 -1.09975169466947
 6 -11.21561396529653  0.01735709980998 -1.23186190019002
 6 -9.89552523322332 -0.40953292759276 -0.83316833293329
 6 -12.25195401910191  2.44022459345935 -1.38424519931993
 6 -12.28923346964696 -0.79531694179418 -1.66518732723272
 6 -12.46152364076408 -1.09612202340234 -3.24524964356436
 7 -7.19601907020702 -1.40679029262926 -0.15612028902890
 6 -8.26869710951095 -2.28016318841884 -0.53117807300730
 6 -7.78785493109311 -3.65934420192019 -0.49428670597060
 6 -6.47434131823182 -3.55961029802980 -0.21410314221422
 6 -6.20550314671467 -2.18081636293629  0.06370917511751
 6 -8.55589305670567 -4.85060790319032 -0.90848932733273
 6 -5.24697916821682 -4.32344622812281  0.25539841244124
 8 -5.08655749364936 -5.51306578997900  0.30404743544354
 6 -4.12714629402940 -3.29617540734073  0.55874573987399
 6 -3.43766439733973 -3.63718894019402  1.85544591749175
 8 -3.66460806140614 -3.05487222342234  2.86835951705170
 8 -2.61908310201020 -4.62583730613061  1.77805638653865
 6 -2.10032061996200 -5.19254348344834  3.02786772227223
 6  2.83405591729173 -0.67432522712271 -1.36401760216022
 6  4.09100118911891 -0.32078025432543 -0.55411556055606
 6  5.14530801520152  0.48872513791379 -0.95376514921492
 6  5.06353477647765  1.48822147144714 -2.24407857315732
 6  6.35965029782978  0.43104495469547 -0.11000748594859
 6  7.58722626052605 -0.05814616151615 -0.86555350585059
 6  8.80019189178918 -0.13564869526953 -0.04236604940494
 6  10.14346497099710 -0.61762883458346 -0.77638860936094
 6  10.03269997019702 -2.02015295139514 -1.27802126712671
 6  11.46028890579058 -0.41241502230223  0.05619648824882
 6  12.78543345104510 -0.62502655375538 -0.64118414131413
 6  13.97580704910491 -0.27566876967697  0.21293836133613
 6  15.33165929082908 -0.20119384848485 -0.55608384818482
 6  15.74595626452645 -1.63953158695870 -0.86218583628363
 6  16.32655676157616  0.45086944694469  0.37850235743574
 6  17.71638622802280  0.43642504090409 -0.14872068666867
 6  18.67575794529453  1.21262947994799  0.74718515151515
 6  20.08206687588759  1.34768510201020  0.25981074427443
 6  20.19684103790379  2.12593089028903 -1.12653364606461
 6  21.03047397819782  1.92389532583258  1.33433879727973
 1 -3.95487697219722  3.77631315271527  1.29398398529853
 1 -9.99998039073907  3.88131896689669 -0.60376576807681
 1 -10.30054334373437 -2.56960630143014 -0.96960361256126
 1 -2.89081553845384 -0.93778209210921  2.13212390359036
 1 -2.16626023122312  1.77273085568557  1.38776942734273
 1 -2.02890734823482  1.15707616051605  3.39894360786079
 1 -3.42344740474047  2.25285934343434  3.25583774917492
 1 -3.64987843054305  0.41046573057306  3.57012942574257
 1 -2.01950443534353 -1.82543250365037 -0.36893080228023
 1 -2.26443811631163  0.09293654405441 -0.69495953555356
 1 -0.41738525592559  0.67228184208421  0.84164456355636
 1 -0.12660046204620 -1.29309382458246  1.16519047424743
 1 -5.77824660006001  6.75716436053605  0.29638534773477
 1 -5.55364235363536  6.21017438053805  2.20011630873087
 1 -4.51458541454145  5.49415058145815  0.79123229882988
 1 -9.41081313381338  5.88706485458546 -0.72589281748175
 1 -9.03778499439944  8.06343708260826  0.63625324712471
 1 -7.67177664346435  7.26159255875588  1.68464685018502
 1 -11.90602470757076  3.43463378937894 -2.01776478117812
 1 -13.09923959315931  2.00726461766177 -2.03817500900090
 1 -12.73032476357636  2.78326698139814 -0.19867111111111
 1 -12.28342312071207 -1.95385483058306 -1.24920987588759
 1 -12.98683740264026 -0.18492522932293 -1.24869039653965
 1 -13.20294664726473 -1.70058474467447 -3.35616550105010
 1 -12.31086465066507  0.04367983038304 -3.58143163886389
 1 -11.54542082138214 -1.35669053615362 -3.58874749474948
 1 -9.02422202520252 -4.59230997389739 -1.83958722282228
 1 -7.92472183698370 -5.87842784698470 -1.02232184518452
 1 -9.22063194809481 -4.85187020832083  0.00820899829983
 1 -3.44694539043904 -3.42703595429543 -0.43630890239024
 1 -1.37490565706571 -4.51108754845484  3.48001091639164
 1 -3.01811141974197 -5.46567818541854  3.71358419731973
 1 -1.25205331683168 -5.96066533973397  2.57115106800680
 1  2.79146845094510 -1.66471830773077 -1.54304826982698
 1  2.44542201980198 -0.07062278267827 -2.21986513871387
 1  4.32017292289229 -1.04496671187119  0.11993520952095
 1  3.96502546604660  1.05119382978298 -2.57567593729373
 1  5.20006541824182  2.54185444434443 -2.00660712891289
 1  5.80384769236924  1.12654376187619 -2.87019575057506
 1  6.56855891879188  1.53201720172017  0.32925556835684
 1  6.34782890229023 -0.28889692709271  0.72950266696670
 1  7.43881126582658 -1.09338857405741 -1.36883820742074
 1  7.74999743564356  0.56689989808981 -1.67478040164016
 1  9.10178222982298  0.75216310131013  0.40422805500550
 1  8.88969745844585 -0.93263877007701  0.85630349404940
 1  10.30182773417342  0.11158369606961 -1.62395728522852
 1  9.22579756525653 -2.34877285378538 -1.95161108590859
 1  11.01995455115511 -2.21274805870587 -1.88058230213021
 1  9.99473235923593 -2.58487042904290 -0.34572401210121
 1  11.29325700660066  0.55792802300230  0.31141262876288
 1  11.19208226162616 -1.09706566786679  0.94688531013101
 1  13.00441376027603 -1.72163032423242 -0.86657432503250
 1  12.52277603010301 -0.04960426942694 -1.70917427872787
 1  13.91335277197720  0.80494305030503  0.43949129212921
 1  13.89898265136514 -0.85008461316132  1.00159667616762
 1  15.21533482198220  0.44447393239324 -1.55850020802080
 1  16.00477792069207 -2.25318561066107 -0.09748120202020
 1  14.85461851255126 -2.12294467006701 -1.46034344944494
 1  16.70910053945395 -1.68772429732973 -1.37559902940294
 1  16.12420762146214  1.41533936763676  0.77698424272427
 1  16.31416586378638 -0.19237841294129  1.24352711391139
 1  18.31404234293429 -0.56477302470247 -0.11483482388239
 1  17.80648771327133  0.81012833173317 -1.20894447024702
 1  18.40491128372837  2.07573173087309  0.73451145644564
 1  18.78212537283729  0.76859104010401  1.66861686198620
 1  20.47775268796880  0.37988413661366  0.01425848984898
 1  19.96153025962596  3.14464802670267 -0.88032162556256
 1  21.28226247834784  2.11359801260126 -1.35192655595560
 1  19.60018392279228  1.81019283008301 -1.82791976097610
 1  20.81189716491649  1.39896800590059  2.37925754295430
 1  22.22599430573057  1.67542877257726  1.03451841814181
 1  20.80745047494750  2.99818990229023  1.44422486298630
>>>>>>> 8e03b5b5abfc0030b3aa597dc0de36371bfbd096

