%nproc=4
%Mem=3GB
# td=(NStates=1) iop(3/107=0140000000,3/108=0140000000) CAM-B3LYP/6-31G(d,p) 

TD

0 1
12 -7.14474916661666  0.64896327982798 -0.05563919391939
 6 -4.87388620512051 -1.97679491009101  0.51019642204220
 6 -4.77756378697870  2.82754147204720  1.15857596279628
 6 -9.34771153565357  3.12648020102010 -0.34196667196720
 6 -9.56909300730073 -1.69021078677868 -0.87027383228323
 7 -5.05336236743674  0.42735882648265  0.69751757575758
 6 -4.39208145544554 -0.72124326752675  0.87080497519752
 6 -2.98086430703070 -0.39337773577358  1.20854652375238
 6 -3.00144337123712  1.01224992659266  1.68606488578858
 6 -4.33853408810881  1.51206585768577  1.18522291619162
 6 -2.85575175597560  1.31500431973197  3.21805712031203
 6 -1.99904563426343 -0.53062905210521  0.06332014231423
 6 -0.42249795899590 -0.35613886188619  0.43601698399840
 6  0.52144406760676 -0.67089371127113 -0.67657744784478
 8  0.18389860666067 -1.07834161186119 -1.74375176827683
 8  1.79916851525153 -0.57502744114411 -0.24198958655866
 7 -7.05388303170317  2.55842905280528  0.28851977607761
 6 -5.99770991479148  3.26758052545255  0.81726760286029
 6 -6.25473038143814  4.80047691129113  0.73762202090209
 6 -7.59902468776878  4.86008781398140  0.32647877427743
 6 -8.11804133163316  3.46675361416142  0.12992099069907
 6 -5.38007004090409  5.89981945564556  1.27643779897990
 6 -8.50302031003100  5.99085935553555  0.13860447294729
 6 -8.42423083308331  7.23458260796080  0.86370042934293
 7 -9.03114215531553  0.65209220362036 -0.63222979687969
 6 -9.78773625992599  1.81889521382138 -0.71232404590459
 6 -11.11306525922592  1.48936838133813 -1.12004686438644
 6 -11.23693318051805  0.24377192299230 -1.26937696599660
 6 -9.83875147874788 -0.32031222462246 -0.90205240654065
 6 -12.30982191989199  2.46858209960996 -1.29268872157216
 6 -12.39699349224922 -0.62208833263326 -1.68382771337134
 6 -12.38341024992499 -1.16017620992099 -3.04117476867687
 7 -7.19840280268027 -1.35101993769377 -0.07989066416642
 6 -8.34738906520652 -2.22330087558756 -0.49138071797180
 6 -7.84736677647765 -3.58902945434543 -0.47755805560556
 6 -6.50563835433543 -3.51496447854786 -0.13449553125313
 6 -6.18201193289329 -2.17709566536654  0.08193002840284
 6 -8.75384772427243 -4.68234433283328 -0.74977836093609
 6 -5.39562502540254 -4.35723928732873  0.26484145824582
 8 -5.31164215651565 -5.61681853885389  0.12667861646165
 6 -4.22432693529353 -3.38206565396540  0.52426074767477
 6 -3.43901807860786 -3.64636257895790  1.79637560606061
 8 -3.61529431283128 -3.08865622352235  2.87345070327033
 8 -2.59686503930393 -4.71389000750075  1.68496753425343
 6 -1.94705366236624 -5.26897210311031  2.85747314771477
 6  2.79500582098210 -0.79977826672667 -1.30742425962596
 6  4.05743662886289 -0.49060432833283 -0.67027959075908
 6  5.18815430673067  0.14638116611661 -1.05223810081008
 6  5.19905363096310  1.09182685798580 -2.28201233623362
 6  6.34586086478648  0.15476609260926 -0.20434095849585
 6  7.57029848244824 -0.26782533053305 -0.96965729442944
 6  8.86829454105411 -0.14731654775478 -0.11829793219322
 6  10.11098655925593 -0.63421508470847 -0.78150387038704
 6  10.23051632823282 -2.00607848774877 -1.37324429042904
 6  11.36943160696070 -0.26871176227623  0.03490552805281
 6  12.74327206270627 -0.37951798529853 -0.63753125822582
 6  13.86046731853185 -0.00361607590759  0.23911032263226
 6  15.20490648164816 -0.13435251885189 -0.32588824132413
 6  15.62279855085509 -1.63736212451245 -0.58433025932593
 6  16.34787177987799  0.41403792109211  0.50660539523952
 6  17.77216480418042  0.47858158775878 -0.03150967796780
 6  18.74892531113111  1.41277935643564  0.88656191289129
 6  20.17850065446545  1.40898033053305  0.14997170317032
 6  20.14926777257726  2.14005131023102 -1.24356905280528
 6  21.12347741474147  1.98080978087809  1.21243518351835
 1 -4.15747611111111  3.64297754915492  1.47622371817182
 1 -9.88282040534054  4.05421769626963 -0.22224675087509
 1 -10.69367379147915 -2.34058959405941 -1.06426424582458
 1 -2.74525181238124 -1.16812701540154  1.75650214091409
 1 -2.28883234953495  1.79829189028903  1.32321597059706
 1 -1.97235032143214  0.71393049944995  3.44199453685369
 1 -2.79975708480848  2.37940716351635  3.49220724292429
 1 -3.61383418391839  0.66490164446445  3.95288697389739
 1 -2.17423254225423 -1.45690636143614 -0.48812681978198
 1 -2.06045241424142  0.32564018381838 -0.65496223082308
 1 -0.40210563926393  0.74999458675868  0.50834469746975
 1 -0.25109352965297 -0.94910567716772  1.38050150845085
 1 -5.84910908860886  6.72053956595660  0.91189102040204
 1 -5.36355782708271  6.15865874727473  2.16286829932993
 1 -4.34611945654565  5.71016528452845  0.92377310991099
 1 -9.06573683348335  5.95938932093209 -0.80858221092109
 1 -9.08538760246025  8.03205292629263  0.42947272297230
 1 -7.65812374447445  7.51834867126713  1.66713567386739
 1 -12.04619509250925  3.32028117521752 -2.06681251275128
 1 -13.11344864256426  1.97121586398640 -1.57900362856286
 1 -12.43706473917392  2.92162949704970 -0.47336777627763
 1 -12.14112607750775 -1.51368229102910 -1.15648914981498
 1 -13.38085038413841 -0.02434514501450 -1.38369412381238
 1 -13.29752495169517 -1.87106076817682 -3.26856781488149
 1 -12.35580598629863 -0.25120359165917 -3.70418939733973
 1 -11.47883272267227 -1.56564759195920 -3.26350462866287
 1 -9.45989060766077 -4.46486298709871 -1.65209127212721
 1 -8.28174255945594 -5.70729668296830 -0.71078103320332
 1 -9.42304648364837 -4.83778222662266  0.10791852315232
 1 -3.35899341784178 -3.31813841944194 -0.20451818991899
 1 -1.40426381398140 -4.56970918431843  3.42145386298630
 1 -2.65414185148515 -5.79802932783278  3.46776781448145
 1 -1.32153267376738 -6.07718850365036  2.46339970107011
 1  2.69651770657066 -1.96361298409841 -1.53005445414541
 1  2.63890033133313 -0.22478439363936 -2.17840889838984
 1  4.13131361806181 -1.09769818361836  0.28382978317832
 1  4.16269158065807  1.38830437313731 -2.59343982968297
 1  5.79846677887789  1.92012243614361 -2.09390682908291
 1  5.64134370287029  0.76499769066907 -3.29840609750975
 1  6.32401058495850  1.27224720532053  0.06202581648165
 1  6.22565043714371 -0.39898723542354  0.76580277577758
 1  7.38366048884888 -1.38587926092609 -1.21645640284028
 1  7.76692925142514  0.13330243324332 -2.07749857275728
 1  9.13194923922392  0.87477697519752  0.18913134123412
 1  8.83659678047805 -0.61868022072207  0.97652377577758
 1  10.01760639243924  0.04920106790679 -1.73353851185119
 1  9.44040364946495 -2.34912319581958 -2.14507288918892
 1  11.13000214081408 -2.44969836913691 -2.00601595969597
 1  9.97934013111311 -2.83523763846385 -0.63782117581758
 1  11.41221286288629  0.72264869826983  0.53151092189219
 1  11.37032462796280 -0.84458575617562  0.96010233033303
 1  12.90258821132113 -1.38422584188419 -0.96498877037704
 1  12.75780161006100  0.14925986198620 -1.82866720042004
 1  13.48689010931093  0.97344270757076  0.56736156485649
 1  13.78590690129013 -0.70015639453945  0.97827020102010
 1  15.20500090149015  0.20037343434343 -1.34431570037004
 1  15.54157795459546 -2.48241758295830  0.07507937243724
 1  14.92613425782578 -1.76802132213221 -1.32754412791279
 1  16.57800608020802 -1.67578847584759 -1.05367188048805
 1  16.14561783528353  1.36543487718772  0.85552146844684
 1  16.18002208000800 -0.02404868966897  1.46019451415141
 1  18.14656139383938 -0.60267678167817 -0.29482967856786
 1  17.61144845444544  0.87678657275728 -1.19183492709271
 1  18.40931998889889  2.32958422642264  0.91027297409741
 1  18.71073703620362  0.91932677217722  1.84624787028703
 1  20.37002683498350  0.34780577817782 -0.08794290209021
 1  19.65144196269627  3.10377115361536 -1.20365254995500
 1  21.21426522732273  2.38825996809681 -1.61058904010401
 1  19.50875927352735  1.66728701890189 -1.98411679607961
 1  21.04959881338134  1.52690833173317  2.17109077787779
 1  22.25912380518051  2.05589606030603  1.23835048864886
 1  21.03883396189619  3.21853797099710  1.40345748244824

