%nproc=4
%Mem=2GB
# td=(NStates=1) CAM-B3LYP/6-31G(d,p) 

TD

0 1
12 -7.17528810181018  0.52214096219622  0.08693638103810
 6 -4.80923554155416 -1.86235741414141  0.47967450015002
 6 -4.81547147604761  2.83227167446745  1.19220558545855
 6 -9.41225596109611  3.15130062556256 -0.43455631533153
 6 -9.50897121082108 -1.76057156815682 -0.90217664676468
 7 -5.13062648724873  0.41674149224923  0.70911132943294
 6 -4.31380108620862 -0.67037685968597  0.81879990319032
 6 -2.97653665906591 -0.41367079277928  1.20202055625563
 6 -3.15638907730773  1.12698536683668  1.71929265996600
 6 -4.51319831473147  1.52554330313031  1.16684371427143
 6 -2.99361444354435  1.40990327842784  3.22569397829783
 6 -1.91573503450345 -0.52772803420342  0.12887684598460
 6 -0.42241966456646 -0.33058740594059  0.49356348564856
 6  0.43176431363136 -0.60170368326833 -0.62320770127013
 8  0.11696293639364 -0.93807921552155 -1.76028235993599
 8  1.78874068456846 -0.53017041344134 -0.29520630953095
 7 -7.04214466236624  2.64443003280328  0.24503319881988
 6 -6.00254953395340  3.38711968776878  0.71607514111411
 6 -6.47767502060206  4.74242853225323  0.77016770397040
 6 -7.73135584258426  4.89885051655166  0.34902329362936
 6 -8.07451172277228  3.45049424472447 -0.00746820052005
 6 -5.57045500220022  5.86982944884489  1.23303806430643
 6 -8.69749754735473  6.04577561126113  0.11023800920092
 6 -8.50153404470447  7.13965008360836  0.97544379417942
 7 -9.09141141374137  0.71102396349635 -0.52334636833683
 6 -9.84466072577258  1.78682863596360 -0.61342766686669
 6 -11.17108620522052  1.43508184728473 -1.15640736023602
 6 -11.17316972087209  0.01854721882188 -1.10550926492649
 6 -9.90042572327233 -0.41112308660866 -0.86338135423542
 6 -12.16195501920192  2.32615318631863 -1.57858463326333
 6 -12.29502404870487 -0.85330274037404 -1.59610041854185
 6 -12.29538702710271 -1.18641105230523 -3.05517063566357
 7 -7.20731019931993 -1.39488910251025 -0.07246192319232
 6 -8.27262750255026 -2.26854202630263 -0.39322427762776
 6 -7.83037918351835 -3.66601486898690 -0.44140141744174
 6 -6.50837472157216 -3.54365870287029 -0.05886761866187
 6 -6.13231582798280 -2.16212449374938  0.10136294049405
 6 -8.58970643804380 -4.83925676807681 -0.83508198659866
 6 -5.30122459275928 -4.36989087258726  0.18030090269027
 8 -5.09966880478048 -5.58401288468847  0.21926895759576
 6 -4.14153773317332 -3.28897468726873  0.50413027832783
 6 -3.59241987288729 -3.59230445174517  1.91143151605160
 8 -3.87472907350735 -3.10988772497250  2.93612629372937
 8 -2.67957915161516 -4.55742046444644  1.87026560746075
 6 -2.17713830173017 -5.15543977307731  3.01122605810581
 6  2.79472198389839 -0.71770956555656 -1.35128632903290
 6  4.13398548754875 -0.45879405570557 -0.61834198319832
 6  5.15887937233723  0.27579384478448 -1.19057883058306
 6  5.08746716971697  1.11113376267627 -2.42315648094809
 6  6.40820515331533  0.34799664986499 -0.35770225542554
 6  7.66149368726873 -0.11695204210421 -1.11428837933793
 6  8.94513638623862 -0.08354348474847 -0.31353316611661
 6  10.20339096359636 -0.53408047974797 -0.96627759825983
 6  10.09156585678568 -1.95789672577258 -1.45903936893689
 6  11.43131600850085 -0.28266204700470 -0.11732086348635
 6  12.86861176887689 -0.41613566466647 -0.72804282718272
 6  14.02614208260826 -0.10294149694969  0.28892596009601
 6  15.34251037593759 -0.21063479257926 -0.41204944474447
 6  15.69996166506651 -1.61488912271227 -0.94970458815882
 6  16.47568167406741  0.30863522352235  0.47848235543554
 6  17.83027761716172  0.48153955235524 -0.15464127872787
 6  18.74176454595460  1.21584980198020  0.79145957895790
 6  20.22998166736674  1.26360669416942  0.39352411561156
 6  20.35708706250625  2.12386068326833 -0.92305329802980
 6  21.12834376517652  1.95754869116912  1.52705806920692
 1 -4.00825230973097  3.46357187858786  1.80917550445045
 1 -10.54954534723472  3.82313314831483 -0.59587497899790
 1 -10.24673796319632 -2.53061240204020 -0.99031568376838
 1 -2.50029648654865 -0.99235754965497  1.90704139533953
 1 -2.54046765196520  1.82198578117812  1.09533018341834
 1 -1.87359181668167  1.30647110001000  3.63814752825283
 1 -3.16365142514251  2.41597565506551  3.44457662306231
 1 -3.79749319201920  0.79980466446645  3.77630004280428
 1 -1.73297578247825 -1.61107106750675 -0.30271418061806
 1 -2.09510118261826  0.27453470387039 -0.64716475607561
 1 -0.19695321272127  0.69173378727873  0.94432483158316
 1 -0.27095489748975 -1.13879839503950  1.18536249144915
 1 -5.66606538193819  6.82235087918792  0.77932364156416
 1 -5.65174216361636  6.04306766986699  2.31326762386239
 1 -4.60360431643164  5.48306947334733  0.78707188278828
 1 -9.30063211571157  6.04751089918992 -0.72374260246025
 1 -9.20875209110911  8.11281202010201  1.06878650045004
 1 -7.75998546434643  7.19099549904991  1.66231461696170
 1 -11.80517462256226  2.89988031403140 -2.38191119581958
 1 -13.06384605380538  2.04743863506351 -2.04276546804680
 1 -12.36127785888589  2.95375403010301 -0.62044328832883
 1 -12.19793457185719 -1.65332477757776 -1.05029998489849
 1 -13.35098381728173 -0.12013875067507 -1.50143567106711
 1 -13.16470282288229 -1.91301598779878 -3.34844472897290
 1 -12.20909447364737 -0.26721125872587 -3.69388288398840
 1 -11.44801108040804 -1.70293516061606 -3.25080370037004
 1 -8.87837744074407 -4.73829457235724 -1.83505676977698
 1 -8.14898426322632 -5.71468147234723 -0.62141175417542
 1 -9.64584446934693 -4.85719074037404 -0.29238106070607
 1 -3.25723641954195 -3.49533278397840 -0.21987725922592
 1 -1.88401656815682 -4.30964740444044  3.74418733403340
 1 -2.87677728632863 -5.62324394199420  3.51236407530753
 1 -1.47863597509751 -5.78453772697270  2.66520047294729
 1  2.69478878297830 -1.75683751965196 -1.72695666066607
 1  2.62264974257426 -0.03355907630763 -2.19537268946895
 1  4.29942084768477 -0.99808202340234  0.31337455345535
 1  4.12749171267127  1.26236494689469 -2.94380274997500
 1  5.45372078377838  2.16756701560156 -2.16885335353535
 1  5.66237354495449  0.65345645314531 -3.29998872987299
 1  6.61841390429043  1.22165616561656  0.06743938673867
 1  6.46413053245325 -0.27225526292629  0.61823153985399
 1  7.29453683838384 -0.98759799499950 -1.40881220482048
 1  7.63262569846985  0.75222843094309 -1.93893681728173
 1  8.94117616921692  0.99760764576458  0.15698333053305
 1  8.67273576227623 -0.70077558375838  0.69055691939194
 1  10.20136768816882  0.08497103480348 -1.80228511801180
 1  9.14974996049605 -2.12594057055706 -1.96601252605260
 1  10.94435699139914 -2.38563534743474 -2.01241548544855
 1  10.07108999499950 -2.71521346334633 -0.48389782948295
 1  11.31478915981598  0.60535276547655  0.55377686518652
 1  11.24895794919492 -1.09590555185519  0.69716033763376
 1  12.92730604950495 -1.31116927812781 -1.20301796939694
 1  13.19171292379238  0.34608529952995 -1.62416577787779
 1  13.92403384008401  0.97017957395740  0.47617496049605
 1  13.97594034713471 -0.98047765246525  1.00147666416642
 1  15.37349063756376  0.61308079307931 -1.33768812681268
 1  15.41674911781178 -2.52639293139314 -0.19594104800480
 1  15.10687373807381 -1.80854322992299 -1.79849726482648
 1  16.66134576397640 -1.61337686258626 -1.43547501700170
 1  15.99732493319332  1.31205903960396  0.88386493079308
 1  16.74869931713171 -0.34114328942894  1.32049481068107
 1  17.99113005170517 -0.53390993839384 -0.40055339573957
 1  17.75497256175618  0.99196651555156 -1.23679725552555
 1  18.32510330293029  2.21198535623562  1.19189719501950
 1  18.81318847914791  0.56491067206721  1.67578757905791
 1  20.57729264196420  0.16584273247325  0.04858192219222
 1  19.84739884648465  3.18944250615062 -0.84097769116912
 1  21.39197344944495  2.32847950075007 -0.97143850715071
 1  20.07618152255226  1.56169798059806 -1.97715468446845
 1  21.26010198539854  1.26835494459446  2.49010862806281
 1  22.05310701700170  2.08608983868387  1.33227819411941
 1  20.78649837973797  3.04962504580458  1.85575601610161

