%nproc=4
%Mem=3GB
# td=(NStates=1) iop(3/107=0140000000,3/108=0140000000) CAM-B3LYP/6-31G(d,p) 

TD

0 1
12 -7.21011570327033  0.66991537503750  0.09681605160516
 6 -4.95752456895690 -1.88759599019902  0.45953135553555
 6 -4.82927895849585  2.85869458735874  1.17379748494850
 6 -9.40029679417942  3.11506905990599 -0.32298477377738
 6 -9.53153925192519 -1.77319908560856 -0.87846465136514
 7 -5.09245627682768  0.45295138573857  0.76525434943494
 6 -4.35349759705971 -0.64853599679968  0.71357925262526
 6 -2.92027824842484 -0.36376477447745  1.10809647874787
 6 -3.01433466036604  1.09796849844985  1.62994927422742
 6 -4.37897813251325  1.51411606270627  1.10296469036904
 6 -2.74776095689569  1.11062388168817  3.12591790639064
 6 -1.94446017571757 -0.62426841604160 -0.04754094379438
 6 -0.45305101430143 -0.38928217621762  0.39783316561656
 6  0.48333025622562 -0.63360998289829 -0.79692948304831
 8  0.32335255205521 -0.98681245894589 -1.92831022412241
 8  1.73266186458646 -0.56193613201320 -0.30626601420142
 7 -7.07605524892489  2.66464967486749  0.41154207830783
 6 -6.11893203700370  3.35290905830583  0.91491736783678
 6 -6.42065697409741  4.69996686028603  1.01431969066907
 6 -7.70720550585058  4.85316712191219  0.49239536593659
 6 -8.12581210871087  3.52582952175218  0.14279227782778
 6 -5.47257929182918  5.84576405010501  1.21310146534653
 6 -8.51570157815781  6.01202147174717  0.13086369886989
 6 -8.54120253025303  7.17419656935694  0.62676673597360
 7 -9.10303934503450  0.69713670807081 -0.55604217811781
 6 -9.83744123042304  1.88721204550455 -0.68207102060206
 6 -11.12390634333434  1.52814225872587 -1.08878373807381
 6 -11.19420890809081  0.13354089988999 -1.29527955625563
 6 -9.92739034263426 -0.36206640004000 -0.91693389468947
 6 -12.26808774647465  2.52748799019902 -1.35617507020702
 6 -12.27230102300230 -0.73590971477148 -1.69430876147615
 6 -12.17060896979698 -1.17738793109311 -3.12922357355736
 7 -7.33937690009001 -1.43308814451445 -0.16724940004000
 6 -8.28376270257026 -2.25536408190819 -0.52534411431143
 6 -7.73609564936494 -3.68509906130613 -0.61252155195520
 6 -6.53655144564457 -3.59526250835084 -0.13348543024302
 6 -6.31623535523552 -2.21445940174017  0.14709654505451
 6 -8.63210555005501 -4.88390448884889 -0.84269765286529
 6 -5.29269473237324 -4.38944250765076  0.15223019711971
 8 -5.26469746204620 -5.54821167816782  0.13781973057306
 6 -4.17598210081008 -3.29886733413341  0.54180250185018
 6 -3.50462463926393 -3.70251819451945  1.95165113361336
 8 -3.71005378877888 -2.93477083498350  2.95617897609761
 8 -2.75120047284728 -4.76108472697270  1.84578361586159
 6 -2.32632158915892 -5.09718492439244  3.10690809120912
 6  2.83865018541854 -0.69137742664266 -1.32091560876088
 6  4.06365725092509 -0.40116538443844 -0.62797536033603
 6  5.03891938323832  0.32139866786679 -0.97871074807481
 6  5.05955968156816  1.25750342564256 -2.21406554155416
 6  6.45867214591459  0.37310792679268 -0.31171169556956
 6  7.64709616221622 -0.34421296929693 -0.92235256395640
 6  8.88013572517252 -0.33923573967397 -0.05616171857186
 6  10.14421988258826 -0.73967563076308 -0.67355307530753
 6  10.26385966256626 -2.16252413231323 -1.24838180418042
 6  11.44154881868187 -0.31207609870987  0.19161119861986
 6  12.65850358585859 -0.47808784228423 -0.55045255035504
 6  13.94654592639264 -0.04299001330133  0.24255066666667
 6  15.33439943094309 -0.14206328992899 -0.54976062856286
 6  15.61342761376138 -1.59657804610461 -0.96801862816282
 6  16.40143713641364  0.47547406470647  0.25849058375838
 6  17.83856144384438  0.56258998859886 -0.28799532653265
 6  18.79888030663066  1.29080715921592  0.66740999769977
 6  20.27373017741774  1.33214264676468  0.28868557455746
 6  20.39385223102310  2.21300860596060 -0.94620931683168
 6  21.08402346934693  1.87059875977598  1.36775071507151
 1 -4.02180254375437  3.60708395979598  1.65117121292129
 1 -10.09898202150215  4.00798307280728 -0.36399092529253
 1 -10.33075749984999 -2.46452198729873 -0.95594341374137
 1 -2.60076736393639 -1.15764596729673  1.69939643034303
 1 -2.24933840014001  1.86304836593659  1.40586423542354
 1 -1.71667475387539  0.77169627602760  3.40672100950095
 1 -3.07219432853285  2.00416963976398  3.64399242144214
 1 -3.24157695819582  0.44601975627563  3.80860254545454
 1 -1.81077619661966 -1.51968263906391 -0.54040204730473
 1 -1.97574394339434 -0.12354473467347 -1.08075481008101
 1 -0.29515494419442  0.68159774707471  0.75885974897490
 1 -0.05112353265327 -1.10652141874187  1.04978843714371
 1 -5.54053823152315  6.71140865286529  0.59247907920792
 1 -5.49516098739874  6.48125100650065  2.20816282878288
 1 -4.34044888948895  5.75880014801480  1.33864459705971
 1 -9.33807406720672  5.84957833983398 -0.61071242394239
 1 -9.23491255495549  8.12122184318432  0.45150492619262
 1 -7.76795472757276  7.41589842624262  1.33264222452245
 1 -12.01324179717972  3.28233738083808 -2.27572340384038
 1 -13.23462075977598  2.18268701110111 -1.74415014321432
 1 -12.26385741844184  3.19574690879088 -0.45319575907591
 1 -12.35751771667167 -1.57202812561256 -1.10169367026703
 1 -13.25963826292629 -0.08259096959696 -1.48177393179318
 1 -13.06510170937094 -1.86456011811181 -3.37492845094509
 1 -12.14891529722972 -0.33753222452245 -3.78131711011101
 1 -11.35571041044104 -1.87737876507651 -3.44086236443644
 1 -9.06156077467747 -5.02816931773177 -1.90179624262426
 1 -8.10383476867687 -5.77251320462046 -0.66349630473047
 1 -9.38378255725573 -5.05355380378038 -0.06905917461746
 1 -3.36484400290029 -3.24394099969997 -0.16622436053605
 1 -1.54442783038304 -4.39311152455246  3.44757647524753
 1 -3.05423186048605 -5.05982550745075  4.02760379807981
 1 -1.71963248374838 -6.00950173497350  2.97625098619862
 1  2.66126418121812 -1.72636925972597 -1.96627807650765
 1  2.68716515781578  0.02844092889289 -2.34150520802080
 1  4.25087557425743 -0.98887730153015  0.32353375357536
 1  4.22505781728173  1.32871841454145 -2.93529401510151
 1  5.31802873507351  2.23913433733373 -1.98437587598760
 1  5.76765633413341  0.99654084498450 -2.81772802970297
 1  6.94307249114912  1.46358633923392 -0.28845923202320
 1  6.22117999009901 -0.08844618131813  0.75019121462146
 1  7.26875899869987 -1.35284595759576 -1.13998875607561
 1  7.84621718021802 -0.00893179017902 -2.03485430833083
 1  8.98337438173817  0.65430492799280  0.35886831493149
 1  8.59600272107211 -1.20714906760676  0.78533465686569
 1  10.21139577137714 -0.04266811901190 -1.63425858385839
 1  9.67316692579258 -2.28230651415141 -2.08806718861886
 1  11.16980612121212 -2.19605300460046 -1.87431278937894
 1  10.30618281538154 -3.08805291999200 -0.50829822352235
 1  11.34607624922492  0.71794822822282  0.58608637943794
 1  11.27594519001900 -1.03027432503250  1.04547086718672
 1  12.94354230673067 -1.52371979127913 -0.81561383288329
 1  12.57500333023302  0.05635057105711 -1.46121045474547
 1  13.73722514281428  1.07460282358236  0.66186101480148
 1  14.29785809640964 -0.63698007690769  1.05363773777378
 1  15.28492889428943  0.39024242124212 -1.50387165596560
 1  15.62162595939594 -2.35114445564556 -0.09859799529953
 1  14.76119776417642 -1.96906142614261 -1.53702507600760
 1  16.56859513911391 -1.55470636763676 -1.50099661296130
 1  16.02586586008601  1.63896222992299  0.36945286158616
 1  16.37310138793879  0.04346806200620  1.46163465816582
 1  18.44009074677468 -0.36664317831783 -0.40802099769977
 1  17.83733104270427  1.13829272337234 -1.21631737533753
 1  18.42789184608461  2.31253252125213  0.82209415621562
 1  18.58252421492149  0.75525036453645  1.69667291279128
 1  20.55627545984598  0.46581757935794 -0.11782589038904
 1  20.04904172267227  3.27827860436044 -0.73449563426343
 1  21.38065186598660  2.25590673277328 -1.27716569776978
 1  19.79374777237724  1.82646293649365 -1.81689007340734
 1  21.14766862036204  1.15007064796480  2.27582125092509
 1  22.09863775657566  2.11282175287529  1.06468312191219
 1  20.61268134663467  2.72696881408141  1.89077621432143

