%nproc=4
%Mem=2GB
# td=(NStates=1) CAM-B3LYP/6-31G(d,p) 

TD

0 1
12 -7.17106767976798  0.54630337843784  0.03132081948195
 6 -4.86403102110211 -1.90703188158816  0.39668620132013
 6 -4.83789371827183  2.78569701700170  1.21811817671767
 6 -9.40346508200820  3.10501599709971 -0.38355121482148
 6 -9.66144645834584 -1.75631114211421 -0.69464589368937
 7 -5.14654807940794  0.45181499959996  0.70485090339034
 6 -4.35804551065107 -0.64160398239824  0.66500452365237
 6 -2.86261526692669 -0.28563798949895  1.05229558375838
 6 -3.03931737013701  1.03976664496450  1.71686241694169
 6 -4.46045304020402  1.47238798759876  1.12595962586259
 6 -2.89280436253625  1.37878016611661  3.22117352625263
 6 -1.86267972897290 -0.46199146054605 -0.05109115081508
 6 -0.41599902250225 -0.41527587478748  0.43610774007401
 6  0.52819395659566 -0.70852436533653 -0.56727210771077
 8  0.30094133423342 -1.05988139573957 -1.71121745344534
 8  1.83136494699470 -0.33855125152515 -0.10374716361636
 7 -7.06249669756976  2.62260785058506  0.30237893339334
 6 -5.99437871687169  3.41516249204920  0.76061959555956
 6 -6.51464871797180  4.79488377777778  0.73592427962796
 6 -7.82247495449545  4.82879351085109  0.36248463976398
 6 -8.12287655925593  3.38240743604360  0.10116266256626
 6 -5.64455241194119  6.02029449534954  1.10985574607461
 6 -8.55825362296230  5.96055708940894  0.11958894429443
 6 -8.59262315361536  7.14138025662566  0.84987123692369
 7 -9.23897617021702  0.66767962906291 -0.48898293199320
 6 -10.02479873957396  1.80233018611861 -0.74417074117412
 6 -11.27516661326132  1.45595393449345 -1.15886760626063
 6 -11.38799120302030  0.07496286038604 -1.24816353035304
 6 -10.04248992969297 -0.41914388868887 -0.80023503960396
 6 -12.31643046674667  2.45198576957696 -1.52473924872487
 6 -12.48205275157516 -0.79717712781278 -1.79254006250625
 6 -12.27529501790179 -1.07755016621662 -3.22093721232123
 7 -7.27696716501650 -1.44264387798780 -0.06193087008701
 6 -8.33725396519652 -2.22704787688769 -0.48237319251925
 6 -7.91059720532053 -3.65993426092609 -0.50483776107611
 6 -6.55424930903090 -3.50906524352435 -0.00741247314731
 6 -6.27869046544654 -2.20983926522652  0.13949675387539
 6 -8.73413088048805 -4.81332417481748 -0.78694717311731
 6 -5.37446191649165 -4.37998188168817  0.36551942454245
 8 -5.23059189708971 -5.62657714111411  0.34397142784278
 6 -4.27897147654765 -3.37429321912191  0.56976684198420
 6 -3.53155378627863 -3.71458667996800  1.87097747064706
 8 -3.70156175677568 -3.06085282148215  2.96508919001900
 8 -2.81655284898490 -4.79584430683068  1.65523410431043
 6 -2.11691227912791 -5.25241947104710  2.86259119461946
 6  2.88608111981198 -0.73053084768477 -0.97719892029203
 6  4.22928501750175 -0.34529270557056 -0.40849099809981
 6  5.23816730113011  0.30915718111811 -0.92969274197420
 6  5.10563898689869  1.19293194249425 -2.25430959625963
 6  6.55961029382938  0.39243109330933 -0.19642612781278
 6  7.66875441334133 -0.11159150605061 -0.95144209470947
 6  8.90753262586259 -0.10909604000400 -0.09415122792279
 6  10.21406203070307 -0.42963003470347 -0.95136610711071
 6  10.26419311951195 -1.94878581468147 -1.45954941994199
 6  11.53453633053305 -0.11769555035504 -0.12197132853285
 6  12.81127603530353 -0.41541559265927 -0.76608663156316
 6  14.06975644404440 -0.25602680548055  0.10581764926493
 6  15.48766489138914 -0.22320604970497 -0.57609584938494
 6  15.85465713461346 -1.69590722452245 -0.91265088278828
 6  16.38251235713571  0.34932929292929  0.44503901110111
 6  17.92906749614961  0.51930332873287 -0.16320213481348
 6  18.88119848934894  1.22549076607661  0.74181461446145
 6  20.27408607780778  1.35715604910491  0.26846160936094
 6  20.43840519431943  2.09194749194919 -0.98020901360136
 6  21.15968689948995  1.94272720902090  1.42398776217622
 1 -4.04706619111911  3.57288280968097  1.55760034693469
 1 -9.96392678537854  3.81385222022202 -0.59308469997000
 1 -10.35801909130913 -2.54468380918092 -0.98949560176018
 1 -2.81565802270227 -1.03419173307331  1.97577826902690
 1 -2.20697430263026  1.74128771137114  1.28291894229423
 1 -2.06633109060906  1.02115256815682  3.60137385088509
 1 -2.92246730673067  2.43899795729573  3.37290945634563
 1 -3.67564100680068  0.89337402140214  3.87543995679568
 1 -1.99897238213821 -1.47811777217722 -0.51470537973797
 1 -1.84412608510851  0.47188443884389 -0.69083912351235
 1 -0.38422193959396  0.56707132103210  0.81572197129713
 1 -0.42550035203520 -1.11201571677168  1.45625958115812
 1 -5.81338011341134  6.92330097419742  0.43125883508351
 1 -5.89073606300630  6.23609697279728  2.07534383148315
 1 -4.50661461746175  5.99311047744774  0.98094126972697
 1 -9.27514956745675  5.92721886998700 -0.88244847304730
 1 -8.99569078497850  7.95395613451345  0.42205182698270
 1 -8.00681014681468  7.23392979247925  1.91669005450545
 1 -12.05120922602260  3.37241756775678 -2.13140614531453
 1 -13.24521419061906  1.95068896009601 -2.02797398889889
 1 -12.64903663476348  2.95819447414741 -0.64328557255726
 1 -12.64930970937094 -1.70964040914091 -1.23772872777278
 1 -13.56618533743374 -0.27383412021202 -1.59266479397940
 1 -13.00549690229023 -1.90405509170917 -3.77184706920692
 1 -12.25029859405941 -0.25603014061406 -4.01707520322032
 1 -11.34186046534654 -1.60688555565557 -3.19064768476848
 1 -9.00757036003600 -4.62037278017802 -1.90927419151915
 1 -8.09241860666067 -5.74747475167517 -0.70305991899190
 1 -9.72042192709271 -4.86923194449445 -0.22312413501350
 1 -3.50498119401940 -3.62038528922892 -0.17475274677468
 1 -1.48740690719072 -4.68469490919092  3.39986290159016
 1 -2.77771738033803 -5.56082770037004  3.75055789468947
 1 -1.49125723722372 -6.21647092029203  2.54707866076608
 1  2.67788709280928 -1.74426626252625 -1.08049201420142
 1  2.81377885548555 -0.28443416381638 -2.17020017221722
 1  4.71916282188219 -0.99789200440044  0.41264448044804
 1  4.04581354485449  1.50659937033703 -2.51175954565456
 1  5.72331774347435  2.20564082298230 -2.21501796999700
 1  5.53937124472447  0.75798690619062 -3.14292302330233
 1  6.78314037693769  1.37129112911291  0.21828447124712
 1  6.58350246964697 -0.36763480088009  0.67733745044504
 1  7.36542392709271 -1.19308854405441 -1.30681200480048
 1  7.90880331623162  0.42171537963796 -1.95206813041304
 1  9.12604465606561  0.86295418041804  0.47370500270027
 1  8.89583807250725 -0.94360986718672  0.61719958365837
 1  10.19199675107511  0.20882342004200 -1.90295518501850
 1  9.46357134263426 -2.10795877237724 -2.35451137593759
 1  11.23912646834684 -2.10156694059406 -1.86539078297830
 1  9.94718760476048 -2.61479342134213 -0.49915935563556
 1  11.51579926082608  0.82925515571557  0.25884737223722
 1  11.46278933233323 -0.91541750305031  0.65303592519252
 1  12.87225054395440 -1.57194535573557 -1.29102677027703
 1  13.02778653115312  0.19306999799980 -1.68326168746875
 1  14.04778621532153  0.66929948594860  0.69210655365537
 1  14.21253400650065 -1.06442604730473  1.01874839133913
 1  15.42736602510251  0.31552103710371 -1.51736609460946
 1  15.88427587048705 -2.38303859595960 -0.12295374927493
 1  15.15412846354636 -2.09042141774177 -1.58922633773377
 1  16.82772240164017 -1.76930245514551 -1.51616308580858
 1  16.19683488418842  1.33318115181518  0.82498904320432
 1  16.46970141734173 -0.33958313341334  1.32598535973597
 1  18.37567850655066 -0.42839938733873 -0.38302164256426
 1  17.64155121962196  1.23318063696370 -1.13510708650865
 1  18.39737052965296  2.36095025272527  1.14547255255526
 1  18.85143230353036  0.64454863586359  1.54475447574757
 1  20.56531144384439  0.12458860706071  0.04690175417542
 1  20.23690779737974  3.20043360526053 -0.83274686808681
 1  21.45581983408341  2.18713536633663 -1.38710007330733
 1  19.76354025842585  1.57537934873487 -1.82163913291329
 1  21.15991196639664  1.36606471557156  2.50048966616662
 1  22.29541124742474  1.82437366706671  0.97808277457746
 1  21.02005173507351  3.04836491979198  1.75979642014201

