%nproc=4
%Mem=3GB
# td=(NStates=1) iop(3/107=0140000000,3/108=0140000000) CAM-B3LYP/6-31G(d,p) 

TD

0 1
12 -7.17000169186919  0.56865524902490  0.23174954495450
 6 -4.83957277377738 -1.95491272187219  0.43781918431843
 6 -4.78072410301030  2.84294301220122  1.21845195039504
 6 -9.43557032153215  3.12587014001400 -0.29045152045205
 6 -9.66201229922992 -1.71456322202220 -0.89529633453345
 7 -5.17603463466347  0.43146923752375  0.82336016001600
 6 -4.39302154945495 -0.67872901610161  0.75521341604160
 6 -2.96584280488049 -0.35788418641864  1.21488715781578
 6 -3.04084731163116  1.05504420602060  1.80763704300430
 6 -4.40674090879088  1.50900555165517  1.26280067396740
 6 -3.01392757355736  1.13815663496350  3.29363467806781
 6 -1.87404313401340 -0.62226821602160  0.04932874317432
 6 -0.40394610381038 -0.59831307930793  0.57041042334233
 6  0.54603652685269 -0.84183080498050 -0.60282007210721
 8  0.28609882668267 -1.12354613231323 -1.71038843194319
 8  1.75460405880588 -0.55457539593959 -0.24939032663266
 7 -7.11359900330033  2.62600581048105  0.32964388848885
 6 -5.96549669346935  3.38822258965897  0.66893276937694
 6 -6.35511041944194  4.84888175177518  0.72707096579658
 6 -7.67264204950495  4.84052585778578  0.32782890929093
 6 -8.11329085658566  3.46887382618262  0.02490048864886
 6 -5.38280031393139  5.86704617831783  1.01407156235624
 6 -8.49805981398140  6.04775504510451  0.01677228972897
 6 -8.38853726372637  7.26458560826083  0.54736879617962
 7 -9.14055309640964  0.68404539893989 -0.44348092199220
 6 -9.91452893919392  1.77480080438044 -0.54824763826383
 6 -11.33685763846385  1.54466391089109 -0.92663752345235
 6 -11.21904139133913  0.21427897369737 -1.17890791909191
 6 -9.96717432103210 -0.37401759515952 -0.87680988228823
 6 -12.37053799149915  2.61802704410441 -1.25186463916392
 6 -12.35671946484648 -0.74516063986399 -1.76503583418342
 6 -12.28057996689669 -1.07357755005501 -3.25238588978898
 7 -7.22148511091109 -1.34565940164016 -0.24021669676968
 6 -8.31496582288229 -2.14753329882988 -0.55042662256226
 6 -7.88382042184218 -3.55449600100010 -0.57543784358436
 6 -6.60157794829483 -3.46956993909391 -0.19887196889689
 6 -6.21602533423342 -2.13212116791679  0.05480731613161
 6 -8.75899823932393 -4.68470456885689 -0.82270565366537
 6 -5.39051451435143 -4.28368193159316  0.10291526562656
 8 -5.19359035133513 -5.50930778777878  0.04000994959496
 6 -4.25553005560556 -3.25793324072407  0.61220954255426
 6 -3.63814799159916 -3.68802674537454  1.89193516201620
 8 -4.00605338873887 -3.12772012991299  2.92623598179818
 8 -2.90610596339634 -4.74330294879488  1.70815985348535
 6 -2.33859281628163 -5.35747095299530  2.91288868926893
 6  2.88338465886589 -0.85646393529353 -1.18345186238624
 6  4.21946283148315 -0.65537080498050 -0.53511607440744
 6  5.22290778207821  0.23627015501550 -0.95051792879288
 6  5.09149287488749  1.18816649194919 -2.09509364436444
 6  6.51588786748675  0.28970958695870 -0.18323884828483
 6  7.65610706330633 -0.36914546254625 -1.01259158785879
 6  9.00573828542854 -0.26246806290629 -0.13071917431743
 6  10.26606206680668 -0.61099276247625 -0.79221494149415
 6  10.12040531713171 -2.10406828672867 -1.27649461546155
 6  11.58283294709471 -0.39863475457546 -0.05566352885289
 6  12.90219795529553 -0.52422245574557 -0.67313481858186
 6  14.08549982178218 -0.13973968826883  0.14526093769377
 6  15.39548553955396 -0.19399848344834 -0.48531418391839
 6  15.85888215921592 -1.60675906420642 -0.94501632793279
 6  16.51499849254926  0.38287480478048  0.32600733543354
 6  17.90691827952795  0.66424015361536 -0.26794332133213
 6  18.77098751735173  1.33758183668367  0.73857711441144
 6  20.32283508790879  1.52808224072407  0.32696940294029
 6  20.47766061186119  2.22348965406541 -1.07390208610861
 6  21.06582164916492  2.34561626152615  1.36511045104510
 1 -4.04813517701770  3.52964621602160  1.56900299609961
 1 -10.14629675297530  3.99038131263126 -0.16414094029403
 1 -10.40554497859786 -2.35532106720672 -0.92669048844885
 1 -2.79756704390439 -1.04535473817382  1.96425291599160
 1 -2.02657612391239  1.57603966506651  1.41086473547355
 1 -2.10931401780178  0.75616472287229  3.81677201460146
 1 -2.93173028212821  2.17225644844484  3.52760078227823
 1 -3.86019882038204  0.68244339863986  3.65926761196120
 1 -2.04829994899490 -1.68286895769577 -0.47267527462746
 1 -2.02807917691769  0.21625924572457 -0.55753248784878
 1 -0.37177260596060  0.46130571787179  0.93073693669367
 1 -0.05425384568457 -1.24238500510051  1.38863232153215
 1 -5.78961313901390  6.92933044504450  0.56705653695370
 1 -5.22921439273927  6.11497437883788  2.01307331983198
 1 -4.47741258585858  5.67049131713171  0.62360309290929
 1 -9.32112237203720  5.77458084008401 -0.71792314501450
 1 -9.25678474217422  8.07648736973697  0.30131990769077
 1 -7.56836476857686  7.52299913631363  1.19813877417742
 1 -12.32998347134713  3.31069021612161 -1.91045687718772
 1 -13.25403270097010  1.81345008740874 -1.54759048724872
 1 -12.70883191589159  3.12241957605761 -0.30886132563256
 1 -12.65622758765877 -1.64981590439044 -1.13292679357936
 1 -13.50610290939094 -0.14675738623862 -1.81792754715472
 1 -12.90580577977798 -1.77773143524352 -3.57231818991899
 1 -12.51968237393739 -0.21036950825083 -3.69751873027303
 1 -11.20926576597660 -1.39804083128313 -3.57001527972797
 1 -9.40405502410241 -4.68039454025403 -1.78420448344834
 1 -8.17723210841084 -5.65449140244024 -0.85337529262926
 1 -9.58554273327333 -4.65462391079108 -0.12717498619862
 1 -3.45589310781078 -3.27752435803580  0.04065632753275
 1 -1.94048743634363 -4.55315752915292  3.61155287288729
 1 -3.19545598289829 -5.90663018791879  3.45049608730873
 1 -1.64249476997700 -6.00981176597660  2.44877823892389
 1  2.79985804060406 -1.70495711851185 -1.85327677637764
 1  2.69330577187719  0.12228031283128 -1.87029808730873
 1  4.60314080078008 -1.27441585538554  0.31337273747375
 1  4.00874618611861  1.34259980268027 -2.65833631933193
 1  5.10679761196120  2.34647507140714 -1.78090552895290
 1  5.75955552405241  0.96402759365937 -3.00299655655566
 1  6.75993417731773  1.26185616621662  0.26360597449745
 1  6.37896576867687 -0.36298363506351  0.75831202670267
 1  7.52362448524852 -1.39087976097610 -1.43031778897890
 1  7.88943150165017  0.20424952795280 -1.98574939783978
 1  9.17266331063106  0.68757825532553  0.06645907400740
 1  8.63175629642964 -0.59503785648565  0.86639276267627
 1  10.34093872567257 -0.00145399759976 -1.70683584158416
 1  9.31944155325533 -2.33943222672267 -1.99516789868987
 1  10.92514165476548 -2.43090648994899 -1.94894025212521
 1  10.08461065816582 -2.71690580528053 -0.29741713541354
 1  11.41034267586759  0.59758619201920  0.39494726552655
 1  11.56385398089809 -1.07058835643564  0.91407772787279
 1  13.19705765826583 -1.62894031333133 -1.05440771227123
 1  13.12278810871087  0.07400233623362 -1.53660799449945
 1  13.86426784708471  0.90989635293529  0.31809663836384
 1  14.17951626222622 -0.95928230713071  0.97067944194419
 1  15.33134353575358  0.48550194719472 -1.39132040084008
 1  15.92960675747575 -2.21998133933393 -0.02450058555856
 1  15.04097574197420 -2.19202372237224 -1.41706307980798
 1  16.79824810441044 -1.64103500050005 -1.44993150645064
 1  16.16261953545354  1.26384471817182  0.84384030033003
 1  16.65701977977798 -0.07226351115111  1.34166266096610
 1  18.38001473917392 -0.10763727772777 -0.58933912951295
 1  18.01108841844184  1.17123601770177 -1.34175991959196
 1  18.37621667856786  2.34673594159416  0.96308825562556
 1  18.72233819631963  0.57443228272827  1.54149739523952
 1  20.68907874017402  0.51729272687269  0.10040593279328
 1  19.87024384288429  3.21141191769177 -1.04915710041004
 1  21.45655945674568  2.26835797789779 -1.37181516271627
 1  19.71349974757476  1.75910620082008 -1.98424680908091
 1  21.22418627212721  1.70552619351935  2.43525719451945
 1  22.10537843064306  2.51979244994499  1.05999265286529
 1  20.61791186968697  3.21745786298630  1.76150328702870

