%nproc=4
%Mem=2GB
# td=(NStates=1) CAM-B3LYP/6-31G(d,p) 

TD

0 1
12 -7.08560913391339  0.62658140624062 -0.01212352495250
 6 -4.85477009500950 -1.90524170257026  0.56825335803580
 6 -4.77969789868987  2.84434288158816  1.22972933783378
 6 -9.35888062356236  3.03815931143114 -0.45027788748875
 6 -9.53807412111211 -1.74596010701070 -0.89442587168717
 7 -5.08781220582058  0.44056387448745  0.77919833813381
 6 -4.36337604370437 -0.63910373237324  0.82398042124212
 6 -2.91208021342134 -0.33088251395140  1.19809016321632
 6 -3.03303674207421  1.11947461576158  1.74611534223422
 6 -4.41703869876988  1.57171792059206  1.12752978287829
 6 -2.89610469256926  1.39422171027103  3.27489889878988
 6 -1.87418087908791 -0.64217947934793  0.08215217351735
 6 -0.51799922252225 -0.41448579577958  0.58437256655666
 6  0.50619175637564 -0.59545305820582 -0.65261064156416
 8  0.22402364246425 -0.97634304190419 -1.76479281098110
 8  1.74525633613361 -0.50700809720972 -0.15378216711671
 7 -7.09933038093809  2.64002959275928  0.33474216971697
 6 -6.03962324132413  3.40830180598060  0.78196172977298
 6 -6.38279553265327  4.73621791119112  0.79377006420642
 6 -7.70101280828083  4.85123575507551  0.26107449874987
 6 -8.10262453405341  3.44399359465947 -0.01982943664366
 6 -5.47055501220122  5.91300376627663  1.19090385088509
 6 -8.52669046664666  5.96913794749475  0.07915490089009
 6 -8.44968886018602  7.17913403200320  0.71467771757176
 7 -9.02255452805280  0.64461732283228 -0.63460749444944
 6 -9.82806906660666  1.74861481458146 -0.69771609570957
 6 -11.24771386798680  1.46547488658866 -1.13819553905391
 6 -11.24774717861786  0.09854521862186 -1.16568528252825
 6 -9.90561624232423 -0.40212218651865 -0.84866988308831
 6 -12.24609343304330  2.50066063706371 -1.38805558035804
 6 -12.34425897219722 -0.80890830093009 -1.60448125662566
 6 -12.47158464686469 -1.07291970317032 -3.12897801640164
 7 -7.14360382868287 -1.38568818241824 -0.17525220222022
 6 -8.15695593539354 -2.22934810691069 -0.51942689788979
 6 -7.78896504210421 -3.63011127862786 -0.60308758605861
 6 -6.51509539363936 -3.50635497249725 -0.13999573147315
 6 -6.11786438283828 -2.18500678197820  0.02836564076408
 6 -8.52548001540154 -4.90316315871587 -0.86715519391939
 6 -5.29121359165917 -4.31310519401940  0.13224609720972
 8 -5.12374121202120 -5.53482796619662  0.18418544924492
 6 -4.16370995039504 -3.32471826162616  0.59360922622262
 6 -3.52568319921992 -3.69406462776278  1.86778715161516
 8 -3.80130173077308 -3.12209894609461  2.92067474857486
 8 -2.74246544024402 -4.76496121852185  1.74746332723272
 6 -2.27773836173617 -5.31676590569057  2.94947988348835
 6  2.78076058775878 -0.74859265386539 -1.10633183358336
 6  4.05873796279628 -0.59558773507351 -0.52760290929093
 6  5.09173265766577  0.23035930133013 -0.94965473817382
 6  4.95196361936194  1.11127377667767 -2.01870603590359
 6  6.37923225602560  0.40741259145915 -0.20955744094409
 6  7.62489002690269 -0.19253960086009 -0.91124807530753
 6  8.87511938453845 -0.08825395579558 -0.11321313411341
 6  10.20540116461646 -0.61979905160516 -0.85825679617962
 6  10.09040574077408 -2.09773070917092 -1.25717918291829
 6  11.41763464036404 -0.28164194499450 -0.04700383178318
 6  12.72726763446345 -0.42267631873187 -0.76189621252125
 6  13.98144761316132 -0.15892709550955  0.05878294579458
 6  15.36572269716972 -0.22589631873187 -0.59602784258426
 6  15.70017168606861 -1.66258389218922 -0.84305392309231
 6  16.42243634953496  0.34543890389039  0.35624013121312
 6  17.86039062846285  0.58022942134213 -0.17965377997800
 6  18.67982835233524  1.42202041904190  0.67276770977098
 6  20.22035070427043  1.41043137663766  0.27530229342934
 6  20.37396875067507  2.21757005420542 -1.08030902360236
 6  21.06857778857886  1.95765870217022  1.38244360776078
 1 -4.16145763026303  3.57942346374637  1.78297288418842
 1 -10.29632002470247  3.72755359035904 -0.63054844634463
 1 -10.22746603600360 -2.46425576637664 -1.23596024822482
 1 -2.64660111701170 -0.83929224312431  2.10142083328333
 1 -2.34426803200320  1.76192977557756  1.14886553695370
 1 -1.69544400190019  1.30694114701470  3.53787750125012
 1 -3.24803986398640  2.32763682118212  3.61490365576558
 1 -3.54958840154015  0.77228191219122  3.81355376817682
 1 -2.08203068796880 -1.43148310871087 -0.49366327552755
 1 -1.90360203270327  0.12636988738874 -0.76807684728473
 1 -0.37626114351435  0.56328094199420  0.92041244034403
 1 -0.07303510551055 -1.08396291149115  1.45639959515952
 1 -5.91617039243924  6.78487713181318  0.44962067126713
 1 -5.37717470687069  6.41907527062706  2.11796809390939
 1 -4.50390434643464  5.36553772017202  1.07798097369737
 1 -9.45484753725373  5.99209535763576 -0.44296452465247
 1 -9.17886910281028  8.02280301920192  0.24054367616762
 1 -7.79941940774077  7.28288468796880  1.49965835133513
 1 -11.81857596269627  3.48307863386339 -1.91516452115212
 1 -13.19341901110111  2.06629052025202 -2.02070326182618
 1 -12.66335806690669  2.96138479317932 -0.42919416341634
 1 -12.33716849524953 -1.71377082218222 -0.97563251815182
 1 -13.35252397129713 -0.36217295409541 -1.44661018851885
 1 -13.36458281088109 -1.58572325852585 -3.42130201470147
 1 -12.55218878307831 -0.19362389999000 -3.54503799949995
 1 -11.62568884818482 -1.60488535563556 -3.32373099309931
 1 -8.77029663266327 -5.24927567046705 -1.97313057715772
 1 -8.03199256405641 -5.74313431763176 -0.29939955295530
 1 -9.63493337823782 -4.79305432673267 -0.46568839143914
 1 -3.42973366926693 -3.59739298999900 -0.26038130963096
 1 -1.60799896639664 -4.70007644734473  3.67890080538054
 1 -2.95483509210921 -5.94483610121012  3.55673851275128
 1 -1.52530064156416 -6.06545581878188  2.72140609350935
 1  2.68557786188619 -1.72703453935394 -1.79801376637664
 1  2.70811828942894  0.16472075167517 -1.92436558875888
 1  4.40515142074207 -1.48875109030903  0.20783399939994
 1  3.80549951345134  1.21581029142914 -2.42759112881288
 1  5.26710212191219  2.10951121002100 -1.66846331453145
 1  5.51425873347335  0.76923803130313 -3.06409514051405
 1  6.59220128302830  1.50008400840084  0.01101374417442
 1  6.37097121652165  0.15767773037304  0.73708342504250
 1  7.45760314501450 -1.19770900610061 -1.29092041564156
 1  7.72256469236924  0.39111231933193 -1.79301222482248
 1  9.22746479807981  0.95268315331533  0.29855748794879
 1  8.58534702340234 -0.72496800300030  0.70912877657766
 1  10.37178472987299  0.03584612231223 -1.74227911741174
 1  9.54777976347635 -2.29746772327233 -2.16175210001000
 1  11.15595815151515 -2.35660244414441 -1.47951219511951
 1  9.65424831083108 -2.78415035703570 -0.33935337503750
 1  11.36960464136414  0.66873910411041  0.33446493399340
 1  11.65569862326233 -0.82093805510551  0.96029665126513
 1  12.85153847274727 -1.53607176837684 -1.05550321792179
 1  12.92892664516452  0.13113380438044 -1.64170753205321
 1  13.76328776547655  0.82119467546755  0.38196553955396
 1  14.00054280738074 -0.75100470517052  1.16595311181118
 1  15.27284057255726  0.29738922392239 -1.55182954095410
 1  15.91940938383838 -2.19441973407341  0.17922646874687
 1  14.92253530423042 -2.20269264486449 -1.43078049314932
 1  16.58432806220622 -1.87585311021102 -1.36570804030403
 1  16.15054025472547  1.44427226092609  1.04538108240824
 1  16.42574702190219 -0.17767694279428  1.32678543974397
 1  18.29082002070207 -0.35417196459646 -0.63362670307031
 1  17.70735780028003  1.15263258215822 -1.23739731553155
 1  18.45953674627463  2.45537969566957  0.52474047934793
 1  18.71793895419542  1.01831601260126  1.62779277957796
 1  20.38021293399340  0.32580872907291  0.09984704870487
 1  20.13064717131713  3.29974353625363 -0.95817941134113
 1  21.34912916501650  2.18562521532153 -1.33674503780378
 1  19.71278518291829  1.70308211901190 -1.93326029502950
 1  21.16640261546155  1.23132124122412  2.27550716791679
 1  22.11732343864386  1.79148037773777  1.22289725602560
 1  20.85046477637764  3.07524760806081  1.49965040554055

