%nproc=4
%Mem=2GB
# td=(NStates=1) CAM-B3LYP/6-31G(d,p) 

TD

0 1
<<<<<<< HEAD
12 -7.26086665966597  0.58772752085209  0.11073876127613
 6 -4.90412503050305 -1.90721189958996  0.64060059275928
 6 -4.85894582348235  2.89819826712671  1.23892025692569
 6 -9.35614034953495  3.05242073757376 -0.45085794549455
 6 -9.57092740644064 -1.77363287428743 -0.93997042614261
 7 -5.11273469806981  0.38118793689369  0.70400081838184
 6 -4.31869157525753 -0.71003082508251  0.84825284848485
 6 -2.88692769816982 -0.36336576227623  1.28510886508651
 6 -3.03837727612761  1.09163183148315  1.74928565926593
 6 -4.41585858075808  1.53753450225022  1.20403743364336
 6 -3.05616069816982  1.33028531663166  3.20898230713071
 6 -1.93098655965597 -0.50495575697570  0.09161311961196
 6 -0.50743816641664 -0.28550289748975  0.58427255655566
 6  0.54259539673967 -0.69789330223022 -0.58878425892589
 8  0.28255949604961 -1.08561396899690 -1.64303063476348
 8  1.82233404390439 -0.48269566596660 -0.11886867576758
 7 -7.13043349124913  2.58987457725773  0.47342603810381
 6 -6.06215549454946  3.39558053385339  0.83833736733673
 6 -6.56170342344234  4.76902119151915  0.85719640684068
 6 -7.77940064706471  4.78139877137714  0.34688307960796
 6 -8.14887915951595  3.44163335863586 -0.01019847354735
 6 -5.47896585328533  5.87104957085709  1.18804356485649
 6 -8.68355615321532  5.95460649434944  0.08162514791479
 6 -8.62256614791479  7.13735985458546  0.77220347014701
 7 -9.10825309790979  0.64953781488149 -0.60157419111911
 6 -9.91098735843584  1.75502545564556 -0.73915023912391
 6 -11.21834093069307  1.35994433353335 -1.13101482098210
 6 -11.19284168806881  0.06714207830783 -1.30348906290629
 6 -9.94367004770477 -0.41926390069007 -0.95674069016902
 6 -12.38861768546855  2.35426599759976 -1.41580835563556
 6 -12.41240578687869 -0.66920433053305 -1.89633044154415
 6 -12.34465195359536 -0.94464687588759 -3.41248636723672
 7 -7.26968643694369 -1.37900751435143 -0.16888156515652
 6 -8.28565880568057 -2.27960313241324 -0.59052400760076
 6 -7.85638178377838 -3.54120238773877 -0.50415769306931
 6 -6.48510239433943 -3.55328966596660 -0.05059679157916
 6 -6.19091168756876 -2.21093937523752  0.15092789698970
 6 -8.55836330373037 -4.83487633003300 -0.96696517491749
 6 -5.42633710401040 -4.32598648214822  0.25730860346035
 8 -5.15021385928593 -5.48560304370437  0.28667569826983
 6 -4.31276485588559 -3.26692248204820  0.55792565786579
 6 -3.51383201410141 -3.65780100140014  1.87135750865087
 8 -3.61894349494949 -3.05986272247225  2.95323800490049
 8 -2.68977017071707 -4.65085980838084  1.77646622752275
 6 -2.05524611251125 -5.18146237533753  2.94395933143314
 6  2.79553206490649 -0.75119291389139 -1.11043224362436
 6  4.11638372737274 -0.45201337763776 -0.41048119711971
 6  5.13715720012001  0.20535680108011 -0.93924369706971
 6  5.03594201720172  0.97325997529753 -2.22713687898790
 6  6.39664399719972  0.38523037323732 -0.25432191739174
 6  7.67843538143814 -0.11120146704670 -0.98604555505551
 6  8.97096896949695 -0.03875900630063 -0.20744255705571
 6  10.31182180668067 -0.46900397209721 -0.97303827432743
 6  10.23683038323832 -1.93588452455245 -1.32321578657866
 6  11.45935881278128 -0.14531831263126 -0.05151428282828
 6  12.91107601530153 -0.43848789988999 -0.65992601550155
 6  14.05193466186619  0.01283008020802  0.18623569106911
 6  15.36489261416142 -0.23602733183318 -0.49363760356036
 6  15.54712638153815 -1.75424305810581 -0.90067968566857
 6  16.48100220612061  0.38255261526153  0.35008951615162
 6  17.84919950935094  0.27092849124912 -0.26748256285629
 6  18.86696706620662  1.05080329732973  0.62997343034303
 6  20.34126279547955  1.32166249974998  0.16991175437544
 6  20.41754310811081  2.29358765596560 -0.99293028572857
 6  21.18674960576058  1.96434937123712  1.35488085148515
 1 -3.95653713821382  3.59834535593559  1.44128871577158
 1 -10.14444483718372  3.82570340534053 -0.56694208570857
 1 -10.39408269766977 -2.36899624042404 -1.52215886808681
 1 -2.57008346524652 -0.99650796469647  2.13627431863186
 1 -2.35519912511251  1.85346892949295  1.37844849524952
 1 -1.93604806230623  1.04617507040704  3.42447616111611
 1 -3.47742280228023  2.29338339583958  3.30674283968397
 1 -3.83463690639064  0.74926961096110  3.78005041784178
 1 -1.85755824072407 -1.52329228962896 -0.33429733893389
 1 -2.07039871237124  0.16658390879088 -0.64739477907791
 1 -0.28650216761676  0.85100971487149  0.84789518861886
 1 -0.35285308730873 -0.86575109030903  1.41915587078708
 1 -5.75347412281228  6.77240588468847  0.70311602080208
 1 -5.46695368476848  5.81885524862486  2.30661695879588
 1 -4.54220817681768  5.55860702710271  0.67043021862186
 1 -9.31913396589659  5.93308945704570 -0.87809803800380
 1 -9.18895011091109  7.92440317921792  0.65719534133413
 1 -7.92013147894790  7.25211161066107  1.64022240774077
 1 -11.99816392149215  2.95528585458546 -2.27876088078808
 1 -13.29322899209921  1.71525541674167 -1.74685587708771
 1 -12.32263399449945  3.07932658735873 -0.39925116911691
 1 -12.42278705710571 -1.82245169026903 -1.28322327722772
 1 -13.24037275617562 -0.06139287608761 -1.55616114361436
 1 -13.23390974357436 -1.52557724392439 -3.58942882738274
 1 -12.17134069826983 -0.04570910851085 -4.02917641334133
 1 -11.47656393569357 -1.75146001310131 -3.26073469346935
 1 -8.77877748074808 -4.81529227212721 -2.01262452655266
 1 -8.00957032183218 -5.80510051425142 -0.49470908390839
 1 -9.77649753465347 -4.93371839313931 -0.52649447204720
 1 -3.23611430733073 -3.34572782348235 -0.09008427992799
 1 -1.16492465896590 -4.45274171387139  3.28303121842184
 1 -2.70331994059406 -5.26667828542854  3.91763460236024
 1 -1.67546565806581 -6.17954722792279  2.45806975987599
 1  2.88902820692069 -1.88863069896990 -1.41802576757676
 1  2.66608408600860 -0.18289400980098 -1.99929308150815
 1  4.17930883648365 -1.03546576177618  0.35948916491649
 1  4.00096906040604  1.07660637103710 -2.41276964666467
 1  5.29154456615661  2.05894615351535 -2.20772724092409
 1  5.53427073467347  0.67620872837284 -3.07662639363936
 1  6.68890095299530  1.44454845484548 -0.07226458365837
 1  6.25790991039104 -0.30663870127013  0.67814753145315
 1  7.18097548224822 -1.15548478367837 -1.36578790239024
 1  7.81080351625162  0.82187539563956 -1.91896482008201
 1  9.21236328792879  1.02104998999900 -0.14152652045205
 1  8.93097158585859 -0.48482398859886  0.90030789448945
 1  10.25770332173217  0.28686122382238 -1.86290117961796
 1  9.47204218971897 -2.05374335083508 -2.03176910171017
 1  11.08722127782778 -2.25002178607861 -1.73940818471847
 1  9.79770265626563 -2.50203214521452 -0.24743418311831
 1  11.46525420632063  0.81201343154315  0.36824831233123
 1  11.31536458985899 -0.79126508780878  0.91817243884388
 1  12.96110942984298 -1.59856801800180 -1.17809547714772
 1  12.98510226272627  0.05932662366237 -1.63799716101610
 1  13.96899833653365  1.21364392039204  0.27939528252825
 1  14.42671542464246 -0.42023162786279  1.10320683718372
 1  15.33743703220322  0.07214669966997 -1.56643100110011
 1  15.22187963086309 -2.31918221032103 -0.03948540244024
 1  14.61718476917692 -1.89794216981698 -1.71970938603860
 1  16.55633526292629 -1.95940146504650 -1.31622309180918
 1  16.24015921662166  1.46363419711971  0.66216276057606
 1  16.55479992719272 -0.17233640874087  1.19979274047405
 1  18.02650358905890 -0.80727727512751  0.06266292589259
 1  18.05826289078908  0.65109242814281 -1.36141971777178
 1  18.35421621422142  1.83318747644764  0.82353035833583
 1  18.94896205650565  0.45243942494249  1.45760576087609
 1  20.89440435313531  0.31837798599860 -0.05702863886389
 1  19.97693179977998  3.16171973387339 -0.56636022942294
 1  21.45161941404140  2.66759341214121 -1.18312967626763
 1  19.96786069046905  1.76539835063506 -1.86036300530053
 1  21.13696967216722  1.15618372747275  2.16906652385239
 1  22.25250695699570  2.13407463716372  0.86300126642664
 1  20.79815954585459  2.99945002830283  1.69560000050005
=======
12 -7.16352692569257  0.61141989008901  0.12848053545355
 6 -4.91488610661066 -1.99895107350735  0.58902543524352
 6 -4.80799072797280  2.79477792509251  1.06269263416342
 6 -9.41316605210521  3.12724822032203 -0.41659451915192
 6 -9.50896120982098 -1.69781529252925 -0.92356878597860
 7 -5.10949437403740  0.44199401750175  0.76496691499150
 6 -4.38761846794679 -0.74654447644764  0.87956597979798
 6 -2.92856186158616 -0.43056248194819  1.19046940114011
 6 -3.10602404080408  1.03343601190119  1.67615834653465
 6 -4.37331432633263  1.46862761156116  1.08756578647865
 6 -2.93572865496550  1.31601388948895  3.12664407330733
 6 -1.96262972397240 -0.67525278667867  0.07753171147115
 6 -0.45961338393839 -0.46612095929593  0.54335846514651
 6  0.51205234243424 -0.62806631953195 -0.63350873137314
 8  0.20022126222622 -0.86290169776978 -1.78502483418342
 8  1.73052486298630 -0.50652804920492 -0.19301609050905
 7 -7.16091653955396  2.58189377917792  0.43369206470647
 6 -6.10351963096310  3.29048002380238  0.70936447004700
 6 -6.41571882498250  4.73230752015202  0.63388407560756
 6 -7.74074678167817  4.85838647014701  0.24152254355436
 6 -8.20417468906891  3.47998719401940  0.07209975627563
 6 -5.52679063576358  5.75051751765177  1.15698045854585
 6 -8.62231002860286  6.03302433613361  0.12847983338334
 6 -8.55951984328433  7.17041315991599  0.66044229402940
 7 -9.13895616821682  0.70464332543254 -0.48888292199220
 6 -9.92083834353435  1.79363931703170 -0.62329865396540
 6 -11.20985008160816  1.45551389048905 -1.12196391589159
 6 -11.20248265216522  0.02841820592059 -1.16531524552455
 6 -9.93180886158616 -0.37200917521752 -0.91932694879488
 6 -12.31470029372937  2.49004957595760 -1.29095587038704
 6 -12.33361790809081 -0.73106051615162 -1.74076488498850
 6 -12.20752824122412 -1.06948936013601 -3.25189030763076
 7 -7.26278574687469 -1.33212282588259 -0.15314999199920
 6 -8.26129636943694 -2.19807497959796 -0.54039899509951
 6 -7.82992913851385 -3.58779704720472 -0.54810208750875
 6 -6.52926681078108 -3.52603694069407 -0.11364309620962
 6 -6.25125772217222 -2.25641392269227  0.16606941114111
 6 -8.72802026942694 -4.78011085348535 -0.84243272167217
 6 -5.39196366666667 -4.41215509900990  0.24129700230023
 8 -5.06067490539054 -5.63667815121512  0.31470850155016
 6 -4.17503108250825 -3.34700048984898  0.58019788508851
 6 -3.50852148304830 -3.72314753605361  1.83854422732273
 8 -3.72701430203020 -3.19754649084908  2.92157483858386
 8 -2.64916611031103 -4.73832855525553  1.65661424232423
 6 -2.10433102100210 -5.19384361346135  2.94240917641764
 6  2.85382789448945 -0.68201599619962 -1.22749394979498
 6  4.15256734573457 -0.39359753605361 -0.47676782578258
 6  5.17577106150615  0.40496676207621 -0.93314308700870
 6  5.07425584858486  1.26880953025303 -2.20709487478748
 6  6.44241857465747  0.45305715591559 -0.14544102930293
 6  7.61745928382838 -0.12205255215522 -0.96116306680668
 6  8.86907878047805  0.01127599719972 -0.12012382518252
 6  10.15368599309931 -0.52583965566557 -0.77760873137314
 6  10.12930963116312 -2.04435537163716 -1.05620908590859
 6  11.43120599749975 -0.24233801460146  0.08473934253425
 6  12.78432334003400 -0.48108215931593 -0.64539456235624
 6  13.94405387378738 -0.03105430823082  0.05119218671867
 6  15.40931705660566 -0.20051378047805 -0.50963920372037
 6  15.71201287018702 -1.56492412621262 -1.03709332703270
 6  16.45948005390539  0.42231659165917  0.32899740694069
 6  17.89622421182118  0.55394679307931 -0.27867368196820
 6  18.77285765526553  1.34838305530553  0.74413484648465
 6  20.30881955115511  1.22982331583158  0.27955271847185
 6  20.45761711551155  1.83959225642564 -1.13902489518952
 6  21.24963589438944  1.88205114141414  1.35989135253525
 1 -4.05639712421242  3.59825534693469  1.23952853975398
 1 -10.15700609330933  4.00407124212421 -0.41886727822782
 1 -10.28825211461146 -2.31039037983798 -1.18858551075108
 1 -2.62420887778778 -1.11794010791079  2.22880357155716
 1 -2.43564716991699  1.76637021962196  1.13745439583958
 1 -1.83977843534353  0.83895434833483  3.46603031653165
 1 -3.00769582958296  2.45718977647765  3.42259442484248
 1 -3.65255869856986  0.55423010701070  3.71198361116112
 1 -2.07507999289929 -1.68954891529153 -0.40370427962796
 1 -2.21402307480748 -0.02729547914791 -0.83304334393439
 1 -0.17904142154215  0.45740035393539  1.13521392049205
 1 -0.12243004500450 -1.23942845804580  1.18681263646365
 1 -5.67364614001400  6.85721436553655  0.68278398759876
 1 -5.63981097049705  5.72742610571057  2.19608590569057
 1 -4.49498345434543  5.42700386678668  0.74053722932293
 1 -9.03855590809081  5.92853900200020 -0.87592782098210
 1 -9.21891310721072  8.00286102500250  0.21408102990299
 1 -7.96521598739874  7.48022442194219  1.60876926242624
 1 -12.31346545164516  2.95383570957096 -2.35199820452045
 1 -13.35282495169517  2.05011890309031 -1.40714190569057
 1 -12.27964969606961  3.11322997769777 -0.35610685468547
 1 -12.38896367476748 -1.55073451855186 -1.18027298219822
 1 -13.22273099199920 -0.04519125592559 -1.62310783828383
 1 -12.95519187178718 -1.81516620282028 -3.70094997949795
 1 -12.42383594779478 -0.06663120072007 -3.76081957765777
 1 -11.19702598189819 -1.44857972507251 -3.42803142314231
 1 -9.01575117811781 -4.85125586848685 -1.91002426652665
 1 -8.14942430723072 -5.71772177637764 -0.43260287328733
 1 -9.64360424532453 -4.82278730003000 -0.38322014461446
 1 -3.46578727462746 -3.30642389308931 -0.36948221972197
 1 -1.18751691819182 -4.41593803350335  3.24614753005301
 1 -2.83669327792779 -5.20259187678768  3.68866170507051
 1 -1.70161827332733 -6.13231250445045  2.48494244714471
 1  2.57170647474747 -1.57654949084909 -1.38887285228523
 1  2.50274775237524 -0.23462918331833 -1.98773192539254
 1  4.24994590019002 -0.89427164236424  0.49834305030503
 1  4.10141910541054  1.17080579097910 -2.40186855655566
 1  5.49568498019802  2.18707896679668 -1.82715918411841
 1  5.95930323792379  0.99573068056806 -2.92997172817282
 1  6.72139420232023  1.41548554855486 -0.04799215641564
 1  6.20348446784678  0.07736969956996  0.87897761446145
 1  7.41448883358336 -1.20862009720972 -1.30327165076508
 1  7.78327076297630  0.50877408550855 -1.99475239883988
 1  9.01584363596360  1.16323420842084  0.25323295549555
 1  8.48388687738774 -0.45007051325133  0.84162202590259
 1  10.53402095349535  0.06594913261326 -1.60632552205221
 1  9.34832981848185 -2.20678865536554 -1.76370229502950
 1  11.00352290799080 -2.35749253315332 -1.62533677757776
 1  9.89797268326833 -2.75560750275028 -0.29173861356136
 1  11.39343702460246  0.83962619281928  0.22952443994399
 1  11.27208026142614 -0.69552551385138  1.08296891849185
 1  13.06889020792079 -1.56964512571257 -0.82352001960196
 1  12.74651840434043  0.08984967596760 -1.67265062636264
 1  13.80464190089009  0.95786834283428  0.47001434443444
 1  13.90662341544155 -0.53682328702870  1.03362987948795
 1  15.29939322782278  0.42292177717772 -1.39112347034703
 1  15.64599204210421 -2.20591088318832 -0.11889334323432
 1  14.95152820352035 -1.93782615821582 -1.72898031313131
 1  16.64619424882488 -1.53061858675868 -1.38037950745075
 1  16.24008920962096  1.25580341404140  0.59333587788779
 1  16.59664411161116 -0.02354152925293  1.24046680788079
 1  18.36317725642564 -0.31026757415742 -0.43495683608361
 1  18.03099016351635  1.15968328722872 -1.24355793159316
 1  18.68446923952395  2.42172633033303  1.06845485078508
 1  18.77109426972697  0.75921010201020  1.76429642994299
 1  20.78582349504951  0.17473362156216  0.36976404040404
 1  20.10645475207521  2.84718828072807 -1.04584817821782
 1  21.43793804590459  1.91470812361236 -1.40092145544554
 1  19.79286319071907  1.54584639543954 -1.83314028302830
 1  21.25531150635063  1.38182629172917  2.27392700990099
 1  22.27053876017602  1.91992322202220  0.91887685398540
 1  20.76991672157216  2.84477456075608  1.59035947644764
>>>>>>> 8e03b5b5abfc0030b3aa597dc0de36371bfbd096

