%nproc=4
%Mem=2GB
# td=(NStates=1) CAM-B3LYP/6-31G(d,p) 

TD

0 1
12 -7.11140171317132  0.60548929702970  0.00540822822282
 6 -4.85916053405341 -1.94297547594759  0.42385891859186
 6 -4.81782171107111  2.87536598389839  1.08287465236524
 6 -9.46176091159116  2.98756425192519 -0.23589644934493
 6 -9.50627094079408 -1.74634014501450 -0.82109853895390
 7 -5.14109753435344  0.46807662576258  0.72666308460846
 6 -4.33169287538754 -0.65684550655065  0.79153717691769
 6 -2.88279728512851 -0.29970939663966  1.12577293149315
 6 -3.03848728712871  1.19903257155716  1.73467419811981
 6 -4.40687768266827  1.58031878067807  1.19999702960296
 6 -2.83462854495450  1.41325361346135  3.17375878477848
 6 -1.88796225722572 -0.54146940834083  0.03818777707771
 6 -0.49137656025603 -0.38474282148215  0.40603473277328
 6  0.54474561176118 -0.71986549944994 -0.63984936543654
 8  0.27634887498750 -1.06903231083108 -1.81923825552555
 8  1.83289510001000 -0.61306870327033 -0.22137892679268
 7 -7.09810025792579  2.66007159695970  0.23801249674968
 6 -6.02256153515352  3.41650262606261  0.64442797639764
 6 -6.50512776587659  4.77252154155416  0.69195988318832
 6 -7.81296400340034  4.85573620512051  0.37143553485349
 6 -8.20894516611661  3.41020021532153  0.09845239153915
 6 -5.54956291299130  5.77953041894189  0.99861462196220
 6 -8.68117591519152  6.03851488518852  0.28194517991799
 6 -8.53548744004400  7.16489260786079  0.96020227002700
 7 -9.19519179177918  0.63128598969897 -0.46224025772577
 6 -9.89248550825083  1.74268422152215 -0.65788211231123
 6 -11.29686878347835  1.38488682778278 -1.02070378987899
 6 -11.20447285118512  0.01096646074607 -1.14229294329433
 6 -9.99129481018102 -0.44940691499150 -0.84863988008801
 6 -12.29553837753775  2.39860043104310 -1.30628740354035
 6 -12.39225377167717 -0.90911832193219 -1.59130993949395
 6 -12.37886537493749 -1.07022943414341 -3.09700481908191
 7 -7.26888635693569 -1.46110572417242 -0.18893357035704
 6 -8.35553579337934 -2.24611978407841 -0.51596655185519
 6 -7.79704585018502 -3.67117538503850 -0.47147442474247
 6 -6.34675855995600 -3.55142947994800 -0.19582131403140
 6 -6.15345794219422 -2.18710699199920  0.06384918911891
 6 -8.55251271867187 -4.83720656305631 -0.92293077147715
 6 -5.28189265956596 -4.32112599609961  0.07861073367337
 8 -5.12597143504350 -5.56377086048605  0.20777780848085
 6 -4.16534011341134 -3.30015580538054  0.49714958025803
 6 -3.61266189708971 -3.60403562486249  1.94583495639564
 8 -3.87113871447145 -3.00462719891989  2.98104078517852
 8 -2.71252244594459 -4.64591931433143  1.90808938983898
 6 -2.15980656855686 -5.04968919801980  3.12730766626663
 6  2.81024353605361 -0.72452024662466 -1.23990519091909
 6  4.19245133413341 -0.41870004630463 -0.59278942794279
 6  5.18420190459046  0.40562682808281 -1.05977575027503
 6  5.24022244524452  1.22118476777678 -2.30845501080108
 6  6.44094842764276  0.47041889208921 -0.24022050725073
 6  7.70800833873387  0.04477413051305 -1.16675362586259
 6  8.94878675127513 -0.05420055045505 -0.17029884268427
 6  10.22238286278628 -0.51144821652165 -0.88326929742974
 6  10.13721042124212 -2.02695363146315 -1.40872433743374
 6  11.44390726762676 -0.28829261006101  0.05301617021702
 6  12.76699160686069 -0.44086813791379 -0.79094911781178
 6  13.94570403880388 -0.19122032483248  0.18586565406541
 6  15.34231035593559 -0.36199992909291 -0.55171341114111
 6  15.62076374527453 -1.81263889768977 -0.72809242694269
 6  16.41748585448545  0.35112947294729  0.38148265546555
 6  17.83128771817182  0.48903030143014 -0.17967378197820
 6  18.86724709420942  1.20134835183518  0.80521095409541
 6  20.28175684488449  1.32902323582358  0.31567633083308
 6  20.36735808960896  2.25453375057506 -0.88992998569857
 6  21.07961889268927  1.80877381368137  1.45382074547455
 1 -4.13298478297830  3.65052057345735  1.21085567246725
 1 -10.27316770947095  3.77333816881688 -0.47374276577658
 1 -10.22782607200720 -2.42812215301530 -1.19625627782778
 1 -2.55271172807281 -0.99197751165117  1.96650734193419
 1 -2.34352795799580  1.82020560316032  1.12183283368337
 1 -1.76557101460146  1.12808326122612  3.26534024752475
 1 -3.39591465146515  2.33646770427043  3.54849701510151
 1 -3.55820926362636  0.67544222822282  3.69338175097510
 1 -1.95631811671167 -1.52535249564956 -0.38360226942694
 1 -2.22392406490649  0.15518276867687 -0.74272431203120
 1 -0.26012953035304  0.59791440534053  0.80551095019502
 1 -0.17873567556756 -0.99477399259926  1.35436939213921
 1 -5.77647642304230  6.69586823092309  0.48264397359736
 1 -5.50422741214121  6.06935029812981  1.97907420452045
 1 -4.48003195919592  5.66270743714371  1.07233040864086
 1 -9.60620267276728  5.98645479357936 -0.46571679987999
 1 -9.17112832873287  8.10643138203820  0.61652127392739
 1 -7.51846131193119  7.21668806830683  1.55186357185719
 1 -12.24098820392039  3.01510183618362 -2.10804380908091
 1 -13.33898356755675  1.85218911011101 -1.55625681718172
 1 -12.19776150725072  3.13937259195920 -0.58333957795780
 1 -12.38019279767977 -1.87565701080108 -1.13650860576058
 1 -13.32329104800480 -0.49316605340534 -1.28995452295230
 1 -13.29762611521152 -1.65500018621862 -3.43457334183418
 1 -12.34867843204321 -0.07311184878488 -3.52357585328533
 1 -11.41472775207521 -1.52236710381038 -3.38176679667967
 1 -8.96200580358036 -4.80866160906091 -1.93075633973397
 1 -7.94385375017502 -5.77954795899590 -0.79335894889489
 1 -9.52780266516652 -4.94470949224923 -0.55859768236824
 1 -3.34999569546955 -3.44374762546255 -0.18047331883188
 1 -1.61846001250125 -4.03908034773477  3.71043395869587
 1 -3.05655526412641 -5.25242686028603  3.79571241014101
 1 -1.35721383288329 -5.88555782898290  2.84821877477748
 1  2.73047235133513 -1.73143497939794 -1.61532549754975
 1  2.53908138573857 -0.14085980638064 -2.13021617381738
 1  4.37661856745675 -0.88090030523052  0.33894711071107
 1  4.25561452495250  1.30170888128813 -2.67683605330533
 1  5.53042845454545  2.30128038693869 -2.02098856705671
 1  5.77332464006401  0.87892900040004 -3.08775750675068
 1  6.68967103000300  1.51722572257226  0.13454609740974
 1  6.40813493289329 -0.18967700510051  0.66808652535253
 1  7.28590597529753 -0.95766500170017 -1.63800512411241
 1  7.71070350625063  0.87855106320632 -2.03074599819982
 1  9.16077812941294  0.88094597959796  0.25301293349335
 1  8.76824531323132 -0.85583108930893  0.49181704540454
 1  10.37736528792879  0.18112064976498 -1.65532042154215
 1  9.30713569906991 -1.95732370887089 -2.20498642344235
 1  11.16176873257326 -2.15247203110311 -1.98442268616862
 1  10.09617250325033 -2.79521146314631 -0.69332877257726
 1  11.45305298619862  0.67218944914491  0.57466895439544
 1  11.86078913231323 -1.13225918721872  0.88456907850785
 1  12.86280959985999 -1.58599676087609 -1.31069873747375
 1  12.80548430093009  0.13432412341234 -1.71882524382438
 1  13.71301273797380  0.99871242724272  0.56541388438844
 1  13.92701545464547 -0.76434603930393  1.15149166566657
 1  15.18299158765877  0.27668715371537 -1.54624898289829
 1  15.95431287418742 -2.19485977807781  0.18816736283628
 1  14.82124517521752 -2.34694707030703 -1.33676109120912
 1  16.60533016241624 -2.00963648854885 -1.47239870937094
 1  16.07688288898890  1.43503133683368  0.53366991129113
 1  16.46428087528753 -0.17168634373437  1.41908466966697
 1  18.11197213591359 -0.57384393179318 -0.19072241264126
 1  17.75440250475048  1.02349966886689 -1.25406898269827
 1  18.49420021262126  2.09795395309531  1.27924592989299
 1  18.87611477177718  0.43057723872387  1.61516151645165
 1  20.66887179987999  0.35046119431943 -0.11340427642764
 1  20.27951205780578  3.36556011791179 -0.72458605200520
 1  21.33024727682768  2.08732538533853 -1.39150051335133
 1  19.83426733113312  2.18355016581658 -1.82570953995400
 1  21.04020999619962  1.15289339843984  2.28426804400440
 1  22.13517522382238  2.10727195689569  1.08320328662866
 1  20.74353408330833  2.64788487178718  1.82484292479248

