%nproc=4
%Mem=2GB
# td=(NStates=1) CAM-B3LYP/6-31G(d,p) 

TD

0 1
<<<<<<< HEAD
12 -7.22081265426543  0.60197894599460  0.17413510091009
 6 -4.81499611761176 -1.94626580498050  0.54588112081208
 6 -4.83586351525153  2.82009045634563  1.17511387628763
 6 -9.36784151965196  3.04436993249325 -0.31312417211721
 6 -9.59983029672967 -1.71089660066007 -0.66323275237524
 7 -5.13554697929793  0.45011482958296  0.64556497479748
 6 -4.39687939403940 -0.69524934693469  0.77169519271927
 6 -2.95922492789279 -0.44227365306531  1.20240059425943
 6 -3.03405684408441  1.05293796209621  1.54084481518152
 6 -4.40502749764976  1.42607335613561  1.11048807870787
 6 -2.96983206530653  1.23073536163616  3.13093450235024
 6 -1.90392385338534 -0.64562982438244  0.06405036333633
 6 -0.48662608520852 -0.46833118031803  0.44788891819182
 6  0.48641977917792 -0.64307782068207 -0.75783116361636
 8  0.17773901400140 -1.03383879147915 -1.82900923262326
 8  1.76359817031703 -0.42044944134413 -0.35569235813581
 7 -7.10121056895690  2.66490208000800  0.28922761826183
 6 -6.01572085108511  3.41946292209221  0.76859039263926
 6 -6.39859711281128  4.83586787618762  0.74407509470947
 6 -7.67829053605360  4.80505113661366  0.30789918121812
 6 -8.08058232983298  3.45731492679268  0.07675022132213
 6 -5.36729468616862  5.88039050495049  1.01285604610461
 6 -8.53652144974497  6.07407844154416  0.16994397979798
 6 -8.37830172147215  7.20583670227023  0.86184243404340
 7 -9.09881215381538  0.70395325642564 -0.38454248794879
 6 -9.80674693439344  1.72741269436944 -0.65547187128713
 6 -11.21974107070707  1.44353269236924 -1.02859457895790
 6 -11.20663306720672  0.18078344244424 -1.17431614561456
 6 -9.95998167886789 -0.39254122842284 -0.77270228632863
 6 -12.26135495919592  2.52567313831383 -1.43373014781478
 6 -12.42467701400140 -0.67020443054305 -1.69921072957296
 6 -12.33950143854386 -0.89233164436444 -3.19798491709171
 7 -7.21815128342834 -1.40373998759876 -0.09176385338534
 6 -8.37144738453845 -2.25287045914591 -0.43256821202120
 6 -7.89258540414041 -3.66789505700570 -0.36626390369037
 6 -6.52384626872687 -3.55180951795180 -0.10544227612761
 6 -6.11878447484748 -2.21162944424442  0.16551935613561
 6 -8.70499796719672 -4.86267911031103 -0.75895437383738
 6 -5.32153662396240 -4.35921980548055  0.21153402600260
 8 -5.20685952385239 -5.53222770617062  0.35755278597860
 6 -4.16789036843684 -3.29775556535654  0.51247111241124
 6 -3.54715534643464 -3.71935715701570  1.82066243914391
 8 -3.74878647924792 -3.16266300250025  2.86069875097510
 8 -2.64540573427343 -4.76778150055006  1.72828140904090
 6 -2.11718230613061 -5.25688991809181  3.00449538503850
 6  2.78342085378538 -0.74490228482848 -1.41260246064606
 6  4.07933002200220 -0.65831400770077 -0.81371152015202
 6  5.06879036343634  0.22072833823382 -1.11103087578758
 6  5.10058848184818  0.98971162046205 -2.36446061136114
 6  6.42928726152615  0.30030188038804 -0.36435292049205
 6  7.63805134303430 -0.31469181608161 -1.07730468096810
 6  8.91035290789079 -0.21293642404240 -0.18986079887989
 6  10.15520614511451 -0.64082115381538 -0.96256722722272
 6  10.06062276247625 -2.14950588668867 -1.28360182518252
 6  11.44435731263126 -0.28044182498250 -0.11808093949395
 6  12.78128303600360 -0.42009606070607 -0.95823584648465
 6  13.98965843424342 -0.13089429222922  0.14423149064906
 6  15.33073919881988 -0.07628135723572 -0.43373161296130
 6  15.78506017491749 -1.49183681748175 -0.73812343004300
 6  16.42049615551555  0.58134249424942  0.50912541974197
 6  17.92120671007100  0.61691308970897 -0.04168998359836
 6  18.79759012851285  1.40563878087809  0.85683611661166
 6  20.27171584078408  1.39097943144314  0.43957872107211
 6  20.43694504830483  2.15555385258526 -0.90011100380038
 6  21.10744167496750  2.08404134043404  1.55365072847285
 1 -3.99010049454946  3.43659918131813  1.46126071297130
 1 -10.01053144584458  4.00742157715772 -0.65665105660566
 1 -10.43404669406941 -2.40981032183218 -0.83646029822982
 1 -2.57672412931293 -1.15640395429543  2.05339603080308
 1 -2.34534814001400  1.89207278987899  1.09183983438344
 1 -2.05150960846085  0.79956040894089  3.50748446194619
 1 -2.79225428542854  2.19365342284228  3.51803396879688
 1 -3.74010745344534  0.73213789778978  3.62852526532653
 1 -2.02710519541954 -1.52395235563556 -0.45306921612161
 1 -2.18348002050205 -0.08659140874087 -0.92394243384338
 1 -0.28887240464046  0.58375298919892  0.80827122622262
 1 -0.01262906490649 -1.02883739893989  1.22426638183818
 1 -5.60496927232723  6.82853149724972  0.41647735693569
 1 -5.40679766916692  6.00994435753575  2.07800409750975
 1 -4.33334729072907  5.54818598499850  0.76547972357236
 1 -9.28581063356336  6.34710085818582 -0.55485571377138
 1 -9.04127534343434  7.93059379827983  0.66911653345335
 1 -7.45010447624762  7.56516291579158  1.51775016051605
 1 -11.86096020112011  3.25404573057306 -2.21356436113611
 1 -13.26136580578058  1.91636552775278 -1.84697588908891
 1 -12.58453018411841  3.15103375807581 -0.61136238023802
 1 -12.39666444484449 -1.61883132823282 -1.15361031593159
 1 -13.36671539043904 -0.12213895069507 -1.38303383088309
 1 -13.11188754135414 -1.53656834303430 -3.51878176267627
 1 -12.42384594879488  0.09064452685269 -3.72652614831483
 1 -11.47289356865687 -1.58729359645965 -3.39148776877688
 1 -9.10783038603860 -4.87445818871887 -1.83577684178418
 1 -8.03403276807681 -5.59622962716272 -0.75902551555155
 1 -9.58128801370137 -5.14727974927493 -0.06241806440644
 1 -3.33639433533353 -3.28614186488649 -0.02835810731073
 1 -1.50810897739774 -4.57119355905591  3.48415133043304
 1 -3.02108171677168 -5.26185780338034  3.71194403330333
 1 -1.76368447994800 -6.07541681488149  2.73353730663066
 1  2.60745004910491 -1.75740757665767 -1.66315028002800
 1  2.52165964356436 -0.17227294769477 -2.30828398059806
 1  4.42424332993299 -1.21185340054005  0.11404462046205
 1  4.15016397989799  1.03086179657966 -2.94705307500750
 1  5.44557996969697  2.08230848974897 -2.21621809000900
 1  5.87909521712171  0.75902701020102 -3.02953168416842
 1  6.48868093099310  1.38884288428843 -0.27529488668867
 1  6.14177829722972  0.11374333693369  0.70226994369437
 1  7.31350873557356 -1.32178141334133 -1.36528785238524
 1  7.85779821572157  0.23435664376438 -2.06202912651265
 1  8.93181523312331  0.81843972897290  0.23124075627563
 1  8.90662915161516 -0.82719822602260  0.69320718441844
 1  10.16735428682868 -0.07089455175518 -1.84555944544454
 1  9.34923990949095 -2.42522049854986 -2.06581250605061
 1  11.06440899659966 -2.44836162006201 -1.69267351125113
 1  9.89547243324333 -2.72887482948295 -0.28512795249525
 1  11.34467214811481  0.80913314351435 -0.05506401890189
 1  11.32097515091509 -0.65575153645364  0.89704032563256
 1  12.87268058695870 -1.46813497469747 -1.27785545314531
 1  12.84173792629263  0.22813350435043 -1.80181354265427
 1  13.82967440414041  0.93444600060006  0.63761110411041
 1  13.75247800090009 -0.89232883758376  0.83984050055006
 1  15.29627291579158  0.40541002600260 -1.41923628162816
 1  15.72146958985899 -1.93853414551455  0.16880542664266
 1  15.20003305400540 -1.94788716431643 -1.39155657075708
 1  16.71812144154416 -1.51052657755776 -1.15366683618362
 1  16.10481568226823  1.58707654135414  0.78327487178718
 1  16.45158960616061 -0.16785596069607  1.36201896309631
 1  18.08557949664966 -0.44272081948195 -0.04100744114411
 1  17.88723578807881  1.00605792469247 -0.98797237303730
 1  18.39917070967097  2.43354751245125  0.95911391669167
 1  18.96840400070007  0.87226140714071  1.82871287158716
 1  20.61816672937294  0.22010815901590  0.41903896789679
 1  20.29354346094609  3.22987654955496 -0.73618721212121
 1  21.37181143324333  2.06391304410441 -1.71149251255126
 1  19.63417732213221  1.74117592839284 -1.66664363336334
 1  21.01330730593059  1.59567767686769  2.54759437663766
 1  22.08561026732673  2.42015324502450  1.10176514281428
 1  20.51005073497350  3.08773885718572  1.75583602410241
=======
12 -7.09243981698170  0.60144889298930  0.10661834923492
 6 -4.95001961996200 -2.04337551595159  0.48988552125213
 6 -4.76268619751975  2.79837828512851  1.14069043394339
 6 -9.32468720422042  3.08008350385038 -0.38475133483348
 6 -9.53982429612961 -1.75135064606461 -0.86956338543854
 7 -5.10268369296930  0.38233805190519  0.70060047834784
 6 -4.39901960806081 -0.77677749974998  0.82083010621062
 6 -2.88392739813981 -0.44174360006001  1.16922727692769
 6 -3.00819425782578  1.04106677497750  1.55348607930793
 6 -4.38449544444444  1.50795154395440  1.02003903380338
 6 -3.03618870097010  1.31725401350135  3.02784419331933
 6 -1.94306776777678 -0.68426368776878  0.01622558085809
 6 -0.44659208180818 -0.38015236243624  0.41540566986699
 6  0.62189332653265 -0.57963147604760 -0.71389677017702
 8  0.33022426252625 -0.99154456205621 -1.79579591129113
 8  1.76271808230823 -0.34580197659766 -0.18962575147515
 7 -7.09501994989499  2.65519110891089  0.20025872137214
 6 -6.01310058905891  3.35137611341134  0.63818735233523
 6 -6.41283853695370  4.70587487688769  0.73780446764676
 6 -7.71546425342534  4.85811644314431  0.32719111041104
 6 -8.10199447104710  3.54420361566157 -0.06386384008401
 6 -5.47848580528053  5.81418388428843  1.27326208670867
 6 -8.57203500110011  6.09493052675268  0.19315630103010
 6 -8.42127601890189  7.21895801440144  0.87348359815982
 7 -9.12345461806181  0.66367922902290 -0.49701373507351
 6 -9.77774403410341  1.81633158625863 -0.67232355645565
 6 -11.18733783038304  1.44313265236524 -0.99985170467047
 6 -11.24804720862086  0.07181254535454 -1.24444315831583
 6 -9.95592127282728 -0.37040901520152 -0.91145616171617
 6 -12.31460028372837  2.47990856185619 -1.25851262606261
 6 -12.36047059335934 -0.73983139323932 -1.72231303980398
 6 -12.20140762916292 -1.12384479567957 -3.15517063566357
 7 -7.16880634893489 -1.40250986458646 -0.15438011501150
 6 -8.30419065886589 -2.21738691079108 -0.53926888208821
 6 -7.79464561016102 -3.69747801530153 -0.39641691899190
 6 -6.46392027612761 -3.54263860086009 -0.09212094399440
 6 -6.19915251165116 -2.18802708400840  0.05531833603360
 6 -8.59698716611661 -4.91161400380038 -0.79473795219522
 6 -5.40256472677268 -4.34929881338134  0.22239511211121
 8 -5.12152098999900 -5.55126961036104  0.05782281298130
 6 -4.23320690009001 -3.29572536233623  0.60216008130813
 6 -3.71972260316032 -3.67531275257526  1.93430380328033
 8 -3.85284688528853 -3.00729746594659  2.98082076317632
 8 -2.81372256595660 -4.66073079547955  1.88464704560456
 6 -2.01464205210521 -4.95023925302530  3.17381231673167
 6  2.74068658035804 -0.49959775437544 -1.23810501090109
 6  4.05613770277028 -0.39645782208221 -0.49646979597960
 6  5.13380686508651  0.31036730213021 -0.95713548624862
 6  5.21556997999800  1.07883053235324 -2.19687385268527
 6  6.44076840964096  0.34606645684568 -0.15212169736974
 6  7.65658319621962 -0.34206455335534 -0.91714866536654
 6  8.87195906850685 -0.21590672107211 -0.08291010381038
 6  10.25542616711671 -0.62616968866887 -0.89012998349835
 6  10.11160786098610 -2.05474641074107 -1.48447191219122
 6  11.43746662356236 -0.37889166996700  0.00493136173617
 6  12.76332123982398 -0.75921997309731 -0.69740976387639
 6  13.86692616101610 -0.22855405820582  0.14351141864186
 6  15.28744486938694 -0.16105983508351 -0.49800804060406
 6  15.70916258515851 -1.51189882368237 -1.01288090579058
 6  16.41139524542454  0.31801616161616  0.45336984418442
 6  17.77174176357636  0.49593099149915 -0.08604441904190
 6  18.75275564506451  1.29836805380538  0.72724315731573
 6  20.12810147934793  1.47803813731373  0.24037880108011
 6  20.24735608940894  2.33204150135013 -0.97907890059006
 6  21.08526945774577  2.07985092139214  1.38046340974097
 1 -3.95825731023102  3.44385990739074  1.55014960186019
 1 -10.08381877457746  3.94162499749975 -0.26719211071107
 1 -10.27446073547355 -2.42624196499650 -1.06141279347935
 1 -2.47719417631763 -1.16039435333533  1.89661035223522
 1 -2.09694329952995  1.80870445304530  0.99838048844884
 1 -2.05840029752975  0.94002445534553  3.55307902140214
 1 -2.99404446444644  2.34957901540154  3.02929509490949
 1 -3.85420886358636  0.71860654465447  3.64644705750575
 1 -1.93635612051205 -1.66690665106511 -0.34624853405340
 1 -2.23457513001300 -0.07785053465347 -0.85599563916392
 1 -0.47891140854085  0.51152576647665  0.74588498759876
 1 -0.05052285428543 -1.13332784798480  1.31489544474447
 1 -5.54826360176018  6.81212985708571  0.72215792499250
 1 -5.79434642404240  6.13629699279928  2.40921721882188
 1 -4.44750870687069  5.33492465886589  1.27637081268127
 1 -9.11698375087509  5.90159630773077 -0.66218644684468
 1 -9.00572178807881  8.07681842074207  0.79309893169317
 1 -7.47239670547055  7.27482388188819  1.46924531003100
 1 -11.87987209230923  3.37874820082008 -1.79261226592659
 1 -13.06270593979398  1.99645353655366 -1.82758394989499
 1 -12.80619235033504  2.98962761746175 -0.18953019701970
 1 -12.33069784818482 -1.66063550865087 -1.11804675957596
 1 -13.31994071297130 -0.26397313411341 -1.53223875137514
 1 -13.09191554415442 -1.51729641584158 -3.65808569306931
 1 -11.87788135233523 -0.26850138773877 -3.84153764946495
 1 -11.28385466476648 -1.88459332643264 -3.41244986498650
 1 -9.03310291329133 -4.95665640854085 -1.80734399849985
 1 -7.91848121292129 -5.77355735993599 -0.58657827082708
 1 -9.45348523342334 -4.98280330163016 -0.04599642224222
 1 -3.54206490239024 -3.64880813151315 -0.29681495299530
 1 -1.53041120762076 -3.98283472317232  3.57510042534253
 1 -2.58502811141114 -5.41404302190219  3.82073491239124
 1 -1.09444755625563 -5.55657493069307  2.70210416331633
 1  2.50811011511151 -1.27078891479148 -1.78922288728873
 1  2.57204468206821  0.43287756735674 -2.07798095029503
 1  4.05810671627163 -1.08238045324532  0.35664888088809
 1  4.13365232873287  1.59299801020102 -2.41809017871787
 1  5.67722313401340  1.98329858875888 -1.90049651785179
 1  5.86223353095310  0.54524563206321 -3.07593632463246
 1  6.57108917181718  1.36904090409041  0.22285492829283
 1  6.28067218661866 -0.24820285768577  0.86820653735374
 1  7.49998738343834 -1.35517475267527 -1.40855217881788
 1  7.68991142704270  0.23451665976598 -1.96054897849785
 1  8.85253730533053  0.90231811681168  0.23000063226323
 1  8.71735022372237 -0.85570107630763  0.81633949764977
 1  10.54702225362536  0.11319385708571 -1.62907779727973
 1  9.31615660116012 -2.15749372587259 -2.06982290709071
 1  10.95615817151715 -2.24453123702370 -2.33365760966097
 1  10.30140302630263 -2.89372131413141 -0.67386682638264
 1  11.39544722562256  0.73532576277628  0.34274576207621
 1  11.39370242364236 -0.97913387468747  0.98499912151215
 1  12.79386270517052 -1.96275443664366 -0.84248191579158
 1  12.71374512701270 -0.49151846084608 -1.82248560986099
 1  13.47514895159516  0.82062461846185  0.42301964496450
 1  14.03746649974998 -0.84428403310331  0.93832034853485
 1  15.17607089558956  0.59976946194619 -1.35902026002600
 1  15.85996343924392 -2.11620191229123 -0.16334778867887
 1  15.15064811551155 -1.97586996259626 -1.58721613671367
 1  16.75626525592559 -1.21538706360636 -1.64756622612261
 1  16.25860106080608  1.49408724242424  1.02408895319532
 1  16.49065351255125 -0.52158133323332  1.36726948814881
 1  18.24577551625163 -0.54296084348435 -0.25079842024202
 1  17.67240430493050  0.76096341524152 -1.15804938073807
 1  18.35360615321532  2.43090724842484  0.70145815111511
 1  18.82016917721772  0.89661384238424  1.78424842514251
 1  20.52872778547855  0.55807195539554  0.01513857785779
 1  19.68198230483048  3.37170073197320 -0.76104969836984
 1  21.23786803890389  2.70793744654465 -1.40646200950095
 1  19.64615852025203  1.88932074287429 -1.73284025302530
 1  20.81267724292429  1.18953706280628  2.26954657185719
 1  22.12314402070207  2.11149237893789  1.02123709000900
 1  20.82419214911491  3.13148323162316  1.62958339883988
>>>>>>> 8e03b5b5abfc0030b3aa597dc0de36371bfbd096

