%nproc=4
%Mem=3GB
# td=(NStates=1) iop(3/107=0140000000,3/108=0140000000) CAM-B3LYP/6-31G(d,p) 

TD

0 1
12 -7.08603329502950  0.57306569006901  0.08403477347735
 6 -4.84183299979998 -1.98592582318232  0.52913831623162
 6 -4.89695572617262  2.80664938283828  1.21567167236724
 6 -9.36800356485649  3.09899745274527 -0.41341381668167
 6 -9.44396049404941 -1.75413717941794 -0.89373617851785
 7 -5.10336736793679  0.34821091169117  0.82526035003500
 6 -4.27766001330133 -0.74814595779578  0.84437233193319
 6 -2.90883710431043 -0.42794119211921  1.19161483058306
 6 -3.06949017591759  1.03539224082408  1.74461074037404
 6 -4.40378061276128  1.49494414551455  1.24948934283428
 6 -2.92923910471047  1.11962478177818  3.25703101770177
 6 -1.88427415711571 -0.56221221042104  0.02883669396940
 6 -0.41071678087809 -0.17658090609061  0.40147352965297
 6  0.47899982318232 -0.43989061096110 -0.71930172027203
 8  0.10275049184918 -0.80472425012501 -1.86843423652365
 8  1.76720531893189 -0.27908784718472 -0.35372075967597
 7 -7.11711935533553  2.57759096899690  0.38254917901790
 6 -6.10418056185619  3.39346311371137  0.86359223532353
 6 -6.30912582098210  4.74108097169717  0.92560081878188
 6 -7.64324911021102  4.92443424862486  0.34057018341834
 6 -8.09033856135614  3.52503944274427  0.11999999859986
 6 -5.54659669356936  5.88993846754675  1.32841299649965
 6 -8.61397140514051  6.02935320492049  0.03223383588359
 6 -8.44340275027503  7.21566071577158  0.73921798109811
 7 -9.09188822992299  0.63878087248725 -0.60331690559056
 6 -9.77038452475247  1.81212453675368 -0.82864567806781
 6 -11.18978293099310  1.40298974347435 -1.11399625932593
 6 -11.17581706890689  0.06740428622862 -1.30387041534153
 6 -9.84175177877788 -0.42180237363736 -0.92414461576158
 6 -12.24646558425843  2.50014525592559 -1.51693114581458
 6 -12.33821761466147 -0.79693581738174 -1.82832216281628
 6 -12.20043195209521 -1.24246443874387 -3.24655530673067
 7 -7.20235319771977 -1.45391022672267 -0.17946062116212
 6 -8.24157848414842 -2.24719326482648 -0.47710929082908
 6 -7.88198023782378 -3.59183973537354 -0.40977127692769
 6 -6.47738552905291 -3.53354633673367 -0.02459454115412
 6 -6.13450718241824 -2.18430638643864  0.10008184358436
 6 -8.72061440094009 -4.72886898529853 -0.87542092519252
 6 -5.30401586448645 -4.44775833923392  0.31933690779078
 8 -5.12706369866987 -5.64685154215422  0.40725667426743
 6 -4.17728223082308 -3.37039448684869  0.58858718031803
 6 -3.38926310311031 -3.67090503320332  1.85829179767977
 8 -3.69398218161816 -3.17725508340834  2.92836619481948
 8 -2.60574592739274 -4.73826244474447  1.85104414191419
 6 -2.03133209020902 -5.11382658855886  3.08976637703770
 6  2.77573389378938 -0.38583687258726 -1.41460497769777
 6  4.15859674487449 -0.22776804470447 -0.71802436523652
 6  5.17299279057906  0.50949747774777 -1.02971584858486
 6  5.22843656925693  1.53689136443644 -2.20054418941894
 6  6.41306758545855  0.47773838983898 -0.25544606900690
 6  7.65780723332333 -0.28308685668567 -0.93457378607861
 6  8.89036674827483 -0.13704552065207 -0.17816391879188
 6  10.12830829142914 -0.57208887208721 -0.88326404640464
 6  10.13617689428943 -2.08325620552055 -1.38231519751975
 6  11.34380904470447 -0.31440633173317 -0.08589655215522
 6  12.70177791329133 -0.63348338183818 -0.67469497459746
 6  13.76377764956496 -0.26754246854685  0.24675108670867
 6  15.20494648564856 -0.26750583418342 -0.43639929242924
 6  15.70466673767377 -1.61380976927693 -1.00506233253325
 6  16.39017601030103  0.22992951025103  0.54877961266127
 6  17.75259284698470  0.43233696329633 -0.10382690969097
 6  18.68264868346834  1.06744482298230  0.77307056375638
 6  20.11585438983898  1.33620305280528  0.27305401140114
 6  20.09622246804680  2.03484078917892 -1.10209490539054
 6  20.98365343234323  1.87837953785379  1.31571551155115
 1 -4.14083444694469  3.49802305370537  1.59514561036104
 1 -10.18983110641064  3.74095637013701 -0.62136666286629
 1 -10.40193461756176 -2.53653918901890 -1.22968078747875
 1 -2.37570485768577 -1.07708791149115  1.87123361406141
 1 -2.30861432773277  1.52975503660366  1.30163381238124
 1 -2.15093818021802  0.43403250965097  3.74975531293129
 1 -2.94374148324833  2.18177740054005  3.51356937913791
 1 -3.57837063756376  0.56577173147315  3.67027871307131
 1 -1.96787190619062 -1.52968363916392 -0.42576058315832
 1 -2.24034040304030  0.14122174197420 -0.75341207580758
 1 -0.20514594329433  0.78148773607361  0.87960182318232
 1 -0.24754317461746 -0.79453021962196  1.32428588688869
 1 -5.58309248694869  6.78380589258926  0.76926675797580
 1 -5.85366683798380  6.11196407780778  2.31651366386639
 1 -4.47842268686869  5.84769903790379  1.42498323092309
 1 -9.31692195199520  5.95415879787979 -0.80669202190219
 1 -8.86908597229723  8.22396211721172  0.43852362806281
 1 -7.71521945404540  7.49324616101610  1.65970493079308
 1 -11.82904337733773  3.31293044014401 -2.18209404090409
 1 -13.22856015371537  2.27984672707271 -1.84607033523352
 1 -12.58102913561356  3.13886122022202 -0.61013145264526
 1 -12.58081004590459 -1.56318724152415 -1.15227872877288
 1 -13.20288258735874 -0.19316202670267 -1.75460121452145
 1 -13.06555175437544 -2.04839850195020 -3.34871582968297
 1 -12.38450885658566 -0.32210068136814 -3.93202218061806
 1 -11.33461830123012 -1.80374140134013 -3.36380465866587
 1 -8.66587120572057 -4.80660716151615 -2.07481354435444
 1 -8.44971935713571 -5.75396134943494 -0.72277223232323
 1 -9.87029120812081 -4.77735618401840 -0.67389965866587
 1 -3.44723224172417 -3.40107671327133 -0.34137187528753
 1 -1.57851123872387 -4.27006922032203  3.72826454405441
 1 -2.78981541884188 -5.55840536543654  3.76102714041404
 1 -1.14452497299730 -5.81188197299730  2.98026138723872
 1  2.81787984278428 -1.36072269506951 -1.92673412211221
 1  2.59770621192119  0.52433051785179 -2.12372342984298
 1  4.37821830853085 -0.90477889168917  0.17947934813481
 1  4.16123143464346  1.60165570827083 -2.51634211991199
 1  5.43732066426643  2.45431585548555 -1.74618205660566
 1  6.07949751825183  1.31100229112911 -2.86984324122412
 1  6.66628481238124  1.58055803640364 -0.17280766686669
 1  6.47013488558856 -0.27761509820982  0.56799299479948
 1  7.23214533733373 -1.28356902990299 -1.14227898509851
 1  7.88273083158316  0.36001510451045 -2.08135895879588
 1  8.98733477777778  1.19056855435544 -0.03545111701170
 1  8.68343146394639 -0.56596494919492  0.77044316771677
 1  10.27171180298030  0.10243639143914 -1.75144030203020
 1  9.17507711681168 -2.24191247474747 -1.87457583948395
 1  11.16225536613661 -2.21175457475748 -2.00398575667567
 1  10.48970116721672 -2.81573568826883 -0.64685207890789
 1  11.35455709730973  0.55564199759976  0.26740451125113
 1  11.30745834133413 -0.84038533613361  0.87079339943994
 1  12.87297525002500 -1.72797021632163 -0.98116038753875
 1  12.86262209210921  0.12407734373437 -1.47334166786679
 1  13.60735215551555  0.67983334663466  0.68830365906591
 1  13.84271258185819 -1.09543592249225  1.10253262726273
 1  15.03880428182818  0.48237163416342 -1.23952522132213
 1  15.81128492529253 -2.12415175637564 -0.14162229772977
 1  15.02517416181618 -2.17377189718972 -1.60411178467847
 1  16.56901518111811 -1.64417531453145 -1.44554106740674
 1  15.99660293379338  1.35245357905791  0.94410032633263
 1  16.53655773357336 -0.42840912571257  1.38634712941294
 1  18.14773151085108 -0.60910742474247 -0.40641083668367
 1  17.47367467706771  1.11434032813281 -0.96549229282928
 1  18.43064212111211  2.07325859385939  1.03111505830583
 1  18.66000196269627  0.66436127562756  1.80361360686069
 1  20.39942977527753  0.27637863546355  0.26149204140414
 1  19.69606642514252  3.00247102360236 -0.87390957565757
 1  21.19387318811881  2.09128027012701 -1.65181316251625
 1  19.40145854345435  1.38468875907591 -1.66625500990099
 1  21.02712656615661  1.18430407130713  2.21836550535054
 1  22.05165305810581  1.95676614731473  1.01530818441844
 1  20.58200827932793  3.02899901710171  1.53758089478948

