%nproc=4
%Mem=2GB
# td=(NStates=1) CAM-B3LYP/6-31G(d,p) 

TD

0 1
12 -7.20303087608761  0.59976872497250  0.09093678107811
 6 -4.93992861086109 -2.05159633803380  0.56624315701570
 6 -4.79089901880188  2.80089853715372  0.99601596649665
 6 -9.33542827832783  3.23744924042404 -0.49349220892089
 6 -9.47626794049405 -1.60046555755576 -0.98628505760576
 7 -5.13108653325333  0.46120593869387  0.66596701500150
 6 -4.35340504660466 -0.72740256225623  0.88699672287229
 6 -2.94597360276028 -0.45202462816282  1.28692904710471
 6 -2.97954139253925  0.98143081138114  1.63870460116012
 6 -4.37002399729973  1.43297404620462  1.06232326222622
 6 -3.02488757085709  1.22608489658966  3.19403081198120
 6 -1.84857831883188 -0.74694995639564  0.20026398469847
 6 -0.52735015761576 -0.47046139333933  0.52857698699870
 6  0.51154229142914 -0.73063657655766 -0.57054243474347
 8  0.29498073817382 -1.16561196879688 -1.70793712541254
 8  1.83063487398740 -0.65407280368037 -0.03140992989299
 7 -7.08453890179018  2.63786937673767  0.35704439993999
 6 -5.99841912091209  3.34199517531753  0.65628916251625
 6 -6.28594584768477  4.75314960436044  0.70025071227123
 6 -7.65818852585259  4.96368700020002  0.25866425772577
 6 -8.05516978857886  3.55764495979598 -0.05820327402740
 6 -5.34221217791779  5.87508997489749  1.18404316481648
 6 -8.43472126972697  6.09930096379638 -0.02291530613061
 6 -8.46850074137414  7.24447056565657  0.68249449924993
 7 -9.05182745534553  0.71014387548755 -0.55041907560756
 6 -9.89015527522752  1.90435038813881 -0.61284760886089
 6 -11.28201729832983  1.48884722382238 -0.96833855335534
 6 -11.26809921382138  0.20874623872387 -1.22444115811581
 6 -9.92895857655765 -0.22432440674067 -0.98827384348435
 6 -12.34077290099010  2.58085865686569 -1.17342411721172
 6 -12.43483803010301 -0.64601201130113 -1.67824863336334
 6 -12.25784327272727 -1.00508291949195 -3.22460757935794
 7 -7.22846231453145 -1.31163077667767 -0.14037871487149
 6 -8.27427766756676 -2.14396956905691 -0.64065902110211
 6 -7.81346749234924 -3.54083235073507 -0.53950122742274
 6 -6.53144702880288 -3.51441577857786 -0.13933566546655
 6 -6.24429702610261 -2.16103438473847  0.11525432963296
 6 -8.57857532493249 -4.70028287068707 -1.05185366376638
 6 -5.39082355265527 -4.37835171867187  0.13182605520552
 8 -5.26304514241424 -5.63821830523052  0.01667869856986
 6 -4.23342692209221 -3.36579236903690  0.54492435773577
 6 -3.70456108700870 -3.79946516781678  1.95533590649065
 8 -3.88290989158916 -3.24145088128813  2.94554723582358
 8 -2.91992318601860 -4.86650137253725  1.80606918781878
 6 -2.44276486438644 -5.51513574267427  3.03231816731673
 6  2.80935344704470 -0.92449024362436 -1.13390459085909
 6  4.09699178817882 -0.67646582288229 -0.41575172417242
 6  5.07752123652365  0.08307457285729 -0.95471524422442
 6  5.03327175017502  0.98764141344134 -2.09379354465447
 6  6.41194552735274  0.18422027222722 -0.13456994219422
 6  7.64278181608161 -0.20574092099210 -0.86617356785679
 6  9.01185305790579 -0.16045117551755 -0.05088690149015
 6  10.25701632613261 -0.62888996069607 -0.73011398189819
 6  10.25825252545254 -2.13451438753875 -0.99791325632563
 6  11.50404328122812 -0.29385316611661  0.09963083168317
 6  12.78599350705070 -0.43111716281628 -0.67460748364836
 6  13.98420788918892  0.09784858205821  0.15052211971197
 6  15.38242436733673 -0.13469719881988 -0.66394463426343
 6  15.76597826672667 -1.62377001080108 -0.77728734643464
 6  16.38398250415042  0.69212357235724  0.24640914811481
 6  17.85906049544954  0.72304370277028 -0.27162297689769
 6  18.80231060056006  1.39275749274927  0.62391282428243
 6  20.22453112231223  1.54674500800080  0.09164392759276
 6  20.40912226602660  2.38139643684368 -1.21515250795080
 6  21.22200313111311  2.09106204250425  1.16164152755276
 1 -4.05070655515552  3.47453297469747  1.47433202010201
 1 -10.14126451915192  4.01608244324432 -0.35861125262526
 1 -10.23261655105511 -2.46095543634363 -1.32235888808881
 1 -2.75535199209921 -1.18895720962096  2.05048573977398
 1 -2.25965957115712  1.71826540914091  1.13809445984598
 1 -2.11501595909591  0.94036448934893  3.76210992449245
 1 -3.13016807680768  2.28310236773677  3.36123828922892
 1 -3.78525196789679  0.60421510551055  3.83655606840684
 1 -1.87816030093009 -1.68168812921292 -0.15885979517952
 1 -2.09214088658866 -0.45506825642564 -0.72503254285429
 1 -0.27354087148715  0.56965157905791  0.93082348144814
 1 -0.12118992099210 -0.97091160636064  1.53843779897990
 1 -5.67786656205620  6.71861050515052  0.71493720292029
 1 -5.16467345674567  5.94992835593559  2.31138743584358
 1 -4.32418637463746  5.60742190859086  0.79335251085108
 1 -9.02545459795980  6.08627477557756 -1.00566079427943
 1 -9.01508272417242  7.96611735063506  0.45708533033303
 1 -7.80856032183218  7.28962536203620  1.61733011851185
 1 -12.06091019611961  3.40325065106511 -1.64391739643964
 1 -13.27114678387839  2.27205109630963 -1.50474166566657
 1 -12.59443117421742  3.09721837653765 -0.24887613161316
 1 -12.36100087848785 -1.67216666176618 -1.01671662656266
 1 -13.35426414531453 -0.29106584338434 -1.48105363286329
 1 -13.04734108670867 -1.93436812301230 -3.36389627412741
 1 -12.45044860906091 -0.14182872047205 -3.83442693839384
 1 -11.42452873217322 -1.36216108320832 -3.28756737673767
 1 -9.03944354735474 -4.50255099799980 -2.03771703580358
 1 -7.93033239803980 -5.55899590379038 -0.98777839083908
 1 -9.12629251415142 -4.84648967026703 -0.22804462706271
 1 -3.54755545144514 -3.46331958265827 -0.26688195969597
 1 -1.92396056255626 -4.72891933163316  3.42070498579858
 1 -3.34233384198420 -5.94562618021802  3.70670350925092
 1 -1.88479659115912 -6.18580785398540  2.57974192709271
 1  2.75518482258226 -2.06670850675067 -1.53509747474747
 1  2.49858733633363 -0.15375109550955 -1.88081123332333
 1  4.31250215581558 -1.33898611381138  0.44427764376438
 1  3.99620858435844  1.08404711511151 -2.54367273697370
 1  5.31920733243324  1.88763902280228 -2.07642411061106
 1  5.74368167576758  0.43445455295530 -2.82986171717172
 1  6.55493755665567  1.12468646864686  0.08429107190719
 1  6.13065718511851 -0.45436347374737  0.88627834453445
 1  7.65548293299330 -1.18463769896990 -1.21298262186219
 1  7.73329576547655  0.46378958705871 -1.76335925952595
 1  9.16416846844684  0.67518540354035  0.57311494369437
 1  8.79649813851385 -0.60471597779778  0.91958982268227
 1  10.32725027642764 -0.09102656495649 -1.79247413691369
 1  9.26834181968197 -2.31683966046605 -1.53860978577858
 1  11.09088164386439 -2.58710549444945 -1.56510075397540
 1  10.16379926592659 -2.81274321632163 -0.10567000670067
 1  11.42057973887389  0.86492872307231  0.26064755225523
 1  11.68213126652665 -0.69533549484948  1.17059768136814
 1  12.99436275517552 -1.49374753595360 -0.72974064166417
 1  12.74461821432143  0.10217090809081 -1.63564692599260
 1  13.84241567826783  1.04401695769577  0.24846218921892
 1  13.97751050415042 -0.52361196589659  1.09781629812981
 1  15.14791808030803  0.44024350935094 -1.54176853485349
 1  16.14783222612261 -2.03378367046705  0.23207175327533
 1  14.98494154485449 -2.12449482508251 -1.18431584668467
 1  16.69660929032904 -1.85355087998800 -1.32718418791879
 1  16.14705990669067  1.75238307200720  0.38919546384638
 1  16.55311975917592  0.38083890879088  1.35961872307231
 1  18.30947188588859 -0.09365591299130 -0.51486482688269
 1  17.91086815131513  1.38737605650565 -1.12955653145315
 1  18.63202399499950  2.39093325102510  0.81772977827783
 1  19.07800496079608  0.99264344534453  1.63415341564156
 1  20.72121703440344  0.45812196039604 -0.11278421442144
 1  20.08138224482448  3.37417097899790 -0.89147274067407
 1  21.43778803090309  2.49763641644164 -1.41175253855386
 1  19.55489939433944  2.08357016781678 -2.09731670067007
 1  21.23585956115611  1.36424453355336  1.90581019821982
 1  22.13714542084208  2.03115434513451  0.75433039933993
 1  20.95650538043805  3.18223830713071  1.53479391989199

