%nproc=4
%Mem=2GB
# td=(NStates=1) CAM-B3LYP/6-31G(d,p) 

TD

0 1
12 -7.11764233723372  0.63103185128513  0.10289797719772
 6 -4.86302092009201 -1.89536071447145  0.56129266196620
 6 -4.83561349024903  2.91842028932893  1.15579194409441
 6 -9.47006174167417  3.09175467096710 -0.47070993069307
 6 -9.49205951965197 -1.67938344934493 -0.91727815691569
 7 -5.11849527412741  0.46498631673167  0.78933935223522
 6 -4.30138984508451 -0.74002382438244  0.86014403760376
 6 -2.94432343774377 -0.38523794949495  1.30042039623962
 6 -3.03320675907591  1.04886755505551  1.80523125382538
 6 -4.40548754365437  1.56597734653465  1.28581561146115
 6 -2.93254833693369  1.24896718481848  3.31568297719772
 6 -1.85959942094209 -0.55364062546255  0.11468542684268
 6 -0.44256167876788 -0.39886423362336  0.52987711701170
 6  0.50972210941094 -0.69021253415342 -0.65986136663666
 8  0.16297753785379 -1.08525393299330 -1.65496182788279
 8  1.83478528902890 -0.45540293669367 -0.19911670057006
 7 -7.17507795569557  2.69319490929093  0.23188188368837
 6 -6.13624290329033  3.39705068086809  0.71109464306431
 6 -6.41716896999700  4.80137442684268  0.74939562676268
 6 -7.76105881288129  4.91602223372337  0.27803619491949
 6 -8.19553382498250  3.47888708400840 -0.03030048374837
 6 -5.57697565426543  5.82350481638164  1.21219598009801
 6 -8.70484828242824  5.96067710141014  0.13488047344734
 6 -8.59018290959096  7.09528564716472  0.90768701850185
 7 -9.10546281888189  0.61831469256926 -0.49005303900390
 6 -9.81210747044704  1.68796874997500 -0.69506583068307
 6 -11.09904900150015  1.41798013711371 -1.23941566106611
 6 -11.12420482438244  0.07544290839084 -1.37430614461446
 6 -9.91719740044004 -0.44259623392339 -0.87619263536354
 6 -12.24622344604460  2.41030160116012 -1.61673844864486
 6 -12.32484703100310 -0.84460187028703 -1.85034584308431
 6 -12.22334982338234 -1.19980239143914 -3.29603472207221
 7 -7.30805027332733 -1.39224883848385 -0.05330000700070
 6 -8.22058229802980 -2.22376754885489 -0.44608956415642
 6 -7.80924707030703 -3.66757502500250 -0.35798307560756
 6 -6.49301318541854 -3.59616395339534 -0.08114984688469
 6 -6.21383397979798 -2.18319660096010  0.15578838303830
 6 -8.69712718011801 -4.81406424882488 -0.81168964736474
 6 -5.30396486678668 -4.31141502500250  0.29688256085609
 8 -5.20215905380538 -5.55038952235224  0.28631566226623
 6 -4.17855143454345 -3.28049383918392  0.55642550785079
 6 -3.52505313621362 -3.67508272957296  1.87308768166817
 8 -3.65211681228123 -3.02047878407841  2.92998567966797
 8 -2.80241143484348 -4.68310303270327  1.64240282118212
 6 -2.24373496139614 -5.25129935903590  2.88036297179718
 6  2.79526203790379 -0.80007780238024 -1.17265846624662
 6  4.14035612461246 -0.46337451375138 -0.57453760276028
 6  5.03502698709871  0.39180544594459 -0.95577535023502
 6  5.02590101310131  1.29398204750475 -2.09981414671467
 6  6.36033036583658  0.32618446864686 -0.17875436063606
 6  7.63770130803080  0.01224087718772 -1.01233818431843
 6  8.91427329992999 -0.00886601700170 -0.16628844164416
 6  10.12499312381238 -0.45143221492149 -0.94688565906591
 6  10.09026572677268 -1.91763269936994 -1.25733919891989
 6  11.37720059695970 -0.13690747154715 -0.02589172057206
 6  12.83034794249425 -0.42329638073807 -0.65867589048905
 6  14.01838130653065  0.03071186838684  0.20264733223322
 6  15.36314243914391 -0.11679540864086 -0.51858009780978
 6  15.64868653755375 -1.55620325412541 -0.87552717041704
 6  16.50860496639664  0.32586694669467  0.39137364456446
 6  17.88156274567457  0.42524392279228 -0.28924473907391
 6  18.96080645014501  1.15207342434243  0.72526295929593
 6  20.30347901710171  1.21668200170017  0.15710047324732
 6  20.43594494829483  2.12417071427143 -1.09457044974497
 6  21.19994092489249  1.64450738703870  1.30665602900290
 1 -4.19205068956896  3.62456797819782  1.54761934883488
 1 -10.36191658435844  3.73727456245625 -0.68346373787379
 1 -10.24877816721672 -2.44624396519652 -1.15300195239524
 1 -2.67056351325132 -1.06405471937194  2.19003969516952
 1 -2.33252685788579  1.66515009760976  1.32470312071207
 1 -1.94785924342434  1.01533198609861  3.73972768626863
 1 -3.22641770177018  2.38378243574357  3.64312647804780
 1 -3.65491893459346  0.64114879887989  3.71434384718472
 1 -1.85283776867687 -1.47219718011801 -0.39798370757076
 1 -2.25469714221422  0.24826207660766 -0.67409744934493
 1 -0.32404592199220  0.63203781768177  0.95378577767777
 1 -0.20972877487749 -1.28026254145415  1.26002995819582
 1 -5.98639741514151  6.85614425852585  0.66146185538554
 1 -5.39355634503450  6.10463382648265  2.46373267036704
 1 -4.48808276427643  5.58080924732473  0.93795697129713
 1 -9.44700675317532  5.76384253235323 -0.59130935913591
 1 -9.33662487838784  7.95228596749675  0.67890751255125
 1 -7.83608307410741  7.36094249374938  1.56923530903090
 1 -11.74233833893389  3.37288761476148 -2.23111611631163
 1 -13.05683535273527  1.79160305150515 -2.17185837733774
 1 -12.78600033113311  2.78221687638764 -0.76848809280928
 1 -12.23921870027003 -1.62892233733373 -1.28313326822682
 1 -13.35485420432043 -0.67533427022702 -1.54794032153215
 1 -13.02456880948095 -1.91881656785679 -3.62305218971897
 1 -12.21132469666967 -0.12666720432043 -3.65861935763576
 1 -11.34334061336134 -1.67074194129413 -3.55678429842984
 1 -9.14382398539854 -4.72784352725273 -1.78683194729473
 1 -8.10868023282328 -5.75367537173717 -0.71291090409041
 1 -9.61488137303730 -4.81011603290329 -0.16278810141014
 1 -3.59311000690069 -3.33262651335134 -0.25489076057606
 1 -1.72099026552655 -4.54579101880188  3.38079099439944
 1 -3.28093770237024 -5.32700431803180  3.46217905680568
 1 -1.78039615111511 -6.18851812501250  2.76352030493049
 1  2.78285758985899 -1.80927276317632 -1.57451141614161
 1  2.63699117671767 -0.26664238463846 -2.02951610381038
 1  4.38263916951695 -1.11702391759176  0.34244746074607
 1  3.95445440894089  1.26923563396340 -2.38893726342634
 1  5.31255666736674  2.39873013191319 -1.88836530473047
 1  5.72207951555156  0.90759186668667 -2.85459419041904
 1  6.66800886378638  1.23602760276028  0.34029667246725
 1  6.22415653505351 -0.32385042244224  0.72702241894189
 1  7.45345272997300 -0.98237747294730 -1.53964528812881
 1  7.97813024892489  0.62883609170917 -1.89659258285829
 1  9.18996104770477  1.03947183218322  0.13103073527353
 1  8.90393888258826 -0.47080258645865  0.74540240394039
 1  10.21382893429343  0.03138567626763 -1.89060394989499
 1  9.14754974047405 -2.27388536503650 -2.01954787958796
 1  11.05965852155216 -2.17605438933893 -1.93647789168917
 1  10.13269615561556 -2.69235117711771 -0.28092753245325
 1  11.08657633853385  0.90421265146515  0.38702018951895
 1  11.11716476987699 -0.75134109540954  0.75260588218822
 1  12.63247656655666 -1.60880904210421 -0.78374604220422
 1  12.79798355085508  0.08170886188619 -1.70398375967597
 1  13.92476391309131  1.26255881188119  0.54445178817882
 1  14.04147690079008 -0.69106871157116  1.06425294179418
 1  15.46838012651265  0.58350783578358 -1.39700405840584
 1  15.64460190309031 -2.22454274637464  0.07028557465747
 1  15.00622367306731 -1.99672204780478 -1.73924133923392
 1  16.60989061846185 -1.75903142804280 -1.39688115761576
 1  16.09821502220222  1.39574740844084  0.77606415071507
 1  16.78024247144714 -0.42076125122512  1.21726448764877
 1  18.34092503120312 -0.55997254465446 -0.70904424482448
 1  17.65568263276328  1.04115143404340 -1.11135471127113
 1  18.72720351295130  2.26482063976398  0.95082308760876
 1  19.22721988228823  0.82271645264526  1.92763276357636
 1  20.64990990369037  0.24435058325833 -0.32151508750875
 1  20.40338444504450  3.25479904180418 -0.68478207160716
 1  21.45275952805281  2.23736038883888 -1.48427979127913
 1  19.67874177857786  1.94843665446545 -1.93725069406941
 1  21.05437141234123  0.93164127322732  2.24601421862186
 1  22.24688639493949  1.46818804850485  1.04999996629663
 1  21.05458518841884  2.68434851815182  1.51633207370737

