%nproc=4
%Mem=2GB
# td=(NStates=1) CAM-B3LYP/6-31G(d,p) 

TD

0 1
12 -7.10801137413741  0.57798654675468 -0.03580589318932
 6 -4.71672629062906 -1.94805598399840  0.42373890659066
 6 -4.83939386828683  2.81841028832883  1.10392675757576
 6 -9.36993172867287  3.07128262376238 -0.43178603830383
 6 -9.54845515921592 -1.78270378137814 -0.87982441154115
 7 -5.03216664126413  0.41036085418542  0.58215863416342
 6 -4.24125383148315 -0.70149997199720  0.72617064026403
 6 -2.91687069246925 -0.36340576627663  1.16656701090109
 6 -2.99784322272227  1.06194886318632  1.51788251895190
 6 -4.41684867976798  1.52069281808181  1.11769879977998
 6 -2.84038912101210  1.23323561166117  3.11719312821282
 6 -1.84568802980298 -0.68605386678668  0.11811576987699
 6 -0.45017243984398 -0.49351369856986  0.56898102740274
 6  0.58327946514651 -0.63218673157316 -0.62434781528153
 8  0.29783102320232 -1.02348775637564 -1.67250358205821
 8  1.79287109760976 -0.30669806620662 -0.15200198909891
 7 -6.94408485638564  2.54444003380338  0.33181187668767
 6 -6.02854213321332  3.38880985678568  0.72349588318832
 6 -6.48087534063406  4.69771406080608  0.85016570377038
 6 -7.81576428342834  4.77162779427943  0.41718010931093
 6 -8.12180645224523  3.33774296959696  0.10505305160516
 6 -5.48710666736674  5.73433589948995  1.18178293879388
 6 -8.67936573417342  5.94674570827083  0.25120210561056
 6 -8.48403229452945  7.18823494209421  0.89229547934793
 7 -9.12884515711571  0.62644550565057 -0.53571760546055
 6 -9.88459471917192  1.75794574767477 -0.61406773087309
 6 -11.22660175677568  1.47294563366337 -1.05703742324232
 6 -11.25264766866687  0.10164552865287 -1.29648836283628
 6 -9.96993267396740 -0.43347532183218 -0.95274029012901
 6 -12.22730155385539  2.45108567956796 -1.48413518831883
 6 -12.44568911521152 -0.80660807090709 -1.84209501800180
 6 -12.25516300470047 -0.92680509170917 -3.37492261086109
 7 -7.16449591789179 -1.44631424502450 -0.21219589658966
 6 -8.23684392419242 -2.15620079217922 -0.59097405260526
 6 -7.85873201880188 -3.62708097559756 -0.57361463876388
 6 -6.53620750485049 -3.62413675067507 -0.04383611551155
 6 -6.17352994939494 -2.18582686398640  0.10163296749675
 6 -8.70244771217122 -4.85676851925193 -0.80385886428643
 6 -5.40207467776778 -4.43575745924592  0.26936980958096
 8 -5.23244208210821 -5.63146763016302  0.25420245094509
 6 -4.15668924832483 -3.45524131393139  0.59868973427343
 6 -3.57825845674567 -3.65067028832883  1.96377675057506
 8 -3.72489409000900 -2.84555129132913  2.96440912201220
 8 -2.85032622632263 -4.68051277367737  1.98945752665267
 6 -2.32179276717672 -5.22351658075808  3.27466240174017
 6  2.69809232093209 -0.44723251785179 -1.27565876627663
 6  4.17274936393639 -0.31772994929493 -0.61028117711771
 6  5.11714519891989  0.55690195559556 -0.90002977567757
 6  5.03255167816782  1.31790443974397 -2.13897806310631
 6  6.36675100790079  0.45079692989299 -0.18727521272127
 6  7.58046558445845 -0.07158750565057 -0.97203415391539
 6  8.87698957155716 -0.01045617601760 -0.11867368016802
 6  10.19392001650165 -0.45260233193319 -0.91753272377238
 6  10.16163286348635 -1.98183912001200 -1.28057152215222
 6  11.53533641054105 -0.26822060286029  0.02194306290629
 6  12.82260716841684 -0.61728577967797 -0.68398842174217
 6  13.94635410381038 -0.16614781758176  0.18108517601760
 6  15.35233135803580 -0.25597932703270 -0.48279651945195
 6  15.63181485038504 -1.60962859665967 -0.83384300200020
 6  16.50298440434043  0.30463482348235  0.44058856605661
 6  17.83314790419042  0.57222862126213 -0.26881269586959
 6  18.75811618111811  1.13687190419042  0.73634406740674
 6  20.26671534073407  1.28045837933793  0.20062482568257
 6  20.29310066386639  2.04380267746775 -1.15967696039604
 6  21.11682261306131  1.97889082538254  1.23161852525253
 1 -4.21262274677468  3.62027754915492  1.57487207410741
 1 -10.17322771547155  3.77874870987099 -0.25857124862486
 1 -10.28252154155416 -2.61011035183518 -0.98336498869887
 1 -2.83455991289129 -1.10300861476148  2.18704939613961
 1 -2.35615922112211  1.72865644824482  0.96952760316032
 1 -1.91024548204820  1.01881233413341  3.46392010551055
 1 -2.98709376937694  2.14162822032203  3.32155432083208
 1 -3.43083652635264  0.41987667166717  3.61566397919792
 1 -2.03025551045105 -1.69850981138114 -0.19947385658566
 1 -2.00563223572357 -0.22852560216022 -0.79105914551455
 1 -0.36164968236824  0.49369398329833  0.94723512261226
 1 -0.08217601960196 -1.16769128432843  1.42955691089109
 1 -5.88819759515952  6.69461810591059  0.90459616881688
 1 -5.11305829522952  5.95268863196320  2.45095139223922
 1 -4.52335629162916  5.67878904530453  0.75966914251425
 1 -9.42683473597360  5.68516466456646 -0.55239546774677
 1 -9.11508272417242  8.03330406930693  0.70927054885489
 1 -7.69923938973897  7.33042944244425  1.77600598609861
 1 -11.89060316541654  3.16671699769977 -2.31779478417842
 1 -13.08145781498150  1.98299219041904 -1.85207639913991
 1 -12.29634136523652  3.24597325202520 -0.65122636663666
 1 -12.30021479987999 -1.97140658575858 -1.38846380128013
 1 -13.42416113501350 -0.49607634443444 -1.60528605610561
 1 -13.01293764636464 -1.66137082328233 -3.92235211971197
 1 -12.18226179037904  0.30888635103510 -3.74997849354936
 1 -11.13927020632063 -1.43210807790779 -3.52129074907491
 1 -8.93061266426643 -4.72296303920392 -1.89747301140114
 1 -7.92406177097710 -5.73271327552755 -0.83047266026603
 1 -9.48322820772077 -4.71159618091809 -0.19190101270127
 1 -3.33073376927693 -3.46726997769777  0.01320604910491
 1 -2.07074524102410 -4.43375981568157  3.95674859015902
 1 -3.04755436403640 -5.71483310091009  4.03942678157816
 1 -1.64355246674667 -5.90065933913391  2.86702065496550
 1  2.55052435653565 -1.49831166706671 -1.77629159415942
 1  2.49656713431343  0.28589286888689 -2.07666081828183
 1  4.02478338393839 -0.75542775797580  0.44062727872787
 1  3.82058102160216  1.18849756015602 -2.42911128082808
 1  5.13034844654465  2.44231449034903 -1.85661212941294
 1  5.81529883748375  1.04276538403840 -3.11431016201620
 1  6.67636969986999  1.50368436843684  0.02819546234623
 1  6.31305542494249 -0.21370940834083  0.81052076877688
 1  7.45291267596760 -1.03159239443944 -1.19959128272827
 1  7.75910834673467  0.56963017111711 -1.73703662726273
 1  8.89431148274827  1.08265615061506  0.16050368256826
 1  8.76122461116112 -0.69964547074707  0.63146100980098
 1  10.31450900230023  0.16664920262026 -1.78575346484648
 1  9.43924891039104 -2.22391036753675 -2.12263818861886
 1  11.09010156585659 -2.37899468336834 -1.57191143504350
 1  9.94344723072307 -2.50271221322132 -0.71170060976098
 1  11.54975265616562  0.62196442664266  0.40834232173217
 1  11.39443249664967 -0.92611857315732  0.67337795939594
 1  12.97842116101610 -1.45355351655165 -1.01041870947095
 1  12.96511026352635  0.04542523352335 -1.60148350965097
 1  13.80486192289229  0.83147570357036  0.57641498449845
 1  13.98067082018202 -1.01193079777978  0.94384090059006
 1  15.38013130163016  0.46343582858286 -1.37112147014701
 1  15.60179762266227 -2.29760005210521 -0.00774222812281
 1  15.02787583828383 -2.06560893649365 -1.59548696379638
 1  16.74931456085609 -1.60946647154715 -1.15032650215022
 1  16.14358955965596  1.27846568026803  0.83401994629463
 1  16.41982642984298 -0.29223839893989  1.33462622382238
 1  18.37205814451445 -0.40258680608061 -0.73342668306831
 1  17.81329839433944  1.31363868276828 -1.13695727152715
 1  18.38790958355835  1.99870402810281  1.24895290059006
 1  18.66248340864087  0.53613779477948  1.65536553685369
 1  20.69794470717072  0.34069021722172 -0.02785572157216
 1  19.96936104270427  3.09737329922992 -0.94474806820682
 1  21.18028228032803  2.34776142894289 -1.52319368266827
 1  19.69808371277128  1.56590840164016 -2.12186915591559
 1  21.29696567176718  1.39595770487049  2.27224684188419
 1  22.25284699099910  1.86063729342934  0.76851181748175
 1  20.99176890679068  2.93883396669667  1.35702614311431

