%nproc=4
%Mem=2GB
# td=(NStates=1) CAM-B3LYP/6-31G(d,p) 

TD

0 1
12 -7.12296286928693  0.58167691579158 -0.08035034763476
 6 -4.82833745174517 -1.97976915531553  0.49941647434743
 6 -4.77720764966497  2.76312475977598  1.11232759765977
 6 -9.34224896039604  3.12176767226723 -0.33592645234523
 6 -9.52763307700770 -1.72040755175518 -0.95529195829583
 7 -5.14874829942994  0.42046186428643  0.64768518681868
 6 -4.38067777387739 -0.64465428742874  0.78390641384138
 6 -2.90824983038304 -0.38704813051305  1.13430378457846
 6 -3.00422386078608  1.10000266856686  1.67178790949095
 6 -4.30856785168517  1.44139488828883  1.13097012691269
 6 -3.06232131423142  1.31555384348435  3.23236464536454
 6 -1.84937839883988 -0.68388364976498  0.10421437973797
 6 -0.41721914451445 -0.45177952515252  0.52594672397240
 6  0.64526566376638 -0.66093960686069 -0.56465184568457
 8  0.33839507960796 -1.12145755335534 -1.62066839853985
 8  1.88665047554755 -0.25329272567257 -0.13856064496450
 7 -7.07159760766077  2.64279986978698  0.32128082358236
 6 -6.00402968196820  3.32731370717072  0.70811434503450
 6 -6.42340959405941  4.77959224862486  0.78616930413041
 6 -7.77708041504150  4.87646827832783  0.36542493379338
 6 -8.14202847444744  3.48022721802180  0.04773732003200
 6 -5.54384234093409  5.85063752965297  1.16398115861586
 6 -8.59553735133513  5.99452048574858  0.21603858925893
 6 -8.52762665396540  7.29443556215622  0.84683093289329
 7 -9.07335960856086  0.67686054715472 -0.53346738043804
 6 -9.81800806050605  1.75471542464246 -0.71790811491149
 6 -11.14260335693569  1.45974431353135 -1.19064078357836
 6 -11.16621902580258  0.08163352745275 -1.30849956395640
 6 -9.86257193789379 -0.46598857315732 -0.99231424752475
 6 -12.26906573027303  2.44635520652065 -1.40510728552855
 6 -12.36186073237324 -0.79565697579758 -1.70107091559156
 6 -12.31693918231823 -1.23180559175918 -3.21517663626363
 7 -7.25893536183618 -1.40717033063306 -0.12586726372637
 6 -8.27344758455846 -2.26913208530853 -0.57103205840584
 6 -7.83705985158516 -3.64479274677468 -0.55806308360836
 6 -6.55663954805481 -3.51201553855386 -0.03715544744474
 6 -6.20771336773677 -2.14603288458846  0.12545534973497
 6 -8.66636410381038 -4.86069891229123 -0.92416089448945
 6 -5.36742121242124 -4.37074095759576  0.14545741834183
 8 -5.19623846174617 -5.58699318271827  0.10347737843784
 6 -4.25233881328133 -3.34475026482648  0.64150401570157
 6 -3.67151778267827 -3.75430065136514  1.97444781768177
 8 -3.90795239583958 -3.18238497469747  2.92145482658266
 8 -2.77477867156716 -4.77371209360936  1.79856843774377
 6 -2.03180376827683 -5.08345257435743  3.03852878837884
 6  2.85164767646765 -0.53114090869087 -1.19164036443644
 6  4.17031912091209 -0.29274745104510 -0.61392154115412
 6  5.13430691509151  0.54102036743674 -0.90566033873387
 6  5.15514393739374  1.36299894919492 -2.13277744304430
 6  6.35790012281228  0.56886873707371 -0.06685317051705
 6  7.66805434333433 -0.02041238813881 -0.83060001050105
 6  8.95941781438144 -0.09224435483548  0.00681886908691
 6  10.21777240174017 -0.64884195589559 -0.74851582208221
 6  10.06723342354235 -2.14051498759876 -1.00243370837084
 6  11.46969984688469 -0.30203398419842  0.07016788538854
 6  12.77090199789979 -0.69634368546855 -0.64012403530353
 6  13.98702817121712 -0.12067327012701  0.25390245774577
 6  15.32978910381038 -0.29614334343434 -0.60884912471247
 6  15.53591526042604 -1.74635226902690 -1.02431204890489
 6  16.39616372227223  0.39569392939294  0.21641614881488
 6  17.72041663106311  0.61758315671567 -0.32483829842984
 6  18.74955532503250  1.35088330533053  0.63011344434443
 6  20.18826749594959  1.38142847634763  0.15795055825583
 6  20.55519687348735  2.08152644984498 -1.16527752045204
 6  21.05930686148615  1.93863679998000  1.21941730513051
 1 -4.06006749124913  3.62803832523252  1.46879146604660
 1 -9.98393878657866  4.01277211221122 -0.23980937243724
 1 -10.45117840724072 -2.46711605240524 -0.93962061426143
 1 -2.68196465336534 -0.92347066096610  2.03593428462846
 1 -2.50044364956496  1.84242782538254  1.16197684808481
 1 -1.96179063656366  1.19250970387039  3.68198191169117
 1 -3.27613267326733  2.23660771827183  3.73585575097510
 1 -3.55576901960196  0.49648433243324  3.69136154895490
 1 -2.11726421132113 -1.78215817621762 -0.14915882508251
 1 -2.33973564606461 -0.15712846244624 -0.74899493909391
 1 -0.43138665606561  0.56820143404340  1.06864726382638
 1  0.03269546754676 -1.20834534973497  1.20167412261226
 1 -5.98262703810381  6.72008065216522  0.90510621982198
 1 -5.40092708210821  5.92672603570357  2.28442473957396
 1 -4.42242619861986  5.81038220462046  0.43474665026503
 1 -9.57658971147115  5.99678582668267 -0.39704993319332
 1 -9.26580779667967  8.00559129802980  1.01996161796180
 1 -7.70920038583858  7.46981338083808  1.61756014151415
 1 -12.06937104220422  2.98148847484748 -2.31629463416342
 1 -13.09817948714871  1.79643353455346 -1.35125631713171
 1 -12.06702843394340  3.16121477617762 -0.46955819981998
 1 -12.43020779917992 -1.67165661076108 -1.14221917681768
 1 -13.20842956185619 -0.12829956675668 -1.48958448594859
 1 -13.07305365796580 -2.02899758595860 -3.31201108560856
 1 -12.41342490669067 -0.37065160276028 -3.85264876057606
 1 -11.33152943224323 -1.53652851995200 -3.49746836683668
 1 -8.93892349534953 -4.82878362126213 -1.99728299239924
 1 -7.87005637043704 -5.69609961416142 -0.66755636863686
 1 -9.63716360126013 -4.98017303860386 -0.46629845244525
 1 -3.31546224212421 -3.55945919661966 -0.10612588408841
 1 -1.60507867436744 -4.14415085478548  3.49208212351235
 1 -2.78577818641864 -5.45237685528553  3.87126996589659
 1 -1.45655376687669 -5.92539181238124  2.80560451335134
 1  2.63849315341534 -1.62305414131413 -1.63777774277428
 1  2.70271774937494  0.25866014561456 -1.97293044524452
 1  4.42292319791979 -0.78630084528453  0.15042825882588
 1  4.18854781828183  1.33453216361636 -2.92614098379838
 1  5.20873628532853  2.53457371627163 -1.67957442564256
 1  6.03570087768777  0.97838894639464 -2.83447217821782
 1  6.54830689358936  1.48523252325232  0.37154979777978
 1  6.33910803020302 -0.28875691309131  0.82831254795480
 1  7.39630701540154 -1.12787202240224 -0.89608093169317
 1  7.74409684558456  0.27941114921492 -1.92614553815382
 1  9.04887693929393  1.01084896989699  0.57994562676268
 1  8.80360884958496 -0.86398190439044  0.86292415611561
 1  10.28787633903390 -0.14654211651165 -1.72120701020102
 1  9.26045103060306 -2.36929490599060 -1.75651157595760
 1  10.84743729942994 -2.59483626752675 -1.39341358525853
 1  9.97044993099310 -2.77412935493549 -0.10880031973197
 1  11.41867954885489  0.72958518871887  0.34121560906091
 1  11.29048210161016 -0.90770673197320  1.04599522112211
 1  12.66787010591059 -1.84315247644764 -0.44466213381338
 1  12.72028578107811 -0.29071838083808 -1.61087444874487
 1  13.80024146084608  1.06558911491149  0.53218056105611
 1  14.12189494259426 -0.78747835253525  1.31616813331333
 1  15.42997628612861  0.25951543654365 -1.67391174917492
 1  15.46255369826983 -2.36481677377738 -0.09765121902190
 1  14.68028107880788 -2.10286266186619 -1.64609202430243
 1  16.37753738313831 -2.04967049194920 -1.52987445694569
 1  16.04738993969397  1.19767760146015  0.74248079237924
 1  16.57212165936593 -0.17346652175218  1.10695345654565
 1  18.13175411411141 -0.35137168456846 -0.83265660606061
 1  17.59453651815182  1.26336365526553 -1.32137571337134
 1  18.50238103070307  2.33112727042704  0.86006401170117
 1  18.66531369166917  0.72676685768577  1.42901290159016
 1  20.51933684638464  0.25991213941394  0.07112417641764
 1  20.25129923652365  3.13843740564056 -1.24892848624863
 1  21.66279053115312  2.05667232003200 -1.30211157445745
 1  19.91950585498550  1.64576638743874 -1.87643461246125
 1  20.79631560676068  1.50893900300030  2.20358997619762
 1  22.14807651395139  1.86891812151215  0.83654862116212
 1  20.74423415331533  3.11310139343934  1.36062650315032

