%nproc=4
%Mem=3GB
# td=(NStates=1) iop(3/107=0140000000,3/108=0140000000) CAM-B3LYP/6-31G(d,p) 

TD

0 1
12 -7.18967365906591  0.65162354585459  0.10389675967597
 6 -4.88327714421442 -1.98765599619962  0.45701110351035
 6 -4.76427245784578  2.79034775267527  1.18822892809281
 6 -9.40390715521552  3.07668522152215 -0.42728520382038
 6 -9.53349944794479 -1.72473423912391 -0.84946175107511
 7 -5.16529356055606  0.40620671127113  0.80956878087809
 6 -4.43831607890789 -0.75087623082308  0.87665556025603
 6 -2.92924914551455 -0.49628802680268  1.28515418451845
 6 -3.07158038493849  0.97075577717772  1.78649492879288
 6 -4.39994022872287  1.37094174527453  1.21255564946495
 6 -2.95504168496850  1.04304712401240  3.32900821542154
 6 -1.98710444014401 -0.59570555975598  0.17119092939294
 6 -0.49098480768077 -0.52597584558456  0.50712409470947
 6  0.45498742194219 -0.62554917681768 -0.64017380748075
 8  0.14349456625663 -0.99614339203920 -1.76136352945295
 8  1.73041163956396 -0.37553749214921 -0.22838822642264
 7 -7.01533917731773  2.64266747664766  0.31933285738574
 6 -5.99845998979898  3.37317108450845  0.63910978707871
 6 -6.33481839023902  4.80580744434443  0.72316057475748
 6 -7.67841262656266  4.90891269646965  0.41170729712971
 6 -8.07620714821482  3.51704864366437 -0.00896289768977
 6 -5.39279131303130  5.90699017271727  1.15205536073607
 6 -8.45359536753675  6.09001927152715  0.16689730223022
 6 -8.23061147114712  7.35892504220422  0.66834089338934
 7 -9.14547358845885  0.67992498689869 -0.50266684058406
 6 -9.90070755705571  1.85639896419642 -0.74540735423542
 6 -11.18718267096710  1.48396784128413 -1.20415527522752
 6 -11.09728921612161  0.09850739653965 -1.36445647394739
 6 -9.81875947954796 -0.35336552995300 -1.02703490479048
 6 -12.21011194889489  2.52827806920692 -1.41714116681668
 6 -12.25649944284428 -0.80420654445445 -1.67689702030203
 6 -12.19727163606361 -1.06029622192219 -3.30077072827283
 7 -7.20549351175117 -1.39494433013301 -0.13341601670167
 6 -8.25083941024102 -2.18982752825283 -0.51326290619062
 6 -7.88996103590359 -3.57522807420742 -0.48379867966797
 6 -6.52796058655866 -3.56178916101610 -0.08172025372537
 6 -6.21880561226123 -2.19072702850285  0.07768960436044
 6 -8.79702204170417 -4.76496259465947 -0.96311969506951
 6 -5.31756721962196 -4.34053761716172  0.24048902300230
 8 -5.12981397369737 -5.55930278727873  0.29318526712671
 6 -4.21629613221322 -3.34856230363036  0.59204752635264
 6 -3.67992216901690 -3.80067801050105  1.94520048854885
 8 -3.86588937233723 -3.24428178607861  2.95718907710771
 8 -2.76654200700070 -4.83641225972597  1.84263330083008
 6 -2.19090804780478 -5.37008221412141  3.08902630303030
 6  2.79466578697870 -0.54915320422042 -1.21703522072207
 6  4.05234611981198 -0.38036330423042 -0.60097266006601
 6  5.10941643294329  0.36498302630263 -1.03756663366337
 6  5.10125385098510  1.21304898019802 -2.28633276827683
 6  6.36205248394840  0.41928254425443 -0.20450097449745
 6  7.56803825642564 -0.27864641264126 -0.88951928062806
 6  8.93872158375838 -0.17777959405941 -0.05770187258726
 6  10.16620208080808 -0.53773543674367 -0.82227794779478
 6  10.08629190579058 -2.02186006590659 -1.46754372037204
 6  11.49871453525352 -0.31395628672867  0.06106814431443
 6  12.76539427492749 -0.50981101460146 -0.66895440054005
 6  14.03174444624462 -0.13374908920892  0.14371078267827
 6  15.30316630763076 -0.09954903850385 -0.52676832933293
 6  15.66205247624763 -1.58904729302930 -1.04378620492049
 6  16.43352034473448  0.44984150145014  0.43763849854986
 6  17.79085667336734  0.43582731233123 -0.16044257125713
 6  18.82392281088109  1.24103218171817  0.74247750445045
 6  20.25198800320032  1.42629206170617  0.21391809780978
 6  20.38989183498350  2.10678798389839 -1.02556725262526
 6  21.20546561356135  2.06390809070907  1.31749568956896
 1 -4.02081244474447  3.31333458485849  1.42471856765677
 1 -10.07046917021702  4.00158243274327 -0.36535106130613
 1 -10.26608103220322 -2.49241477657766 -0.92429024842484
 1 -2.68497578477848 -1.27210741344134  2.06143263396340
 1 -2.25619908620862  1.40978303940394  1.21010465946595
 1 -1.72461554795480  0.79125823222322  3.45613595099510
 1 -3.16805391449145  2.03043226602660  3.68847686988699
 1 -3.77527032753275  0.31267642194219  3.82702438763876
 1 -2.16950206920692 -1.46435710651065 -0.44015202230223
 1 -2.16551292029203  0.25989360916092 -0.52385912051205
 1 -0.22629805850585  0.34178376567657  1.11380524352435
 1 -0.26421484178418 -1.20807157375738  1.24315777407741
 1 -5.53473765146515  6.79173668566857  0.37098692999300
 1 -5.83030450175017  6.28458133953395  2.28097010951095
 1 -4.40600544514451  5.55664993299330  1.35146587918792
 1 -9.34185444524452  5.82480586258626 -0.31986333903390
 1 -9.13807287098710  8.23076279727973  0.50361013671367
 1 -7.22874080618062  7.48491532793279  1.20410937123712
 1 -11.88372884588459  3.21849099619962 -2.11630746224622
 1 -13.06889418711871  2.07359610201020 -1.81133686188619
 1 -12.55943697639764  3.06939427352735 -0.34885532503250
 1 -12.13420538543854 -1.67784870767077 -1.19757325822582
 1 -13.29024132323232 -0.33269598009801 -1.59648540294029
 1 -12.93833903310331 -1.75185884798480 -3.77483844194419
 1 -12.50524092979298  0.08726025472547 -3.69491847024702
 1 -11.18003284268427 -1.24432545974597 -3.62729100730073
 1 -9.19234385298530 -4.57132363316332 -1.97877394039404
 1 -7.94653903910391 -5.56243219651965 -1.12966292139214
 1 -9.33693787278728 -5.02065051345135 -0.11154342304230
 1 -3.38982650115011 -3.57990459605961 -0.08180591869187
 1 -1.66876026362636 -4.50381259465947  3.55967768536854
 1 -3.03334977227723 -5.67842736763676  3.77012805050505
 1 -1.55755627612761 -6.20983176797680  2.76886024712471
 1  2.71542959775978 -1.43775039783978 -1.66884833353335
 1  2.54142058335834  0.28486657145715 -1.93936499399940
 1  4.25839632633263 -0.86959537333733  0.32128352855285
 1  4.11105641714171  1.39790533323332 -2.65276576227623
 1  5.53263019521952  2.28085850975097 -2.17199463786379
 1  5.66355592409241  0.72814400530053 -3.21517777467747
 1  6.78843702760276  1.41617159775978 -0.21999238533853
 1  6.06685455755576 -0.15067240394039  0.78733492899290
 1  7.36620874367437 -1.28639931293129 -1.14349910711071
 1  7.65118767726773  0.17847695069507 -1.79692051495150
 1  8.94151019531953  0.88650814831483  0.41665409350935
 1  8.53465658645865 -0.79892824552455  0.73328945234523
 1  10.17731236303630  0.03283943174317 -1.64846000400040
 1  9.22585219431943 -2.09582786628663 -2.37963634553455
 1  11.02330147074708 -2.45771917121712 -2.02552791089109
 1  10.03761595869587 -2.84463857855786 -0.81760915461546
 1  11.17668931053105  0.58706513991399  0.61489926072607
 1  11.66804439993999 -1.12196349394940  0.76520284038404
 1  12.66522447494749 -1.46701412071207 -1.16583885538554
 1  12.76514234413441  0.06259119511951 -1.58291262496250
 1  13.77330875117512  0.88899426272627  0.53226805550555
 1  13.81119943054305 -0.81856823572357  1.11047342134213
 1  15.22483288468847  0.41936533353335 -1.42485375417542
 1  15.69519331613161 -2.25991533273327 -0.30938907440744
 1  15.19887153155315 -1.99376389638964 -1.79986135963596
 1  16.56789506910691 -1.48519941694169 -1.45345185848585
 1  16.13872714621462  1.55580391409141  0.51583750005000
 1  16.35104918271827  0.02547626282628  1.41309980468047
 1  18.30713745144514 -0.51164767876788 -0.46696689228923
 1  17.79806711631163  0.92646154025403 -1.22767851145114
 1  18.47185624252425  2.32588385638564  0.83430537733773
 1  18.71975793829383  0.69109394889489  1.76330957645765
 1  20.50509034133414  0.52514351195120  0.10865675787579
 1  20.24219103760376  3.03923469997000 -0.89490167486749
 1  21.43934773557356  2.00963210531053 -1.15429341054105
 1  19.94966336393639  1.70580087028703 -1.87623600800080
 1  20.91385523902390  1.58737437833783  2.32765643444344
 1  22.14553244604460  1.90081055175518  1.06571322492249
 1  21.09683976247625  3.22779889708971  1.44033116981698

