%nproc=4
%Mem=2GB
# td=(NStates=1) CAM-B3LYP/6-31G(d,p) 

TD

0 1
12 -7.17986855985599  0.61376012411241  0.18048573597360
 6 -4.92409702770277 -2.00712189058906  0.64472100480048
 6 -4.78255818471847  2.79423787108711  1.23095946084608
 6 -9.30777551305130  3.03843933943394 -0.42140500020002
 6 -9.54167448114812 -1.78803431443144 -0.94619104820482
 7 -5.13777720232023  0.38905872397240  0.85053547184718
 6 -4.34729443554355 -0.70756057805781  0.97430545374537
 6 -2.92026103150315 -0.43792321802180  1.22581293549355
 6 -2.96760019841984  1.11187385568557  1.77721845254525
 6 -4.40205720062006  1.45694644344434  1.28022505240524
 6 -2.94281936403640  1.20173246134613  3.35737714661466
 6 -1.89692315331533 -0.58557381878188  0.11507546584658
 6 -0.40254767736774 -0.32867721492149  0.56897102640264
 6  0.48072921012101 -0.58115162806281 -0.57871325182518
 8  0.12932417251725 -0.92879828742874 -1.66188251995200
 8  1.80870268076808 -0.26423381978198 -0.19630641954195
 7 -7.06273672157216  2.57170276007601  0.29510820632063
 6 -6.02070134913491  3.31072204800480  0.68711224482448
 6 -6.34515176827683  4.68980326972697  0.74124481168117
 6 -7.61759446644664  4.86058669016902  0.18422681398140
 6 -8.04571884348435  3.48454765006501 -0.07455490919092
 6 -5.39525748244824  5.80324279017902  1.24468922942294
 6 -8.46432423002300  6.06692772647265  0.05653263866387
 6 -8.31255514681468  7.21545766436644  0.75004125392539
 7 -9.05649792239224  0.59831269236924 -0.61887592129213
 6 -9.83013927362736  1.75104505760576 -0.67039336343634
 6 -11.12892198879888  1.45741408050805 -1.15680740024002
 6 -11.20529293319332  0.01037640174017 -1.34513322732273
 6 -9.93287896859686 -0.41171314561456 -0.91931694779478
 6 -12.25720454415442  2.44046461746175 -1.27400417521752
 6 -12.29489403570357 -0.80369777987799 -1.93683449194920
 6 -12.01267875627563 -1.15710812201220 -3.44266938553855
 7 -7.33395286358636 -1.41073068666867 -0.11171584858486
 6 -8.33912415221522 -2.22362753485349 -0.59914486968697
 6 -7.86271241684168 -3.63626189368937 -0.57802507980798
 6 -6.48928281238124 -3.48407274427443 -0.18516024792479
 6 -6.21425402180218 -2.15806408770877  0.15232803700370
 6 -8.67576504390439 -4.79603244564456 -0.87698617701770
 6 -5.41478594889489 -4.38977286078608  0.18151102370237
 8 -5.23191202910291 -5.56457094049405  0.26648367906791
 6 -4.31266484588459 -3.40653644344434  0.63866373167317
 6 -3.72618324922492 -3.70798601990199  1.97663803670367
 8 -3.84016561716172 -3.09328606480648  3.04361704280428
 8 -2.97189838353835 -4.82122684508451  1.88472705360536
 6 -2.36859744764477 -5.37307153625362  3.12168710421042
 6  2.82592510421042 -0.60878867346735 -1.16121732213221
 6  4.14530661966197 -0.37140531683168 -0.56320646964696
 6  5.09217270167017  0.44686095149515 -1.00137991069107
 6  4.96702512551255  1.38533118241824 -2.16337050235023
 6  6.39651398419842  0.53156500670067 -0.14591107630763
 6  7.52322986088609 -0.05661600850085 -1.05466241674167
 6  8.91077294989499  0.05513038263826 -0.31219303210321
 6  10.19859048354835 -0.53722079377938 -1.09161013151315
 6  10.16597329752975 -2.01430236633663 -1.45938940394039
 6  11.46298917581758 -0.23426720752075 -0.17688682008201
 6  12.81501640934093 -0.66126017711771 -0.69506952985299
 6  14.00441991039104 -0.05709691249125  0.15662272977298
 6  15.40540666556656 -0.20442417151715 -0.46415465526553
 6  15.65866753565357 -1.65101273507351 -0.81644126182618
 6  16.49703380928093  0.32422678267827  0.44133864106411
 6  17.84999958935893  0.49247064546455 -0.20389620422042
 6  18.85062543204321  1.08200641764176  0.81427186018602
 6  20.28106677587759  1.40312064556456  0.17451221442144
 6  20.33555490929093  2.22693099029903 -1.04467546024602
 6  21.19258018881888  1.96907984428443  1.21072643604360
 1 -3.96775826032603  3.54063958535854  1.48533312021202
 1 -10.09822021472147  3.76513734873487 -0.73270866236624
 1 -10.32648593799380 -2.46109545034503 -1.22688934113411
 1 -2.62005846274627 -1.05873418731873  2.04239493069307
 1 -2.24010761596160  1.57060064266427  1.46346699709971
 1 -1.93881833933393  0.97407786068607  3.67352106560656
 1 -3.23589864986499  2.20095415291529  3.60490265566557
 1 -3.52723616631663  0.34130881488149  3.86013842664266
 1 -2.11165365026503 -1.51623158355836 -0.12301621082108
 1 -2.17235890839084 -0.00982373197320 -0.91435147474747
 1 -0.23840735813581  0.62129674357436  1.04771517061706
 1 -0.56262406440644 -1.08601311651165  1.46063001820182
 1 -5.57716649204920  6.84201284538454  0.66010171937194
 1 -5.57476446584658  6.01403476657666  2.23303960106011
 1 -4.31783573957396  5.64817598399840  0.99356253185319
 1 -9.39762181468147  6.02561870997100 -0.70187041524152
 1 -8.85343655955596  8.02191293019302  0.27273689548955
 1 -7.39630909670967  7.41259765926593  1.38561694719472
 1 -11.97468157325733  3.29045937193719 -2.04737774247425
 1 -13.16803647284728  1.82342623382338 -1.77497868936894
 1 -12.71691342244224  2.84858351305131 -0.34004524852485
 1 -12.33198797719772 -1.74944438953895 -1.30892584748475
 1 -13.16500521942194 -0.22122885968597 -1.60713624112411
 1 -12.67166351895190 -1.88417310351035 -3.88249813431343
 1 -11.94677824202420 -0.21286582418242 -4.04502799849985
 1 -11.11752803210321 -1.75594046114611 -3.68129674967497
 1 -9.10755035803580 -4.73420416331633 -1.84907817191719
 1 -8.10459982478248 -5.85714571877188 -0.78153776677668
 1 -9.43312319721972 -4.88473349464946 -0.11257307990799
 1 -3.44496519241924 -3.53571682238224 -0.01244651615162
 1 -1.83158132463246 -4.50200664036404  3.55036795209521
 1 -3.21817142574257 -5.33453507110711  3.75371821072107
 1 -1.89138725022502 -6.46580585378538  3.08728268116812
 1  2.54064336843684 -1.60668250415041 -1.60342430743074
 1  2.68819629722972  0.01689596919692 -2.11681483368337
 1  4.61021192679268 -1.03968618381838  0.22845606160616
 1  3.87817678117812  1.51058976937694 -2.43381175087509
 1  5.71545695739574  2.45372563146315 -2.10676714491449
 1  5.47870517811781  0.98904001150115 -2.94997372837284
 1  6.61656371927193  1.70359435943594 -0.08389574677468
 1  6.48361248064807 -0.00515855325533  0.85962567926793
 1  7.27533491819182 -1.17844707990799 -1.26773809740974
 1  7.64226666256626  0.42375558365837 -2.08212113571357
 1  8.94971702330233  1.05162304730473  0.10684831703170
 1  8.71067955665567 -0.44143965016502  0.69564742844284
 1  10.21295884728473  0.16248878657866 -1.83000789028903
 1  9.18918390389039 -2.21146912341234 -1.83400932573257
 1  11.00693324902490 -2.34510129402940 -2.12949719361936
 1  10.18368125412541 -2.55582752475248 -0.61144058375838
 1  11.24583226412641  0.89620185038504  0.09647113461346
 1  11.13691674507451 -0.75714167546755  0.78037865946595
 1  12.95854917381738 -1.72030019121912 -0.72632029962996
 1  13.01111486398640 -0.37373668266827 -1.73374673597360
 1  13.80942237893789  1.02896545254525  0.46298364136414
 1  14.00106285938594 -0.50995059975998  1.17629414591459
 1  15.34339762826283  0.36597608260826 -1.55466982498250
 1  15.76055349824983 -2.31053134523452  0.03759230533053
 1  14.81628467916792 -2.21841421702170 -1.28893630873087
 1  16.65612524192419 -1.84721024592459 -1.60457192669267
 1  16.07546274697470  1.35446328002800  0.74570111441144
 1  16.43036748394839 -0.11974114921492  1.44473723492349
 1  18.18993993269327 -0.40917746514651 -0.53948728912891
 1  17.85647271177118  1.09112643154315 -1.04939851565157
 1  18.59181997459746  2.00927508520852  1.08184618991899
 1  18.83297045734573  0.47400158115812  1.70272027232723
 1  20.70179509220922  0.47874402260226  0.04041110511051
 1  20.19411351795179  3.19756331823182 -0.75755934933493
 1  21.35925017711771  2.18979563236324 -1.27101846514651
 1  19.70445434983499  2.21072288308831 -1.97978494749475
 1  21.16749272447245  1.39207731683168  2.06066568376838
 1  22.30283198949895  1.98054928462846  0.89939490579058
 1  21.02585231513152  3.14841492479248  1.53912435293529

