%nproc=4
%Mem=2GB
# td=(NStates=1) CAM-B3LYP/6-31G(d,p) 

TD

0 1
12 -7.06417699069907  0.62868161626163 -0.01199351195120
 6 -4.86129074707471 -1.90936211461146  0.53318985168517
 6 -4.85070499939994  2.85444389168917  1.16986335123512
 6 -9.42090682618262  3.11716721222122 -0.41614447414741
 6 -9.54008432213221 -1.73919943094309 -0.97276370547055
 7 -5.14930835543554  0.50328014611461  0.73528394669467
 6 -4.37850755685569 -0.61881170317032  0.82985100830083
 6 -2.94639364476448 -0.33303272897290  1.17842819701970
 6 -3.03355679407941  1.08824149244925  1.69243997469747
 6 -4.39123611851185  1.51373212201220  1.07788481838184
 6 -2.88365344744474  1.26651893999400  3.17358876777678
 6 -1.91760522152215 -0.68201346274627  0.04082804110411
 6 -0.48449587218722 -0.42427677487749  0.50202433173317
 6  0.55009614681468 -0.67785129802980 -0.64631001150115
 8  0.20918215831583 -0.74050945854585 -1.83980031173117
 8  1.81630344084408 -0.66819421582158 -0.21503829272927
 7 -7.10696114401440  2.68234382418242  0.40642933843384
 6 -6.13617289628963  3.38228920472047  0.88333186678668
 6 -6.45538279137914  4.80250453985399  0.89947063426343
 6 -7.70170287728773  4.99344997649765  0.30127851915192
 6 -8.16663093469347  3.50711990729073  0.00779332563256
 6 -5.57490544724473  5.91007347324733  1.28089284978498
 6 -8.60306810441044  6.07782881658166  0.07774475987599
 6 -8.71194508580858  7.10417653625363  0.90958720852085
 7 -9.11677394999500  0.62179504060406 -0.59885391909191
 6 -9.85331159085909  1.70484043714371 -0.74615093919392
 6 -11.16942603920392  1.44571291039104 -1.15636735623562
 6 -11.20857326122612  0.08181354545455 -1.28015672967297
 6 -9.95418109880988 -0.36869884418442 -0.98730374647465
 6 -12.35354417811781  2.35463603460346 -1.45287206200620
 6 -12.37065161146115 -0.81432884298430 -1.62419322782278
 6 -12.26667415581558 -1.25937834903490 -3.07596271487149
 7 -7.23825329362936 -1.35352496609661 -0.19545422242224
 6 -8.32585282508251 -2.24530970307031 -0.59895485068507
 6 -7.84762090769077 -3.54933320082008 -0.40990826812681
 6 -6.53323720782078 -3.56754109110911 -0.08056978887889
 6 -6.20868346474647 -2.11985026632663  0.06966977117712
 6 -8.63671113851385 -4.74872771517152 -0.72479095749575
 6 -5.40743521382138 -4.42754663816382  0.25402827542754
 8 -5.21799063696370 -5.58258274167417  0.15279230993099
 6 -4.22777635703570 -3.31176696649665  0.58982884818482
 6 -3.52416304720472 -3.67375259655966  1.89659003190319
 8 -3.87605920652065 -3.13220995719572  2.99883256435644
 8 -2.52675386908691 -4.63263798619862  1.79371795269527
 6 -1.96490707860786 -5.07205143424342  3.03491842734273
 6  2.83871638333833 -0.81787958255826 -1.28200940134013
 6  4.08677076607661 -0.56711488778878 -0.68475862486249
 6  5.17720120452045  0.20755702110211 -1.09821959465947
 6  5.04477290029003  1.08374102340234 -2.29146331163116
 6  6.40801513431343  0.42002385258526 -0.28895538073807
 6  7.64605214311431 -0.27695804270427 -0.86956390689069
 6  8.89243111571157 -0.13179831023102 -0.13267508030803
 6  10.29076970147015 -0.51109818151815 -0.84972594309431
 6  10.11955865606561 -2.10280121622162 -1.27116058105811
 6  11.54790766766677 -0.23409719051905  0.04671554015402
 6  12.80222513021302 -0.46700075117512 -0.71339136203620
 6  14.02279174757476  0.01872066926693  0.13132019951995
 6  15.39589571447145 -0.16255998509851 -0.51390963076308
 6  15.76164783368337 -1.59164679847985 -0.90275989368937
 6  16.40187429332933  0.39527388738874  0.55548005520552
 6  17.82782737213721  0.53103450185018 -0.04172998759876
 6  18.85249561906191  1.24715293229323  0.80829126212621
 6  20.16388505770577  1.33088342184218  0.14054881808181
 6  20.26135748954896  2.27249554675468 -1.03323431613161
 6  21.33255418621862  1.66050898719872  1.18106346974697
 1 -4.11460294479448  3.59481500290029  1.43844843174317
 1 -10.20198059075908  3.85565640064006 -0.48502389388939
 1 -10.12095538493849 -2.38073741454145 -1.34628128032803
 1 -2.62591904880488 -0.96109442334233  1.93919461066107
 1 -2.20903450865087  1.63947753035304  1.19070972137214
 1 -1.95713017051705  0.95409586248625  3.41872558605861
 1 -3.17939299929993  2.17830188768877  3.53338550395039
 1 -3.59077251995200  0.73605828982898  3.76413882668267
 1 -1.94053653855386 -1.61187114751475 -0.16382029122912
 1 -1.96607828032803 -0.13100585018502 -0.83406344594459
 1 -0.23380689808981  0.82113672757276  0.79756015511551
 1 -0.28500630263026 -1.06173068826883  1.38906286148615
 1 -6.11295007040704  6.97125576967697  0.83835954515452
 1 -5.75441243064306  5.77278064116412  2.45608190529053
 1 -4.72172612861286  5.74458562496250  0.92600577617762
 1 -9.10648270077008  5.99916606470647 -1.05577580578058
 1 -9.37561877777778  7.93902464136414  0.80223984578458
 1 -8.24774424022402  7.17979437893789  1.97895628112811
 1 -12.20293439853985  2.92816314231423 -2.42567557225723
 1 -13.36276594579458  1.64881877307731 -1.39925111661166
 1 -12.45740747184719  2.89508816351635 -0.65396664066407
 1 -12.42788756715672 -1.78976842194219 -1.10969592449245
 1 -13.31366008490849 -0.38270500730073 -1.30825635313531
 1 -13.31227758035804 -1.61479616581658 -3.32891277577758
 1 -12.20671423562356 -0.40270480808081 -3.77532102780278
 1 -11.23779005830583 -1.78671353845385 -3.24111273127313
 1 -9.11918152115212 -4.68982972587259 -1.80783404750475
 1 -8.02550191499150 -5.60157016121612 -0.69391900490049
 1 -9.49273915881588 -4.73441846314632  0.01243942134213
 1 -3.38358905480548 -3.40597384808481 -0.10858613011301
 1 -1.18583675017502 -4.38269470917092  3.23030594589459
 1 -2.84168377697770 -5.12358397599760  3.71064390329033
 1 -1.20517862936294 -5.95340461366137  2.91837579047905
 1  2.79958926302630 -1.82785462136214 -1.69084304930493
 1  2.69992747034703 -0.18089380978098 -2.08306145834583
 1  4.31674257985799 -1.00597281248125  0.24966818281828
 1  4.11177014051405  1.07450616101610 -2.76050442014201
 1  5.31570698239824  1.99646990589059 -1.93544001220122
 1  5.66513382098210  0.78736984448445 -3.11707043804380
 1  6.57268933183318  1.55491949194920 -0.03229058625863
 1  6.41504562396240 -0.05250328772877  0.72948266496650
 1  7.29197658235824 -1.14511374657466 -1.26007733133313
 1  7.60403283918392  0.23344655275527 -1.84074699829983
 1  9.12004405600560  0.86172405740574  0.26762439463946
 1  8.91515000370037 -0.72174768096810  0.60083794749475
 1  10.27532508390839  0.15554809250925 -1.74857974747475
 1  9.45438042354235 -2.00604858135814 -2.24597052185219
 1  11.10686324202420 -2.49848663256326 -1.55695993989399
 1  9.78571145714572 -2.76709865186519 -0.32446188588859
 1  11.41409909080908  0.86580881108111  0.39610109760976
 1  11.43475652905291 -0.88942490379038  0.90345096669667
 1  12.81996531543154 -1.58579674087409 -0.93002066966697
 1  12.73651740424042  0.14126481748175 -1.60390375167517
 1  13.91175261196120  1.10464302030203  0.60348769176918
 1  13.97263001610161 -0.48121772647265  1.19524604110411
 1  15.44844813331333  0.53344282928293 -1.25272963096310
 1  15.76514395729573 -2.03508380048005  0.12758130423042
 1  15.17597064776478 -1.91415379097910 -1.61005842094209
 1  16.76785641504150 -1.55931145604560 -1.28787025652565
 1  16.19113431413141  1.29100693439344  0.91405795009501
 1  16.60187463466346 -0.37147632273227  1.37591035223522
 1  18.17328826752675 -0.52194874227423 -0.33779712011201
 1  17.54989205370537  1.14099141804180 -0.95306888268827
 1  18.42564335693569  2.24073823152315  1.35669367466747
 1  18.89674683498350  0.57599178017802  1.82758275857586
 1  20.47232214491449  0.33888003620362 -0.33796673267327
 1  19.86960106670667  3.18119168106811 -0.44302789618962
 1  21.26061031313131  2.56761341414141 -1.16491785508551
 1  19.81080498489849  1.85389720052005 -1.97089405840584
 1  21.13759973517352  1.08638674777478  2.12457207440744
 1  22.33578528482848  1.54095532523252  0.66026099239924
 1  21.32955268516852  2.82470255355536  1.51674211471147

