%nproc=4
%Mem=2GB
# td=(NStates=1) CAM-B3LYP/6-31G(d,p) 

TD

0 1
12 -7.15030560356036  0.58522727082708  0.05836352375238
 6 -4.87297191519152 -1.93793497189719  0.51895842854285
 6 -4.86226615551555  2.93344179147915  1.18918528342834
 6 -9.46894162966297  3.07958345384538 -0.43178603830383
 6 -9.50494080778078 -1.69197470847085 -0.91939836893689
 7 -5.17265068966897  0.46550636873687  0.82434285258526
 6 -4.40710041614161 -0.71432125412541  0.89834785798580
 6 -2.93387239263926 -0.27946737243724  1.21812216641664
 6 -3.04892833123312  1.18579124742474  1.63561429212921
 6 -4.47256425132513  1.58654940374037  1.21353838373837
 6 -2.85203028512851  1.31084337243724  3.24579598849885
 6 -1.89884334533453 -0.56401166256626  0.11135509380938
 6 -0.44190161276128 -0.47547189438944  0.66204033333333
 6  0.43367450465047 -0.64882839573957 -0.42272765326533
 8  0.18126936703670 -0.82583799139914 -1.63319965166517
 8  1.78419022952295 -0.43651104750475 -0.05891268016802
 7 -7.07706815471547  2.64595018481848  0.34479317481748
 6 -6.10225950495050  3.41990296609661  0.83330686428643
 6 -6.39474672777278  4.78651294069407  0.74888557575758
 6 -7.72309501650165  4.84130476197620  0.34480287158716
 6 -8.12113638523853  3.38851804710471 -0.07562501620162
 6 -5.52718067476748  5.94042650855086  1.16220098059806
 6 -8.64655245284528  5.97435846954695  0.18048503390339
 6 -8.57136102740274  7.09075519411941  0.88615486528653
 7 -9.00533280588059  0.66575943704370 -0.72203623732373
 6 -9.88597485718572  1.78811876497650 -0.70109643374337
 6 -11.19353845044504  1.35523386248625 -1.11230294979498
 6 -11.27730013391339 -0.06064069997000 -1.29337805180518
 6 -9.86292197289729 -0.36140811511151 -1.00741575767577
 6 -12.28455727942794  2.33402397339734 -1.49296607140714
 6 -12.25066961326133 -0.98248565866587 -1.73733454195420
 6 -12.31893938233823 -1.20751316251625 -3.26402152075208
 7 -7.13957342564257 -1.38580819441944 -0.27614229122912
 6 -8.29883012281228 -2.28006317841784 -0.57054200940094
 6 -7.83840998659866 -3.59095736323632 -0.47820509780978
 6 -6.43995787988799 -3.54524886188619 -0.06388812071207
 6 -6.18887148354835 -2.18564684598460  0.16313911811181
 6 -8.57771523892389 -4.81686452885289 -0.79786826522652
 6 -5.28334280458046 -4.37267115061506  0.23017589018902
 8 -5.19846868476848 -5.62465694909491  0.26379341004100
 6 -4.08861244064406 -3.31715750555056  0.57144701000100
 6 -3.60671130203020 -3.68576379767977  1.97015738863886
 8 -3.87491909250925 -3.09997673387339  2.97443012411241
 8 -2.62538373207321 -4.66071079347935  1.87635621652165
 6 -2.04430501840184 -5.04519874897490  3.15567050255026
 6  2.80244275597560 -0.45694348894889 -1.19722092249225
 6  4.12712480148015 -0.36153432973297 -0.59648979797980
 6  5.06470995539554  0.55607187258726 -0.94091386408641
 6  5.05875429842984  1.38174082338234 -2.13522768806881
 6  6.43569790259026  0.41467331753175 -0.20281676687669
 6  7.60862840074007 -0.05364571147115 -1.06042299279928
 6  8.96485835843584 -0.04325945634563 -0.34502631543154
 6  10.22938356285628 -0.50024709640964 -1.10138110861086
 6  10.25292199239924 -1.97850878697870 -1.64288775377538
 6  11.50180305720572 -0.47942172297230 -0.21341047244724
 6  12.79147405510551 -0.62888693979398 -0.81327135003500
 6  14.02534200260026 -0.25246644944494  0.09601666916692
 6  15.41350747564756 -0.29479320842084 -0.55459369916992
 6  15.74507617651765 -1.68191582538254 -1.06451606930693
 6  16.39870397629763  0.15192955295530  0.45460996819682
 6  17.90502509190919  0.34678607700770 -0.09283509810981
 6  18.73767413691369  1.17910612761276  0.83929436243624
 6  20.12790145934593  1.43534386788679  0.28541330453045
 6  20.26457781158116  2.13067136433643 -0.96822781548155
 6  21.03336426722672  1.96935987228723  1.47338270167017
 1 -4.16222770727073  3.52617813921392  1.43751833873387
 1 -10.22102249494949  3.88543937893789 -0.66346173767377
 1 -10.47037032643264 -2.21439077987799 -1.22766941914191
 1 -2.59026548344834 -0.98397671157116  1.95071576277628
 1 -2.39180278547855  1.88905248784878  1.10227087748775
 1 -1.91684614211421  1.07362781568157  3.56705041854185
 1 -3.26734179417942  2.24147820532053  3.61235340074007
 1 -3.50099354205421  0.44456914091409  3.84179659245925
 1 -1.97315980088009 -1.57779774017402 -0.24912882208221
 1 -2.06606827932793  0.09641689208921 -0.73404344394439
 1 -0.22343586098610  0.50906552045205  1.03272367146715
 1 -0.27059486148615 -1.10851536673667  1.42013596879688
 1 -5.68389716511651  6.77282592669267  0.54370007920792
 1 -5.83725071447145  6.38437180028003  2.32637893499350
 1 -4.54923887988799  5.73811497789779  0.90109328492849
 1 -9.26444849734973  5.87599374747475 -0.55729595779578
 1 -9.32604382028203  7.97256799569957  0.76584620642064
 1 -7.59354882068207  7.20606700620062  1.61189957545755
 1 -11.81352545764577  3.20442076807681 -2.21957496219622
 1 -13.07368703790379  1.82279617081708 -2.15816700820082
 1 -12.64391612271227  2.78727738243824 -0.46762800680068
 1 -12.12811759015902 -1.88664810991099 -1.34791974687469
 1 -13.21069978887889 -0.66840357715772 -1.23813934143414
 1 -13.25943229582958 -1.56527121332133 -3.69413929842984
 1 -12.25641920612061 -0.34198873647365 -3.88201169686969
 1 -11.38971525082508 -1.77911277837784 -3.59101772177218
 1 -9.07996759975998 -4.74587533043304 -1.87112037613761
 1 -8.20838020282028 -5.83816382058206 -0.82345195819582
 1 -9.46837672257226 -4.88016303760376 -0.15076689928993
 1 -3.17817851375138 -3.22078532923292 -0.10167543904390
 1 -1.53598176467647 -4.01222766246625  3.56082899819982
 1 -3.01960156875688 -5.42126374397440  3.76600943984398
 1 -1.19007711921192 -5.83884315751575  2.88062201510151
 1  2.49489879397940 -1.40716255215522 -1.60966493149315
 1  2.64892236983698  0.17446172577258 -1.99857300950095
 1  4.31889279487949 -0.94247646284628  0.44404762076208
 1  4.22664162766277  1.31242995339534 -2.73153152285228
 1  5.18919433113311  2.40838109700970 -1.76833330153015
 1  6.02716002360236  1.04907601510151 -2.78658738973897
 1  6.85769783268327  1.38769276927693  0.35409805260526
 1  6.22802692209221 -0.43393143054305  0.62817253395340
 1  7.49298668336834 -1.01808104330433 -1.43938526212621
 1  7.66550898679868  0.54384759285929 -1.92343526712671
 1  9.22005405700570  0.92477036203620  0.05019265146515
 1  8.85754424312431 -0.59847535373537  0.52525038873887
 1  10.25434298569857  0.09506204390439 -1.99706459595960
 1  9.28747373287329 -2.10721869836984 -2.29226515131513
 1  11.11035359105911 -2.29026581048105 -2.19022326622662
 1  10.28775166116612 -2.52188413041304 -0.63826326602660
 1  11.56088376927693  0.48357058725873  0.30494198169817
 1  11.18621167456746 -1.14871083238324  0.66727734933493
 1  12.88365168406841 -1.59745790699070 -1.04596226382638
 1  12.77568132063206  0.00528121912191 -1.69691305260526
 1  13.74331576827683  0.84973752975298  0.41391873487349
 1  13.83385613871387 -0.87508711341134  1.11820833733373
 1  15.24305759425943  0.25333481848185 -1.38035239323932
 1  15.82344978787879 -2.38543883598360 -0.03705515941594
 1  14.96748979967997 -2.11582395799580 -1.70748816391639
 1  16.72565219461946 -1.68160368526853 -1.58820028952895
 1  16.11504670537053  1.15435326902690  0.75156170047005
 1  16.41098554575457 -0.46983615871587  1.16308907010701
 1  18.13251419011901 -0.53489003640364 -0.38223156355636
 1  17.87036410091009  0.93278059695970 -1.24666824262426
 1  18.29590038263827  1.93399755745575  1.18963696899690
 1  18.63582074237424  0.65841002200220  1.90729072937294
 1  20.62098701140114  0.27649379757976  0.23978104210421
 1  19.88213231983198  3.12763632553255 -0.77824141754175
 1  21.37477172927293  2.16979363216322 -1.36191755505551
 1  19.48691259565957  1.49436124692469 -1.82911988098810
 1  20.96571254645465  1.46993510261026  2.37619723692369
 1  22.04694640094009  2.03487471717172  1.24529949624963
 1  20.76066579647965  2.97118720202020  1.92649308980898

