%nproc=4
%Mem=2GB
# td=(NStates=1) CAM-B3LYP/6-31G(d,p) 

TD

0 1
12 -7.14117469046905  0.49748849694969  0.13095078247825
 6 -4.81636625462546 -1.92138331673167  0.44476100880088
 6 -4.76950687958796  2.84224267156716  1.08174453935394
 6 -9.47323205870587  3.02654815031503 -0.31862472217222
 6 -9.61754206790679 -1.75842135313531 -0.88437486658666
 7 -5.08848227282728  0.42919273737374  0.85963638193819
 6 -4.28744845094509 -0.65775559755976  0.78099612281228
 6 -2.92593159855986 -0.30427985368537  1.22349270347035
 6 -3.05185862426243  1.16605927422742  1.61737246794679
 6 -4.35739273417342  1.60337108590859  1.16261329122912
 6 -3.01392647474748  1.30513280138014  3.23095450435044
 6 -1.84414787578758 -0.51633689508951  0.05910986928693
 6 -0.39396681928193 -0.43853820102010  0.50422455175518
 6  0.58968010521052 -0.69625313821382 -0.62951833233323
 8  0.30838207830783 -1.04824023162316 -1.75210154185419
 8  1.85125693619362 -0.39887728412841 -0.16739352825283
 7 -7.15070551845185  2.57676326612661  0.33769246474647
 6 -6.07007628662866  3.34677565336534  0.71784531813181
 6 -6.44056130923092  4.82316660606061  0.76616730393039
 6 -7.76821952895290  4.89523015451545  0.27898628992899
 6 -8.23434770637064  3.46202539783978  0.14340688698870
 6 -5.51631958865887  5.99778224412441  1.11837659815982
 6 -8.62582037963796  6.08183921762176  0.19429641504150
 6 -8.38935282658266  7.27574369296930  0.80841709150915
 7 -9.19661193379338  0.56591945304530 -0.44919895359536
 6 -9.95073133283328  1.70155010811081 -0.60539686378638
 6 -11.26786588318832  1.46744508360836 -1.08812053155316
 6 -11.26212861676168  0.04777014111411 -1.23896261026103
 6 -10.00095577627763 -0.46029800410041 -0.87324234033403
 6 -12.24713353705370  2.43283385438544 -1.42910968576858
 6 -12.42544709100910 -0.80875828592859 -1.75985679417942
 6 -12.27368485688569 -1.15142755395540 -3.28208332693269
 7 -7.26784625292529 -1.40183979757976 -0.23247792479248
 6 -8.28890913071307 -2.29967513961396 -0.56389134433443
 6 -7.74396054165417 -3.67347561506151 -0.52157943524352
 6 -6.44949883398340 -3.57095143214321 -0.07145887778778
 6 -6.17151974837484 -2.17160544184418  0.03010581478148
 6 -8.63627109450945 -4.82360520292029 -0.69842832123212
 6 -5.30332480278028 -4.36550043354335  0.15081795439544
 8 -5.19201803970397 -5.58935341874187  0.10242727342734
 6 -4.17802138153815 -3.32648843864386  0.40340020532053
 6 -3.60633126402640 -3.70293551485149  1.84597497039704
 8 -3.87398899949995 -3.12592932913291  2.84048672977298
 8 -2.60564175787579 -4.69782450485048  1.80629921082108
 6 -2.03454404230423 -5.12189641874187  3.03104804030403
 6  2.85989850155016 -0.70651844644464 -1.25376657705771
 6  4.17749983898390 -0.43407158345835 -0.66898704770477
 6  5.15989947434743  0.46428269366937 -0.97252702540254
 6  5.14470289328933  1.23900654995500 -2.24908907420742
 6  6.45920025282528  0.51755360556056 -0.17720420562056
 6  7.60732827072707 -0.05569591649165 -0.88324527502750
 6  8.88411028362836 -0.01601673207321 -0.02908472127213
 6  10.22682330683068 -0.45441251295130 -0.87330830133013
 6  10.15764246444644 -1.97535847194719 -1.22390585558556
 6  11.42160503740374 -0.27631141194119  0.09014988358836
 6  12.83927883558356 -0.44862891399140 -0.58293831673167
 6  13.93620308870887 -0.05993719651965  0.26752381988199
 6  15.34423054795480 -0.28775250435043 -0.41597983778378
 6  15.60871254015401 -1.73472110591059 -0.81197081478148
 6  16.39826393229323  0.32822718271827  0.46995150235023
 6  17.73909849924992  0.49251064946495 -0.16663247784778
 6  18.82557292679268  1.18785700270027  0.73292372537254
 6  20.23049171837184  1.26346668016802  0.07856261946195
 6  20.30043139693969  2.09991828902890 -1.24773576627663
 6  21.18209914071407  1.82832576887689  1.16707207060706
 1 -3.96868835333533  3.67706322772277  1.51993658055806
 1 -10.18813920662066  3.77089792479248 -0.56031142264226
 1 -10.47108039743974 -2.54024336513651 -1.06875352755276
 1 -2.40554701160116 -0.90551886578658  2.09641033223322
 1 -2.22079568476848  1.83188677127713  1.21890254065407
 1 -2.17540199769977  0.61889234213421  3.67333104660466
 1 -2.94086914691469  2.48779283678368  3.61494365976598
 1 -3.85581902460246  0.71073575757576  3.58777118991899
 1 -2.21984446934694 -1.46613657405741 -0.30457436663666
 1 -1.70288196069607  0.28651590199020 -0.89180922052205
 1 -0.03679719711971  0.56473108700870  0.85945634473447
 1 -0.14776257825783 -1.11212572777278  1.37634158935894
 1 -5.84478325372537  6.92658130223022  0.57086279547955
 1 -5.46049303870387  5.98868223132313  2.14353065016502
 1 -4.49977393339334  5.89556072247225  0.65190836643664
 1 -9.32729478197820  5.94883103120312 -0.74023425162516
 1 -9.24378559445945  8.16681742064206  0.60997061886189
 1 -7.91035050085009  7.46783318281828  1.72349073457346
 1 -11.90773487858786  3.31114144014401 -2.06076908160816
 1 -13.13928359755975  1.89635352655265 -1.76447763926393
 1 -12.54677640874088  2.94612326702670 -0.39661090509051
 1 -12.69452423082308 -1.80588003310331 -1.43319827472747
 1 -13.38774749364936 -0.39840657745775 -1.47802332983298
 1 -13.08232458505851 -2.02780746694669 -3.66135602010201
 1 -12.67220078427843 -0.33315785338534 -4.03976747244725
 1 -11.18745502480248 -1.48259312641264 -3.66784540454045
 1 -9.10617022002200 -4.69087983088309 -1.72856612071207
 1 -8.05489485428543 -5.75748575277528 -0.82826243924392
 1 -9.36677656255626 -4.87139216051605  0.11239941734173
 1 -3.29798049394940 -3.31570482118212 -0.24098937043704
 1 -1.46959512601260 -4.44581102080208  3.54313722902290
 1 -2.69785939453945 -5.47454907250725  3.72264510341034
 1 -1.44448255975598 -6.02776204940494  2.71507546044604
 1  2.61775107920792 -1.58777061296130 -1.49422338733873
 1  2.71363884148415  0.05126940654065 -1.92237538973897
 1  4.39829073467347 -1.03187540274027  0.34231744774477
 1  4.06767573107311  1.22315102550255 -2.41991036073607
 1  5.57251266296630  2.35452571147115 -2.02923939213921
 1  5.76731403900390  0.83151425892589 -3.06532526352635
 1  6.64091615451545  1.57794179417942  0.06266890969097
 1  6.42846696609661 -0.10473851125113  0.71179089578958
 1  7.45879326402640 -0.98080731593159 -1.26242756635664
 1  7.79199163506351  0.41717492559256 -1.83403632723272
 1  9.16217826942694  0.94530241524152  0.29156678887889
 1  8.84702319101910 -0.72774828102810  0.88239610331033
 1  10.38802635403540  0.27343988168817 -1.65198008750875
 1  9.32980796629663 -2.38433641014101 -1.86003192799280
 1  11.02886544224422 -2.36460324422442 -1.69433367726773
 1  10.06185907190719 -2.52093403540354 -0.24471391109111
 1  11.45211289218922  0.62272450265027  0.64042553005301
 1  11.25094814821482 -1.19334529582958  0.83000362196220
 1  13.04693801270127 -1.46805496669667 -0.88927659525953
 1  12.71192494499450  0.09432012301230 -1.34220758205821
 1  14.03661509820982  1.11624418041804  0.43897124012401
 1  13.96672942604260 -0.75196480118012  1.30400691719172
 1  15.16361965046505  0.35849533453345 -1.21066542454245
 1  15.46876431933193 -2.37031732383238  0.05093363946395
 1  14.77160021072107 -2.04636701230123 -1.46402381748175
 1  16.62570219961996 -1.84798032293229 -1.26506797629763
 1  15.88820402110211  1.33796162986299  0.79096564086409
 1  16.32120656785678 -0.35216439153915  1.43927668886889
 1  18.20172111081108 -0.46268281568157 -0.53962730313031
 1  17.44585164966497  1.21446876577658 -0.97696127192719
 1  18.54592538513851  2.18937309500950  0.92121012631263
 1  18.99052621292129  0.70839502050205  1.58778877917792
 1  20.51953686638664  0.23890003820382 -0.17989092509251
 1  19.95716982358235  3.09225278717872 -0.92168576197620
 1  21.31120537263726  2.22326897969797 -1.75703706700670
 1  19.50909481388139  1.64996680748075 -1.76651362036204
 1  20.98385436063606  1.20979908900890  1.98568818601860
 1  22.27140884718472  1.91265249494949  0.92039700600060
 1  20.65177490739074  2.84187427072707  1.28848928942894

