%nproc=4
%Mem=2GB
# td=(NStates=1) CAM-B3LYP/6-31G(d,p) 

TD

0 1
<<<<<<< HEAD
12 -6.97935850885088  0.64168291639164  0.04616230363036
 6 -4.90910552855286 -1.97976915531553  0.58723525622562
 6 -4.81778170707071  2.82152059935994  1.17326369126913
 6 -9.38946368186819  3.06306180168017 -0.42496535623562
 6 -9.53770408410841 -1.72057756875688 -0.77680410951095
 7 -5.08810223482348  0.49603942204220  0.60372079037904
 6 -4.36703640974097 -0.72827264926493  0.73739176237624
 6 -2.89391839723972 -0.38948837453745  1.22612296649665
 6 -3.05163860226023  1.04816748504850  1.69636036673667
 6 -4.35281227612761  1.53262401120112  1.12519954985499
 6 -2.94871995409541  1.19222151025103  3.21200260916092
 6 -1.91906536753675 -0.62651791319132  0.04174813311331
 6 -0.39773719631963 -0.30407475467547  0.44050818011801
 6  0.59312044924492 -0.48698221112111 -0.76412179267927
 8  0.23989522962296 -0.91260666826683 -1.83667999969997
 8  1.82443425392539 -0.24539193559356 -0.23982077097710
 7 -7.19617006490649  2.62080767056706  0.35639433493349
 6 -6.12234151315132  3.33499447524752  0.77854138773877
 6 -6.50653790689069  4.80480476987699  0.88269895709571
 6 -7.79325203220322  4.87096772827283  0.48850724202420
 6 -8.16627089868987  3.41669086438644  0.11945449174917
 6 -5.51516947364737  5.91981444734474  1.31117587808781
 6 -8.59700749834983  5.92336337003700  0.24571155655566
 6 -8.52493638493849  7.09501562016202  0.97473372317232
 7 -9.11206347894790  0.61668452955296 -0.62825685938594
 6 -9.76300255995599  1.83159311241124 -0.88334465856586
 6 -11.18603770037004  1.37163550265027 -1.23328504800480
 6 -11.16281868576858  0.00198556265627 -1.29950866486649
 6 -9.90497617831783 -0.43523549784979 -0.87183219931993
 6 -12.21283010671067  2.44996556755676 -1.51084785958596
 6 -12.23701824812481 -0.84918232833283 -1.71751255975598
 6 -12.17301478987899 -1.26908932013201 -3.23034815341534
 7 -7.19679914821482 -1.42282189578958 -0.09724440144014
 6 -8.27987822762276 -2.28895406750675 -0.40667562276228
 6 -7.81235738133813 -3.62113038053805 -0.47698497579758
 6 -6.45026891099110 -3.60231456845685 -0.11946367826783
 6 -6.14738733513351 -2.19962824412441  0.00796360056006
 6 -8.53439090649065 -4.86913975637564 -0.78050652905291
 6 -5.28159262956296 -4.33706759025903  0.24873774637464
 8 -5.19619845774577 -5.54945942934293  0.27273430413041
 6 -4.10935451485149 -3.36701249104910  0.57123698899890
 6 -3.63145377627763 -3.62050727202720  1.95058543144314
 8 -3.85251685228523 -2.95096183238324  2.97535021612161
 8 -2.74822601630163 -4.64605932833283  1.97971655255526
 6 -2.16492708060806 -5.11193542264226  3.18055299079908
 6  2.79383189488949 -0.55011280588059 -1.29464066446645
 6  4.11214330333033 -0.41138931523152 -0.65829597859786
 6  5.12712619701970  0.40490675607561 -1.12373214591459
 6  5.02463088608861  1.27010966026603 -2.37180134543454
 6  6.34585891869187  0.41071292149215 -0.32009849504950
 6  7.65756329422942 -0.03374372127213 -1.13948089858986
 6  8.94070594319432 -0.16379150955095 -0.18249006180618
 6  10.13947457195720 -0.46247331903190 -0.97548851935194
 6  10.11327802800280 -1.96159709580958 -1.49880334533453
 6  11.34915779267927 -0.14381816261626 -0.12795192659266
 6  12.76187109480948 -0.58598264936494 -0.72383240614061
 6  13.91395086348635 -0.22724392719272  0.23711077857786
 6  15.31385751065107 -0.34106783588359 -0.37416565636564
 6  15.74388605750575 -1.70687832163216 -0.65923554125413
 6  16.35030913681368  0.41584594459446  0.52864737193719
 6  17.71264585398540  0.50566196459646 -0.14988080268027
 6  18.74399476897690  1.20624884188419  0.88199863286329
 6  20.20002867206721  1.24466479998000  0.27714247744774
 6  20.23565491929193  2.17555585278528 -1.08915990869087
 6  21.20033096389639  1.75265820212021  1.29811517491749
 1 -4.14619610411041  3.69322484388439  1.23332791969197
 1 -10.05521591429143  3.98049888488849 -0.47453284478448
 1 -10.25662895229523 -2.46899624042404 -1.13206985918592
 1 -2.73065952285228 -1.17170548444844  2.03226391759176
 1 -2.14656826202620  1.65271885448545  1.37162781318132
 1 -1.83370782828283  0.92332278517852  3.37042075557556
 1 -3.42043710371037  2.22439649714972  3.50277244264426
 1 -3.69366280898090  0.43759844384438  3.45159757255726
 1 -1.94120660556056 -1.70975093549355 -0.25093900310031
 1 -2.22750442294229 -0.08536128572857 -0.69510955055506
 1 -0.26948046544654  0.75456006990699  0.62245264436444
 1 -0.03747154915492 -0.85505002020202  1.26923087828783
 1 -5.71816059145915  6.83967261136114  0.80662637183718
 1 -5.38939592899290  5.94840820392039  2.50396669376938
 1 -4.45459941594159  5.77234840124012  0.88434160976098
 1 -9.45398745124512  5.88231437953795 -0.49297952615261
 1 -9.24758597449745  7.89953069196920  0.93822344414442
 1 -7.87188665446545  7.21119751925193  1.77087547304730
 1 -11.79887399249925  3.27554788078808 -2.23589659435944
 1 -13.09492916211621  2.00544443564356 -1.92035322682268
 1 -12.52258398949895  3.05123377807781 -0.57096834083408
 1 -12.25768054645465 -1.72446189128913 -1.12468742364236
 1 -13.19334805370537 -0.44050078687869 -1.45612113961396
 1 -13.06428278087809 -1.86865155135514 -3.63778366286629
 1 -12.02414597879788 -0.47803234083408 -3.83821731743174
 1 -11.27054333363336 -2.06640150725072 -3.40421904190419
 1 -8.54382398539854 -5.08334907780778 -1.87791105520552
 1 -7.97926729152915 -5.81980198439844 -0.58259787278728
 1 -9.59417930283028 -4.69730475177518 -0.24080590319032
 1 -3.20252094799480 -3.66835008570857  0.09041376987699
 1 -1.53229139563956 -4.26104254395440  3.57884079937994
 1 -2.95299490809081 -5.46747836543654  4.00403324222422
 1 -1.51753986548655 -5.97909718291829  2.82044599749975
 1  2.57578688278828 -1.62399423532353 -1.65553951895189
 1  2.65520299789979  0.11614589418942 -2.14287743994399
 1  4.29841074667467 -1.02953516871687  0.18919213521352
 1  4.04067303080308  1.25707441784178 -2.78891726142614
 1  5.41607701940194  2.21553181208121 -2.00412688088809
 1  5.67502481008101  0.79828093559356 -2.88832756375638
 1  6.56332839573957  1.43155715571557 -0.21399875707571
 1  6.35106922632263 -0.12792082948295  0.70969068576858
 1  7.28783616831683 -1.01272050725073 -1.60470179377938
 1  7.64045648154815  0.64451765986599 -1.95598852245224
 1  9.09999205080508  0.74469235423542  0.27583521572157
 1  8.78626711541154 -0.88456396259626  0.60876874057406
 1  10.28807635903590  0.16251878957896 -1.89347423692369
 1  9.33926891239124 -2.37034501100110 -2.03014893969397
 1  11.12276483218322 -1.97591437533753 -1.96578082198220
 1  10.22149503550355 -2.65208715071507 -0.58948838853885
 1  11.38606628752875  0.88776100630063  0.15645713321332
 1  11.19048210161016 -0.65400136143614  0.69687030863086
 1  12.81723504240424 -1.74133229442944 -0.83953162076208
 1  12.75389914241424  0.12284297529753 -1.70998435973597
 1  13.89398083478348  0.72722527852785  0.48814615761576
 1  13.77279003210321 -0.59511911661166  1.24817133363336
 1  15.25525881438144  0.41887137213721 -1.32586694469447
 1  15.75962340524052 -2.42931322342234  0.18871741784178
 1  14.85500855155516 -2.18662103770377 -1.29363677877788
 1  16.55396502590259 -1.92533805870587 -1.09565103460346
 1  16.07497269796980  1.35121295499550  0.86708325262526
 1  16.31127557475747 -0.15208438353835  1.44789755095510
 1  18.31404234293429 -0.47155370277028 -0.39525286568657
 1  17.56854391889189  0.91346866576658 -1.15663923972397
 1  18.49237002960296  2.32471662936294  1.13153115841584
 1  18.83722088238824  0.51366554755476  1.75371537183718
 1  20.69411432413241  0.36060220842084 -0.17343027902790
 1  19.67175128172817  3.08095165706571 -0.91350494389439
 1  21.33896814891489  2.29226587938794 -1.38250961426143
 1  19.83542744714472  1.44042585338534 -1.81197816681668
 1  21.17187316251625  1.10659876897690  2.22246186338634
 1  22.28294000030003  1.96608783848385  0.76756172247225
 1  20.83076280618062  2.68635871917192  1.69475991649165
=======
12 -7.07305787878788  0.55917466556656  0.00155784318432
 6 -4.82047666566657 -1.95884706310631  0.43281981468147
 6 -4.66847677657766  2.90093854115412  1.03991035593559
 6 -9.32327706320632  3.07251274677468 -0.47536039573957
 6 -9.56255656935694 -1.74663017401740 -0.98123455255526
 7 -5.04620804540454  0.43189300740074  0.75189560786079
 6 -4.27740744684468 -0.72574239623962  0.81751977517752
 6 -2.92948195359536 -0.39273869956996  1.20861121532153
 6 -3.05596903530353  0.97161983028303  1.74625535623562
 6 -4.28170516541654  1.44358510731073  1.10945797569757
 6 -3.08310339243924  1.05737802590259  3.27124853375338
 6 -1.88144160516052 -0.62061732313231  0.10177413571357
 6 -0.45778320092009 -0.47031137833783  0.57053118241824
 6  0.45513665086509 -0.66612012491249 -0.58427380788079
 8  0.15732697279728 -0.94065947354735 -1.70373670537054
 8  1.74189600010001 -0.47399479587959 -0.15851264016402
 7 -6.96174662256226  2.53578916871687  0.32274096959696
 6 -5.88215749474948  3.41578255405541  0.79355288888889
 6 -6.39575682878288  4.79005329472947  0.89053974117412
 6 -7.66107881488149  4.86105673717372  0.39230762206221
 6 -8.04746901850185  3.46729592489249  0.02631517781778
 6 -5.31888984568457  5.89786225212521  1.18967372787279
 6 -8.49106690429043  6.01647268096810  0.25084206960696
 6 -8.53822771407141  7.13111923052305  0.97648389818982
 7 -9.05040731333133  0.65901876297630 -0.70407444114411
 6 -9.68066432613261  1.78775872897290 -0.85823214731473
 6 -11.14942403900390  1.50615895499550 -1.28998071757176
 6 -11.15750815471547  0.13806917101710 -1.38789750375038
 6 -9.88761444214421 -0.43804577887789 -1.07731274737474
 6 -12.19123794749475  2.61917248824882 -1.61445822062206
 6 -12.35915046134613 -0.63730114021402 -1.87106791529153
 6 -12.41573906230623 -1.09379179037904 -3.38696381498150
 7 -7.25171463976398 -1.38564817841784 -0.15344002100210
 6 -8.34732497229723 -2.27782295439544 -0.58089304450445
 6 -7.80685683128313 -3.64628289578958 -0.47193447074707
 6 -6.53429731383138 -3.51995633263326 -0.11681341324132
 6 -6.18465106150615 -2.19522780408041  0.00422322652265
 6 -8.72669013641364 -4.87954079647965 -0.73115159355936
 6 -5.45144961526153 -4.36071995549555  0.18700157275728
 8 -5.28102694059406 -5.57671215461546  0.22719975067507
 6 -4.19817339673967 -3.37443323312331  0.58671853715372
 6 -3.75421605250525 -3.75141036233623  1.90023039593959
 8 -4.03258485908591 -3.17267400360036  3.02124480558056
 8 -3.00498169186919 -4.85968069046905  1.90142872377238
 6 -2.49847043494349 -5.32669689878988  3.23789872537254
 6  2.74862737443744 -0.54465225982598 -1.18463966436644
 6  4.05803789278928 -0.41636981328133 -0.46170631963196
 6  5.11219470387039  0.35709197459746 -0.86600637333733
 6  5.16918534153415  1.23728637793779 -2.01500566586659
 6  6.36552088488849  0.34247609780978  0.01320483528353
 6  7.65236277417742 -0.14799514641464 -0.79792674317432
 6  8.91522339493949 -0.17151228162816  0.05486367356736
 6  10.20828145264526 -0.65454252595260 -0.66768773927393
 6  10.08669536973697 -2.10164110021002 -1.05219868486849
 6  11.43882675957596 -0.32914669546955  0.27284815341534
 6  12.80785569326933 -0.40089414051405 -0.66198622152215
 6  13.95782525092509 -0.12098330113011  0.21724879237924
 6  15.36647277217722 -0.09193292239224 -0.49927816761676
 6  15.68452012091209 -1.46236387018702 -0.94468408610861
 6  16.37014112001200  0.48345270527053  0.39176368356836
 6  17.78991358075807  0.61580297869787 -0.34803061766177
 6  18.86800717021702  1.39041725872587  0.64553498649865
 6  20.25945461466146  1.46624695819582 -0.08892412921292
 6  20.36288764256426  2.18659695689569 -1.38244923762376
 6  21.42640357115712  1.95639857615762  0.95347071047105
 1 -4.00660214471447  3.65726124752475  1.31039562646265
 1 -10.04110450315031  3.76513734873487 -0.71534692619262
 1 -10.34011730113011 -2.46977631843184 -1.12338899109911
 1 -2.76783324022402 -1.14115242914291  1.94557524872487
 1 -2.25705931113111  1.71689527212721  1.42414306470647
 1 -2.02000645814582  0.82139259215922  3.57299101260126
 1 -3.35483054305431  2.17511156865687  3.69943210861086
 1 -3.72148559125913  0.46710139413941  3.76159857265727
 1 -2.22665515041504 -1.47885784618462 -0.25486939613961
 1 -2.13844551705170  0.05083233363336 -0.72528256785679
 1 -0.31716523392339  0.57959257315732  0.90628102720272
 1 -0.23743154515452 -1.00170468566857  1.33723767896790
 1 -5.71469024442444  6.84800344444444  0.72011772097210
 1 -5.11187817721772  6.11490485358536  2.29195549264926
 1 -4.28188214421442  5.73898506490649  0.68934210981098
 1 -9.31506355885589  5.97465361346134 -0.66099632783278
 1 -9.28516973287329  7.97541828072807  0.74721434323432
 1 -7.94563402920292  7.31829822932293  1.76016440194019
 1 -11.87464156925693  3.47435776177618 -2.52596560126013
 1 -13.02156182538254  2.06922081328133 -1.87887907940794
 1 -12.32850458155816  3.22930158485849 -0.72808405240524
 1 -12.22167694609461 -1.46618606370637 -1.20048500340034
 1 -13.29191791069107 -0.28551528832883 -1.56549207670767
 1 -13.19055540814081 -1.89625431163116 -3.65582546704670
 1 -12.07209077327733 -0.21713625122512 -3.89869336503650
 1 -11.54580085938594 -1.72881774887489 -3.47041566156616
 1 -9.36104570757076 -4.89987072997300 -1.60967423152315
 1 -8.00056942174217 -5.78099810401040 -0.65618523152315
 1 -9.49872975787579 -5.07799282058206 -0.10619244184418
 1 -3.38702939883988 -3.33321657235724 -0.11539681118112
 1 -1.64767293379338 -4.75296173587359  3.58453136843684
 1 -3.48169777837784 -5.51049266686669  3.85352819171917
 1 -2.18227633913391 -6.45575484868487  2.98167212011201
 1  2.64175347944795 -1.37324916081608 -1.82596656165617
 1  2.56474395199520  0.33503778337834 -1.92069522172217
 1  4.11366227182718 -1.02591480668067  0.41141435743574
 1  4.41621058455846  1.54458316871687 -2.51364973467347
 1  5.76543195489549  2.12612287118712 -1.83025949414941
 1  5.73264057165717  0.71548265576558 -2.71418014901490
 1  6.80264232713271  1.40201420142014  0.31881452425243
 1  6.15883000240024 -0.23518155555556  1.00634035073507
 1  7.36882426712671 -1.27519675487549 -1.18166949054906
 1  8.04628706460646  0.39175238333833 -1.70571349494950
 1  9.12985503710371  0.87185507050705  0.41310894309431
 1  8.77043553225323 -0.71200670687069  1.13073093679368
 1  10.36989454085408 -0.12443990629063 -1.58677356685669
 1  9.28268325382538 -1.98985696219622 -1.97653357815782
 1  11.14811736743674 -2.52184896879688 -1.52730697459746
 1  9.93818670467047 -2.81911385338534 -0.26942638233823
 1  11.21550923182318  0.75953818401840  0.54050553805381
 1  11.73609666306631 -0.99922588388839  1.02203282488249
 1  12.99571289018902 -1.51459962116212 -1.03703137073707
 1  12.88413216571657  0.24342503350335 -1.54549791109111
 1  13.77673911061106  0.78135069106911  0.72406974997500
 1  13.98980173327333 -0.83349295399540  1.05844236073607
 1  15.08555184368437  0.48981846684669 -1.45850020802080
 1  15.81298874177418 -2.16702699479948 -0.23836529042904
 1  15.01649470017002 -1.90950332593259 -1.52110952605260
 1  16.50784041344135 -1.49545507040704 -1.58494996449645
 1  16.36616181688169  1.63894172787279  0.61564810911091
 1  16.38922336953695 -0.07070624572457  1.16152891409141
 1  18.24169510821082 -0.43301984938494 -0.52650599099910
 1  17.82637970247025  1.00894821372137 -1.34074765056506
 1  18.47915870847085  2.44844900260026  0.89192719801980
 1  18.96608376867687  0.73935811681168  1.65215521582158
 1  20.64741965466547  0.41060720892089 -0.23386632263226
 1  20.21094520112011  3.23446700860086 -1.24655824922492
 1  21.34094834693470  2.40075672847285 -1.70250161346135
 1  19.60477438183819  1.85408721952195 -2.17727469646965
 1  21.26879285448545  1.50467857695770  1.97781739893989
 1  22.38706041234123  1.89367059675968  0.42030699699970
 1  21.26216594649465  3.16598668196820  1.07275771627163
>>>>>>> 8e03b5b5abfc0030b3aa597dc0de36371bfbd096

