%nproc=4
%Mem=2GB
# td=(NStates=1) CAM-B3LYP/6-31G(d,p) 

TD

0 1
<<<<<<< HEAD
12 -7.19305987898790  0.65474422252225  0.11669935733573
 6 -4.83587820582058 -1.91996317471747  0.55358189088909
 6 -4.89642957185719  2.84711315861586  1.27420378527853
 6 -9.51914665016502  3.09082457795780 -0.34850771047105
 6 -9.46213652735274 -1.72286779777978 -0.84070049914991
 7 -5.09299272387239  0.46152597069707  0.73490390869087
 6 -4.27897760386039 -0.56873669566957  0.83885190839084
 6 -2.85242424782478 -0.34378380408041  1.25825617981798
 6 -3.02156559495950  1.22544521282128  1.58619935063506
 6 -4.44325132003200  1.52249299809981  1.19703673357336
 6 -2.95989107120712  1.23499578767877  3.15667707660766
 6 -1.96000946194619 -0.48120338173817  0.10728468676868
 6 -0.46149357195720 -0.27403175037504  0.44684881418142
 6  0.54177531473147 -0.62231574447445 -0.58368374887489
 8  0.23468470857086 -0.92759816741674 -1.78015434713471
 8  1.79411122162216 -0.38020541694169 -0.19188597749775
 7 -7.20416086398640  2.56234182398240  0.47868656415642
 6 -6.11089036803680  3.38907988378838  0.84888842244224
 6 -6.54989224232423  4.84506879627963  0.83172385958596
 6 -7.83132583958396  4.83944457595760  0.37799619091909
 6 -8.20479475107511  3.42858205350535  0.03252579887989
 6 -5.70956891359136  5.92132459835984  1.28994375487549
 6 -8.58658645624562  6.03757479117912  0.16712369776978
 6 -8.56536042734274  7.28116423502350  0.66105235503550
 7 -9.10219249184918  0.57238009910991 -0.59583361706171
 6 -9.94024028372837  1.76013596669667 -0.65800212431243
 6 -11.18710780738074  1.47433577267727 -1.25302702220222
 6 -11.22774517841784  0.08523388748875 -1.38176689068907
 6 -10.05270095079508 -0.44387636193619 -0.88507352345235
 6 -12.35781460516051  2.44363493449345 -1.48877565236524
 6 -12.30214476077608 -0.84782219231923 -1.81571237973797
 6 -12.19481697009701 -1.15486789798980 -3.34963008160816
 7 -7.29344881318132 -1.38237785138514 -0.13389806680668
 6 -8.26214645444544 -2.25184035613561 -0.58334328952895
 6 -7.76381252685268 -3.63355162266227 -0.51860913821382
 6 -6.48109199329933 -3.58048238523852 -0.11145287718772
 6 -6.23061565796580 -2.13162144344434  0.18907171137114
 6 -8.54997246464646 -4.79171201360136 -0.85643412181218
 6 -5.30179464976498 -4.35800968446845  0.21907478007801
 8 -5.15226406430643 -5.56526100950095  0.26173320402040
 6 -4.15982956235624 -3.27989377917792  0.54526439173917
 6 -3.41573220412041 -3.57528274957496  1.83727410031003
 8 -3.77008860946095 -3.20264700090009  2.92926560766077
 8 -2.60591178487849 -4.68128285068507  1.70380896179618
 6 -1.97334792269227 -5.23892812191219  2.84638957445745
 6  2.84471698339834 -0.72948074267427 -1.14188538893889
 6  4.18520060906091 -0.46353452975298 -0.50582073107311
 6  5.17963144754475  0.32564883028303 -0.94035380808081
 6  5.20089851285128  1.10850349964997 -2.18269243454345
 6  6.49297363016302  0.49942179237924 -0.14536102130213
 6  7.60027756565657 -0.11504185108511 -0.84083103360336
 6  8.98748062066207 -0.24237936833683  0.00196838403840
 6  10.22741336583658 -0.56316338803880 -0.71410238073807
 6  10.17850455065506 -1.96093702980298 -1.37991145614561
 6  11.44293717061706 -0.40331411221122  0.22967383598360
 6  12.70900580828083 -0.64570862196220 -0.45987601050105
 6  13.99230869926993 -0.20771197399740  0.35941300880088
 6  15.28108423332333 -0.31329505860586 -0.48289652945295
 6  15.72866453535353 -1.76794442824282 -0.89497911561156
 6  16.43191729762976  0.34797915791579  0.42565707290729
 6  17.85720030943094  0.54673607200720 -0.28822463706371
 6  18.82257262676267  1.27479569656966  0.64882531553155
 6  20.21704037323732  1.39442977647765  0.01597636083608
 6  20.22944429822982  2.18028632583258 -1.26298729142914
 6  21.11126205700570  1.98340127642764  1.06770213361336
 1 -4.25127661216122  3.59610513191319  1.87563215011501
 1 -10.10849124182418  3.97337817281728 -1.01798719021902
 1 -10.12875616501650 -2.55681502230223 -1.15306195839584
 1 -2.47980443734373 -0.74526284018402  2.17357804900490
 1 -2.22405601080108  1.80685426802680  1.17733838423842
 1 -1.77989244674467  1.02047250015002  3.39652336583658
 1 -3.26996205620562  2.20745480298030  3.64745691109111
 1 -3.45459890259026  0.56002068606861  3.63670608340834
 1 -2.18261074597460 -1.40786074647465 -0.43060696989699
 1 -2.06403807630763  0.26870412081208 -0.82700273987399
 1 -0.18614213161316  0.68605321922192  0.98448884798480
 1 -0.26410421242124 -1.22581709690969  1.11247520272027
 1 -5.92625140054005  6.88149679377938  0.73578928812881
 1 -5.88085507490749  5.94771813491349  2.27327362446245
 1 -4.65345930193019  5.85512667906791  1.07597077267727
 1 -9.40390244274428  5.79483563166317 -0.44246447464747
 1 -9.29724093999400  7.97579831873187  0.25695531733173
 1 -8.01566103190319  7.72306870637064  1.51662004750475
 1 -12.12044614971497  3.25482580858086 -2.21129413411341
 1 -13.09962963216322  1.86010990219022 -1.84866605810581
 1 -12.49910164126413  2.90909956465647 -0.76890813481348
 1 -12.25434021242124 -1.77472691779178 -1.20469542444244
 1 -13.42504122302230 -0.46859359615962 -1.69297482498250
 1 -12.87705405800580 -1.97123180938094 -3.68198808330833
 1 -12.36227979217922 -0.31657619521952 -3.97330082578258
 1 -11.11853813311331 -1.57956282338234 -3.98696731673167
 1 -8.99130873387339 -4.81914265716572 -1.87416068016802
 1 -7.88276764156416 -5.66767677187719 -0.75772538553855
 1 -9.53002288718872 -5.09832485378538 -0.29067088968897
 1 -3.51479217511751 -3.45139839053905 -0.32946821832183
 1 -1.15676384288429 -4.59432587228723  3.30496341164116
 1 -2.75742535113511 -5.51250286788679  3.72359519841984
 1 -1.44715282678268 -6.10153942714271  2.58929288218822
 1  2.71277058115812 -1.85292712861286 -1.44409837483748
 1  2.45743322092209 -0.04940066046605 -2.01189434163416
 1  4.45787669326933 -0.90798301350135  0.53743695969597
 1  4.08068703220322  1.34291300170017 -2.44175254495450
 1  5.63886929862986  2.12592285118512 -2.20478694689469
 1  5.71509881748175  0.54126523402340 -2.93025175617562
 1  6.79558162106211  1.45237923792379  0.15007765056506
 1  6.40503462286229  0.00907286988699  0.86855657235724
 1  7.46797418211821 -1.21054028922892 -0.80552187578758
 1  7.91977441334133  0.42915612371237 -1.94038696229623
 1  9.06577862946295  0.75404328932893  0.53656128832883
 1  8.76960544924493 -1.21203670987099  0.81291915561556
 1  10.30962851425142  0.22356489418942 -1.67262215171517
 1  9.05921090659066 -2.18076605310531 -1.80414633943394
 1  10.99700225592559 -2.30633741764176 -2.05719996389639
 1  10.46109899589959 -2.80635257725773 -0.58372781248125
 1  11.51864954585459  0.57334956515652  0.74615610311031
 1  11.29284233763376 -1.18900486178618  1.08540916251625
 1  12.79806312521252 -1.69508766996700 -0.72100976857686
 1  12.70866461896190 -0.07789709870987 -1.47424078537854
 1  13.96361779847985  0.98266082208221  0.71551889488949
 1  13.91341409450945 -0.60579018371837  1.46545306180618
 1  15.13087637613761  0.23555304030403 -1.39085344334433
 1  15.62677011991199 -2.40916120822082  0.08306685278528
 1  15.02095514621462 -2.19977235283528 -1.70729814491449
 1  16.72259188858886 -1.91069659455946 -1.13818528802880
 1  16.06098129882988  1.25508334203420  0.78903544784478
 1  16.72435688288829 -0.08628780388039  1.32569533073307
 1  18.24891583028303 -0.52747929532953 -0.68941228162816
 1  17.56112317681768  1.12355967486749 -1.23425700150015
 1  18.54841563416342  2.27269142684268  0.90230823612361
 1  18.72698985928593  0.65879006000600  1.49492949324933
 1  20.66557146984698  0.38357450565057 -0.22083501950195
 1  19.66565067166717  3.15026858875888 -1.13000659405941
 1  21.28863311541154  2.16317297009701 -1.67692905620562
 1  19.67284118851885  1.40618242904291 -1.91085805480548
 1  21.01406738193819  1.54301241034103  2.03469308650865
 1  22.15997770407041  1.86014724442444  0.68283324962496
 1  20.86016574647465  3.02510259355936  1.08749919041904
=======
12 -7.21877245024502  0.53050179827983  0.02983067046705
 6 -4.89030364836484 -1.89542072047205  0.43907043974397
 6 -4.84759468836884  2.87572601990199  1.14982134703470
 6 -9.38989372487249  3.06538203370337 -0.37074993469347
 6 -9.55518583228323 -1.76492200320032 -0.81887831693169
 7 -5.19365278987899  0.49321914001400  0.83043346164616
 6 -4.35072477857786 -0.63781360336034  0.77297532073207
 6 -2.93224222962296 -0.34036346204620  1.22764311851185
 6 -2.98239167756776  1.18757142544254  1.80468119881988
 6 -4.47324431933193  1.54142489128913  1.17796482638264
 6 -2.90562564466447  1.28044033213321  3.30802221112111
 6 -1.91602506350635 -0.40699596099610  0.08957291559156
 6 -0.50571799439944 -0.34587893509351  0.49913404270427
 6  0.55133627082708 -0.64873838673867 -0.68404378487849
 8  0.24416565666567 -0.99502491009101 -1.73892022372237
 8  1.83448525902590 -0.27384478087809 -0.24005079397940
 7 -7.09249969786979  2.55766135593559  0.18588728422842
 6 -6.07257653665367  3.35506648244824  0.72649618321832
 6 -6.53169042214221  4.80859514891489  0.70045073227323
 6 -7.81193390039004  4.81993262476248  0.30052844414441
 6 -8.18653292489249  3.36813600890089 -0.01260871457146
 6 -5.48091604830483  5.90851331723172  1.17420218071807
 6 -8.69679747734773  5.93385441914192  0.17606459185919
 6 -8.46930082138214  7.16854297289729  0.78076432623262
 7 -9.10667293989399  0.61688454955496 -0.53954798849885
 6 -9.86349260896089  1.77632758585859 -0.65999232333233
 6 -11.19358845544554  1.42465080418042 -1.10326204570457
 6 -11.23417582148215  0.03842920702070 -1.21388010201020
 6 -10.01358703940394 -0.38175014931493 -0.89994501060106
 6 -12.33418224192419  2.50286085708571 -1.23888066286629
 6 -12.29363390969097 -0.74638204830483 -1.75122593109311
 6 -12.20908839723973 -1.17836024722472 -3.14557967656766
 7 -7.20932040034003 -1.41183079667967 -0.09730440744074
 6 -8.32890313011301 -2.14230940304030 -0.41999695489549
 6 -7.83504965056506 -3.56475474297430 -0.43389066636664
 6 -6.59046293039304 -3.47891222822282 -0.02936466836684
 6 -6.16614921132113 -2.15949423072307  0.16912971717172
 6 -8.73671113851385 -4.75403824622462 -0.77648612701270
 6 -5.45294976527653 -4.33445732923292  0.16473934653465
 8 -5.25706454435444 -5.50410489388939  0.09054608530853
 6 -4.26833041244124 -3.30397618741874  0.52894275957596
 6 -3.49571020192019 -3.62503772507251  1.81657203010301
 8 -3.75628722932293 -3.10887762396240  2.94230691179118
 8 -2.68793998769877 -4.69667438983898  1.61709028992899
 6 -2.20270085798580 -5.35986021512151  2.89253418891889
 6  2.80087259895990 -0.56551434603460 -1.27699890029003
 6  4.18517060606061 -0.53186136243624 -0.74358450745075
 6  5.27339082348235  0.22088835423542 -1.05943571627163
 6  5.27811623462346  1.07134978427843 -2.30849501480148
 6  6.43821815461546  0.14028587878788 -0.17849433463346
 6  7.72745028292829 -0.27014736163616 -0.99100605110511
 6  8.94388626122612 -0.25185031543154 -0.10893270607061
 6  10.22719334383438 -0.69227629932993 -0.80326129662966
 6  10.15670237043704 -2.15260619671967 -1.25552901790179
 6  11.36269914681468 -0.35928970977098  0.17536840544054
 6  12.75026993469347 -0.52815686678668 -0.57926794969497
 6  14.01429089748975 -0.11238244104410  0.31025809330933
 6  15.32201832673267 -0.23757748684868 -0.35409364916492
 6  15.74972664156416 -1.64921255505551 -0.74562418011801
 6  16.51022512841284  0.36411077107711  0.44520902810281
 6  17.85603019241924  0.69099049744975 -0.30666648124812
 6  18.87661803130313  1.48552676967697  0.63885431843184
 6  20.32730139933993  1.38548888238824  0.21892665586559
 6  20.45603695749575  2.23412170937094 -1.06726771947195
 6  21.20586151695170  2.03225616191619  1.17566292969297
 1 -4.15922740724073  3.69850537193719  1.40717530443044
 1 -10.04708510121012  3.90636147114711 -0.57851324282428
 1 -10.37129041844184 -2.43762310311031 -0.84222087428743
 1 -2.62502895979598 -0.97441575547555  2.04884557575758
 1 -2.22800640584058  1.66841042364236  1.35044569496950
 1 -1.94654911241124  0.86140659355936  3.68556226972697
 1 -3.11951701170117  2.32881693919392  3.68372053745375
 1 -3.57688113081308  0.70642532653265  3.85992840564056
 1 -2.10910339523952 -1.42262222262226 -0.35184909410941
 1 -2.15588726122612  0.14084133453345 -0.78094813441344
 1 -0.31187470487049  0.68781339523952  0.79603000210021
 1 -0.21109891189119 -1.03417793299330  1.37138109330933
 1 -5.74581335673567  6.77468611271127  0.54190990019002
 1 -5.53067005640564  6.39558292139214  2.21748804590459
 1 -4.38829278527853  5.66904807120712  1.09378255385539
 1 -9.75473752625263  5.61923807190719 -0.19869009720972
 1 -9.20932214811481  8.02036277517752  0.55498512031203
 1 -7.52542200800080  7.25679207870787  1.53251163666367
 1 -12.31604570967097  3.07620794679468 -2.12465547024703
 1 -13.34098376757676  1.89917380858086 -1.18742993449345
 1 -12.57540927202720  3.15888454315432 -0.35154639863986
 1 -12.33585836423642 -1.72724216931693 -1.39459441434143
 1 -13.27585630453045 -0.24900163696370 -1.57378290579058
 1 -12.97429378197820 -1.72255694189419 -3.43835371987199
 1 -12.39152271647165 -0.38734327192719 -3.92600609630963
 1 -11.21243752305231 -1.61901676877688 -3.48104672467247
 1 -9.24815441844185 -4.68572931583158 -1.66331959605961
 1 -8.27340670547055 -5.69413941814181 -0.59699931293129
 1 -9.49287917281728 -4.86418143944395 -0.07359918251825
 1 -3.57646834273427 -3.39261251195120 -0.24677994949495
 1 -1.57453562006201 -4.50892733243324  3.50411332663266
 1 -3.16556616521652 -5.79995161276128  3.31169400830083
 1 -1.45782389388939 -6.00694996819682  2.52216616951695
 1  2.62991229532953 -1.57352918881888 -1.69076304130413
 1  2.42664014161416  0.28684296389639 -2.00848400060006
 1  4.31902280788079 -1.21920413561356  0.07316053205320
 1  4.39621858535854  1.02925163556356 -2.75017338703870
 1  5.66235164686469  2.10071032993299 -1.96386285448545
 1  6.16220352795279  0.71833294079408 -2.99652838383838
 1  6.80770283318332  1.24928892889289  0.36662930573057
 1  6.35064918431843 -0.66690472787279  0.62118183488349
 1  7.54888227292729 -1.41998123332333 -1.24207553115312
 1  7.86439887578758  0.47071027912791 -1.97151007460746
 1  9.09965201680168  0.80972885788579 -0.08181054885489
 1  8.66156464516452 -0.87043254945495  0.73925178887889
 1  10.31245879727973 -0.12275973827383 -1.67135202470247
 1  9.33286827232723 -2.20732870937094 -2.05571149594959
 1  11.07824037973797 -2.17877466136614 -1.70465470937094
 1  10.32464535053505 -2.95114705670567 -0.59831927162716
 1  11.22560024092409  0.56526875707571  0.58625011251125
 1  11.35446850025003 -0.98957491879188  1.04565518711871
 1  12.77504082298230 -1.49567772897290 -1.01377904550455
 1  12.90040379287929  0.09018970997100 -1.45755911721172
 1  13.94092552925293  0.90360291629163  1.00160750375038
 1  13.89432218531853 -0.77929753445344  1.23487000350035
 1  15.18154144264426  0.21591107610761 -1.38123248124812
 1  15.76129357225723 -2.18060835293529  0.16606515261526
 1  15.01058410911091 -2.16169854545455 -1.40470788588859
 1  16.51312094149415 -1.84350987588759 -1.24677614711471
 1  15.78691389208921  1.34598243194319  0.66641318561856
 1  16.79814426162616 -0.21159033413341  1.22910567176718
 1  18.42021295999600 -0.29549609700970 -0.51331467186719
 1  17.83585064956496  1.26041336023602 -1.10316389218922
 1  18.61598239083908  2.52979713741374  0.81115912121212
 1  18.79969713001300  0.95219940094009  1.53015301560156
 1  20.61390630333033  0.41516766496650 -0.10722365836584
 1  19.81034514111411  3.18225178707871 -1.01722531593159
 1  21.56494074617462  2.54498115091509 -1.43233459675968
 1  20.16685058945895  1.60954276507651 -1.74454142314231
 1  20.93671964716472  1.83602171127113  2.41028064526453
 1  22.26967867416742  1.89503073277328  0.90074504080408
 1  20.98133786368637  3.15871595489549  1.08321876237624
>>>>>>> 8e03b5b5abfc0030b3aa597dc0de36371bfbd096

