%nproc=4
%Mem=2GB
# td=(NStates=1) CAM-B3LYP/6-31G(d,p) 

TD

0 1
12 -7.26000657365737  0.60193894199420  0.12409009640964
 6 -4.86678129612961 -1.91761293969397  0.48166469916992
 6 -4.87058698759876  2.83774222152215  1.07245361026103
 6 -9.42844758025802  3.08976447194719 -0.40284314401440
 6 -9.50338065176518 -1.74942045304530 -1.01860828992899
 7 -5.15088851345135  0.53525334343434  0.75505592389239
 6 -4.38421812791279 -0.67008683068307  0.74360238343834
 6 -2.96219522492249 -0.35273469916992  1.23687404160416
 6 -3.05732917131713  1.05338800710071  1.67925865656566
 6 -4.43239023392339  1.58498924772477  1.09832686258626
 6 -2.85618070017002  1.22211449954996  3.21403281218122
 6 -1.85451891289129 -0.56557181858186  0.01785574387439
 6 -0.52104952755276 -0.65800014721472  0.58231236053605
 6  0.48164930213021 -0.79362287518752 -0.53668904940494
 8  0.12187342744274 -1.04335974357436 -1.73736006770677
 8  1.69670148064806 -0.58678607500750 -0.09152594149415
 7 -7.11798224612461  2.62739832963296  0.36986568206821
 6 -6.10993027202720  3.49203017881788  0.79803333693369
 6 -6.47344459755976  4.78383267266727  0.81461214841484
 6 -7.83772647964796  4.84896552805280  0.30735912721272
 6 -8.14481875347535  3.48350754605461  0.00051259755976
 6 -5.56036399309931  5.88449091499150  1.19194395489549
 6 -8.61379917751775  6.01427246094609  0.08116510191019
 6 -8.53529742104210  7.10951707030703  0.88165441524152
 7 -9.18628090069007  0.61306416751675 -0.53543757745775
 6 -9.92135839553955  1.75943589668967 -0.69449577367737
 6 -11.31724082068207  1.49745808490849 -1.05979769926993
 6 -11.26031843574357  0.06252161626163 -1.27045575957596
 6 -10.00464614531453 -0.42400437473747 -0.80464548064806
 6 -12.36440526422642  2.47032760376038 -1.42882965776578
 6 -12.34976952325233 -0.73153056315632 -1.71450225872587
 6 -12.12389987838784 -1.02766517771777 -3.19015413401340
 7 -7.17198666696670 -1.33843345694569 -0.23527820482048
 6 -8.25199543934393 -2.21051622372237 -0.60081503670367
 6 -7.82225837143714 -3.57067533503350 -0.58147542484248
 6 -6.43481736583658 -3.58356269326933 -0.23028476037604
 6 -6.09865246164616 -2.15837411871187 -0.08555575137514
 6 -8.63425089248925 -4.85573841624162 -0.74850332873287
 6 -5.32174664496450 -4.31636552005201  0.21167404000400
 8 -5.15227406530653 -5.53106759015902  0.38111514221422
 6 -4.10877445684568 -3.35202099189919  0.52364222952295
 6 -3.58410904180418 -3.65332055335534  1.89899027192719
 8 -3.79737133773377 -2.98296503270327  2.92289497059706
 8 -2.76022721642164 -4.71916663906391  1.83577215811581
 6 -2.21941252915292 -5.21074530363036  3.05670060556056
 6  2.77244975667567 -0.77964575917592 -1.13582478287829
 6  4.06165825482548 -0.59426760306031 -0.62194234323432
 6  5.09504298869887  0.16667293269327 -1.06158593129313
 6  5.01502992599260  1.10718336763676 -2.23650781608161
 6  6.40157449024902  0.22023387358736 -0.25436192139214
 6  7.67694523242324  0.03356300940094 -1.12481943244324
 6  9.00928280088009 -0.02431756215622 -0.11997381018102
 6  10.22185280978098 -0.51279835153515 -0.95393636413641
 6  10.17919461966197 -2.05385632173217 -1.19932339733973
 6  11.43502637953795 -0.17677145794579 -0.13626275767577
 6  12.85744065176518 -0.46453050415042 -0.69104912781278
 6  14.03865333373337  0.00667946514651  0.14558162566257
 6  15.41600772567257 -0.02904663376338 -0.48317655745575
 6  15.70653232213221 -1.48275590939094 -1.04443406110611
 6  16.49242334823482  0.37178153815382  0.63143765096510
 6  17.95013960336033  0.60517191559156 -0.06379219381938
 6  18.95798616811681  1.19823804080408  0.86805723872387
 6  20.34726339553955  1.28798913241324  0.26189095229523
 6  20.38883023682368  1.91809010621062 -1.12061305400540
 6  21.29425035583558  1.97607054335434  1.20396575997600
 1 -4.36916840134013  3.63246876827683  1.70716530343034
 1 -10.13012340504050  3.81653248824882 -0.34791018251825
 1 -10.15574886428643 -2.48408774957496 -1.42293894609461
 1 -2.52660911781178 -1.00268858275828  2.16810750195020
 1 -2.15404901010101  1.67144072667267  1.22928357875788
 1 -1.94275873337334  0.89892034493449  3.50492420592059
 1 -2.94991005100510  2.51445550305030  3.31945411081108
 1 -3.84088753145314  0.68266295029503  3.78635104790479
 1 -2.00046253115311 -1.43888384878488 -0.36646055525552
 1 -1.95893756625663  0.33289053945395 -0.62586262586259
 1 -0.43632715011501  0.39932454635464  1.15926632573257
 1 -0.31497929992999 -1.48636315151515  1.15680963616362
 1 -5.76890566596660  6.76242488658866  0.68787449664967
 1 -5.37078406780678  6.07740110321032  2.24894119121912
 1 -4.55716967296730  5.61805297169717  0.88677185278528
 1 -9.49189124162416  5.97063321142114 -0.63561378957896
 1 -9.26514773067307  7.98647938683868  0.93500312211221
 1 -7.70981044684468  7.11396779627963  1.86996538203820
 1 -11.90623472857286  3.17627795379538 -2.15759876457646
 1 -12.97539720892089  1.92202609380938 -2.05108630013001
 1 -12.65174690579058  3.05349400410041 -0.49970121412141
 1 -12.44575935433543 -1.67425687078708 -1.14465942084208
 1 -13.14936365526553  0.05477874107411 -1.33052858035804
 1 -13.00294664726473 -1.48488317451745 -3.54906479097910
 1 -11.86451001520152 -0.23917845544554 -3.92952644834483
 1 -11.22889916921692 -1.77732259935994 -3.28302692269227
 1 -9.05109471247125 -4.84678542144214 -1.84960822492249
 1 -8.12519188398840 -5.90839084328433 -0.56358597159716
 1 -9.62822270717072 -4.73606862816282 -0.11004282688269
 1 -3.37710840674067 -3.57691094179418 -0.35348061956196
 1 -1.62437060356036 -4.62559899959996  3.61417433273327
 1 -3.10250985958596 -5.68066968456846  3.74433727262726
 1 -1.54686279777978 -5.98759803300330  2.88651260416042
 1  2.76111541564156 -1.91502333823382 -1.47093105810581
 1  2.41520899849985 -0.05333105350535 -1.95593874607461
 1  4.35304621022102 -1.33746596179618  0.17193040904090
 1  4.05448441194119  1.31593030343034 -2.61369973967397
 1  5.37631304300430  2.28110836973697 -2.08007447564756
 1  5.79406671427143  0.67150825832583 -2.93015174617462
 1  6.52416447934793  1.31313531353135  0.15618826162616
 1  6.34374849424943 -0.40211824922492  0.69008872557256
 1  7.50227761246125 -1.08738797399740 -1.58804012761276
 1  7.76497893379338  0.80795400350035 -1.94133705730573
 1  9.00516256785679  0.89204708970897  0.56508414061406
 1  8.84402289098910 -0.84219972617262  0.62735059875988
 1  10.44411196259626  0.07705024272427 -1.98756364586459
 1  9.33032801830183 -2.36000397689769 -1.81954787958796
 1  11.02445500120012 -2.36182296619662 -1.78449269316932
 1  10.21494438043804 -2.65291723372337 -0.24164360406041
 1  11.42303998489849  0.86466869706971  0.09497098459846
 1  11.48964201760176 -0.73338930023002  0.93586420802080
 1  13.04595791469147 -1.53776193739374 -0.74355202280228
 1  13.03853760626063 -0.25000430943094 -1.82591595289529
 1  13.77303874057406  1.09388194419442  0.52551989498950
 1  13.92713546664666 -0.45732533723372  1.04411092759276
 1  15.58409169766977  0.69284876987699 -1.34528888688869
 1  15.72875031793179 -2.32078237033703 -0.34128558245825
 1  14.79162221292129 -1.89642201780178 -1.64699211431143
 1  16.73453308270827 -1.58032355725573 -1.73847531703170
 1  16.27783298399840  1.28995682938294  1.10627717201720
 1  16.32566701390139 -0.49305848094810  1.53810657185719
 1  18.32410334903490 -0.42247879527953 -0.19833317371737
 1  17.55932299679968  1.09731705060506 -1.00975455125513
 1  18.74795558815882  2.34333849154915  1.06942494779478
 1  19.08957611791179  0.72962714371437  1.77094709500950
 1  20.68082299499950  0.21006715491549  0.07606467046705
 1  20.17606171277128  3.01982554445445 -0.99524311771177
 1  21.39586383848385  1.98853550635064 -1.42944430773077
 1  19.89051295569557  1.34312612341234 -1.69318628762876
 1  21.40303627882788  1.55256336543654  2.18333795099510
 1  22.50631233753375  2.31985321502150  0.81765673197320
 1  20.74945467536754  3.02043212651265  1.31953239373937

