%nproc=4
%Mem=3GB
# td=(NStates=1) iop(3/107=0140000000,3/108=0140000000) CAM-B3LYP/6-31G(d,p) 

TD

0 1
12 -7.12767745944594  0.66961534503450  0.04717108710871
 6 -4.89053787028703 -1.97163439403940  0.56770217261726
 6 -4.78236426702670  2.79142786068607  1.18624873007301
 6 -9.28605537003700  3.17278483148315 -0.50597307260726
 6 -9.55850194819482 -1.66182794849485 -0.95444224912491
 7 -5.16180321152115  0.35020111071107  0.81585940994099
 6 -4.41618386568657 -0.74064520772077  0.89753764846485
 6 -2.94029024962496 -0.49373777177718  1.27255292439244
 6 -2.95226845374537  0.99369807140714  1.75031131043104
 6 -4.41975220992099  1.44314896599660  1.22113650755075
 6 -2.97967414821482  1.12103492279228  3.30322563716372
 6 -1.95112084178418 -0.68481447064706  0.13715752605261
 6 -0.57141285048505 -0.52787603560356  0.63207658995900
 6  0.56134805800580 -0.70663728562856 -0.50683047314731
 8  0.19801001780178 -1.03072685038504 -1.59685707880788
 8  1.80307890629063 -0.55894583298330 -0.11408679627963
 7 -7.10932857625763  2.62255546544655  0.30154107820782
 6 -6.04252439623962  3.40461422882288  0.73315919201920
 6 -6.30990589898990  4.84998186178618  0.79977823652365
 6 -7.62947773307331  4.94044584978498  0.38022414881488
 6 -8.06393592109211  3.60683762256226  0.01204920352035
 6 -5.31244327822782  5.91631110481048  1.11363151835184
 6 -8.46962697069707  6.03086335593559  0.12685329782978
 6 -8.28065647564756  7.31965111481148  0.59485354465447
 7 -9.00626966806681  0.73946094049405 -0.59284585848585
 6 -9.81812929922992  1.85365869016902 -0.75191800530053
 6 -11.10020397309731  1.54844428892889 -1.15115997569757
 6 -11.19950943814381  0.15855340114011 -1.34336436473647
 6 -9.83253085668567 -0.30347054045405 -0.88524072537254
 6 -12.25341627932793  2.57155239663966 -1.44824427712771
 6 -12.28594238713871 -0.65282140594059 -1.87276660726073
 6 -12.19681159005901 -1.07945813811381 -3.22060271147115
 7 -7.27994095649565 -1.36435127082708 -0.17674034913491
 6 -8.34384871117112 -2.17867641314131 -0.56509808970897
 6 -7.88229026882688 -3.57769832123212 -0.57105740554055
 6 -6.59786757725773 -3.59584256635664 -0.15033711541154
 6 -6.25970970267027 -2.19115707150715  0.09571140654065
 6 -8.69471181068107 -4.88058415681568 -0.83544692779278
 6 -5.36999246214621 -4.39389295269527  0.23626860096010
 8 -5.17769876217622 -5.60259711671167  0.16779272787279
 6 -4.26265076767677 -3.31412886028603  0.62290061166117
 6 -3.61956613341334 -3.79921786448645  1.92705867436744
 8 -3.92529531293129 -3.35229258715872  3.10253361156116
 8 -2.81393674647465 -4.81217983648365  1.73434247174717
 6 -2.18949790679068 -5.47914312021202  2.90630803120312
 6  2.83741006140614 -0.69460774967497 -1.17558107530753
 6  4.15724660986099 -0.52356762466247 -0.49928249104910
 6  5.05892138343834  0.35371189918992 -0.94246712371237
 6  4.90659438503850  1.18879655495550 -2.20778491349135
 6  6.34745102380238  0.46816743274327 -0.14482500690069
 6  7.55256670927093 -0.09482803080308 -0.89164949364937
 6  8.85935364696470 -0.20569238533853 -0.13514961736174
 6  10.17281274187419 -0.54493615681568 -0.86874259425943
 6  10.16821009760976 -2.02492037193719 -1.22800976697670
 6  11.41884654845484 -0.15214010511051  0.03414545204520
 6  12.76164389988999 -0.58511854535454 -0.60404790989099
 6  13.95571684348435  0.05726001170117  0.11799821142114
 6  15.31108709970997 -0.12898198179818 -0.59837549004900
 6  15.62630890189019 -1.58708709700970 -1.03190501680168
 6  16.49874686738674  0.37988450575058  0.35102983768377
 6  17.87546513421342  0.44162789238924 -0.26822334933493
 6  18.83818423702370  1.23660173867387  0.66241949864986
 6  20.29516232063206  1.37746717921792  0.18516522252225
 6  20.30703354915492  2.42623992909291 -1.00479517541754
 6  21.16869193619362  1.87994969486949  1.18400234023402
 1 -4.18291865536554  3.54405765716572  1.64385048084808
 1 -10.10564268756876  4.03374564906491 -0.76112063826383
 1 -10.21647607170717 -2.37367290239024 -1.26809462886289
 1 -2.66368365556556 -1.05676587928793  2.10340683138314
 1 -2.22040550685069  1.54072613371337  1.24005765476548
 1 -2.08630171657166  0.59050815721572  3.82386272367237
 1 -3.21389849894989  2.13452267506751  3.67134515671567
 1 -3.87729052955296  0.51239639393939  3.80946263146315
 1 -2.07880299929993 -1.73353402420242 -0.19834784188419
 1 -2.12089845884588 -0.05196757695770 -0.62917965256526
 1 -0.28190361906191  0.48606819411941  1.20805466846685
 1 -0.37099551985199 -1.21431219781978  1.38801225952595
 1 -5.48656283398340  6.74835234723472  0.48477830913091
 1 -5.46799827112711  6.13117599899990  2.19165117761776
 1 -4.41736658125813  5.47148141614161  1.25437617021702
 1 -9.26783704350435  5.61922530453045 -0.51859321202120
 1 -9.09698876257626  8.08297801880188  0.23553332903290
 1 -7.71549948204820  7.67361419781978  1.43101206150615
 1 -11.99833030603060  3.28043719081908 -2.02136796829683
 1 -13.22578987668767  1.89788853125313 -1.93647937613761
 1 -12.47820885358536  3.14589192329233 -0.64016445594560
 1 -12.49805177007701 -1.55484640744074 -1.04656815771577
 1 -13.19270156925693  0.01051834133413 -1.52012776717672
 1 -12.98039323852385 -1.68225188728873 -3.47852881098110
 1 -11.87497790349035 -0.28608708000800 -3.90863984238424
 1 -11.48597343674367 -1.90344137133713 -3.51831010921092
 1 -8.73834845344534 -4.63788028882888 -2.03719978297830
 1 -8.10966535173517 -5.78374432773277 -0.36230618571857
 1 -9.72859703870387 -4.68226667506751 -0.35248751745175
 1 -3.40326784528453 -3.39775638123812 -0.08922666076608
 1 -1.53632702030203 -4.72949516291629  3.54896661426143
 1 -2.86565300260026 -6.00453997889789  3.63136417411741
 1 -1.37312783328333 -6.34368515331533  2.38636199729973
 1  2.82426048084808 -1.60996761956196 -1.39978142684268
 1  2.60392683398340  0.00446853165317 -1.95947700520052
 1  4.26933742044204 -1.11617003080308  0.37801920212021
 1  4.06510182168217  1.08346388908891 -2.51005149084908
 1  4.98984591679168  2.32297272117212 -2.20260769916992
 1  5.75925549404941  0.97891908280828 -2.95518177507751
 1  6.79732791669167  1.60573055365537  0.10906051995200
 1  6.38265613771377  0.06526919021902  1.02688888438844
 1  7.28635075787579 -1.08199887288729 -1.20808556575658
 1  7.55426798529853  0.60879998299830 -1.74929575247525
 1  9.15202124642464  0.67936743424342  0.44432686078608
 1  8.84745786658666 -0.96478483118312  0.65450157355736
 1  10.52120675247525 -0.04553840604060 -1.77663282128213
 1  9.16672628172817 -2.06670495399540 -1.78722710461046
 1  11.06331547214721 -2.28002140144014 -1.65446080418042
 1  9.91078327542754 -2.54548866356636 -0.15551294499450
 1  11.28446008760876  0.95834226762676  0.41678944974497
 1  11.15877347284728 -0.79963126072607  0.99496581668167
 1  12.83407135963597 -1.66741416071607 -0.84018629012901
 1  12.75277110701070 -0.05832089608961 -1.74829916361636
 1  13.82592401270127  1.00823618691869  0.24723955265527
 1  14.07537584818482 -0.18639501840184  1.33688606260626
 1  15.55611601300130  0.33836723372337 -1.75746701550155
 1  15.55214901170117 -2.15694503570357 -0.12843097859786
 1  14.78295994039404 -1.77410193019302 -1.61032240574057
 1  16.45848412801280 -1.54805570257026 -1.31279779307931
 1  16.27084035753575  1.34340267396740  0.66155207150715
 1  16.35900997879788 -0.28505479027903  1.20521901660166
 1  18.38495523322332 -0.51006752075207 -0.47688788438844
 1  17.70870818041804  0.79557845194519 -1.30575631923192
 1  18.40744980188019  2.21069233723372  0.96414836163616
 1  18.89054501700170  0.78787362686269  1.76873011851185
 1  20.71393122542254  0.40138113571357 -0.13370747854785
 1  20.12962978147815  3.36477725422542 -0.74499668436844
 1  21.27270107090709  2.53252439453945 -1.54745272647265
 1  19.44445284288429  2.23279356955695 -1.89516790119012
 1  21.47624147764776  0.82998863976398  1.74165783458346
 1  22.22367025982598  2.37615808650865  0.60341699529953
 1  20.70484056255626  2.87640375757576  1.79897703440344

