%nproc=4
%Mem=2GB
# td=(NStates=1) CAM-B3LYP/6-31G(d,p) 

TD

0 1
12 -7.11702227522752  0.64681342944294  0.10085777317732
 6 -4.95692031003100 -1.88341952035204  0.51969850255026
 6 -4.75110503940394  2.88866731403140  1.10296666156616
 6 -9.42438717421742  3.10949644514451 -0.38323118281828
 6 -9.59150946464647 -1.73455896689669 -0.80593702280228
 7 -5.17842126672667  0.49457927602760  0.72571298959896
 6 -4.39126883298330 -0.68606842884288  0.81956998019802
 6 -2.88479748514851 -0.34759418511851  1.18080843504350
 6 -2.97947138553855  1.13587625592559  1.51743247394739
 6 -4.35779277417742  1.55934668346835  1.07478450835084
 6 -2.91476655875588  1.38403069116912  2.99533094199420
 6 -1.90274373537354 -0.64020928232823  0.05732969126913
 6 -0.43794121672167 -0.58590293749375  0.50945507480748
 6  0.50214135133513 -0.66639015191519 -0.61236661716172
 8  0.11283252335234 -1.02965837343734 -1.69873620532053
 8  1.77573938443844 -0.37658505490549 -0.27160394929493
 7 -7.06401684958496  2.61297688748875  0.30587928342834
 6 -6.08643792279228  3.34472544834483  0.75904943854385
 6 -6.44100135323532  4.76087037643764  0.73447413461346
 6 -7.73589629662966  4.75625625712571  0.27157554885489
 6 -8.16307057865787  3.41830102540254  0.03679622592259
 6 -5.42632058875888  5.95573803970397  1.05574033453345
 6 -8.68947674527453  5.96516755045505  0.21784877027703
 6 -8.37919181048105  7.09931605020502  0.78793504330433
 7 -9.11209348194819  0.62373523462346 -0.55689972367237
 6 -9.90975723542354  1.76971692479248 -0.60838716281628
 6 -11.26239533613361  1.43030136923692 -1.01513323282328
 6 -11.26833923782378  0.02351771587159 -1.12348106210621
 6 -9.92406808750875 -0.42773474777478 -0.83686870297030
 6 -12.39097792149215  2.35195576657666 -1.33978075287529
 6 -12.41836638293829 -0.79839724982498 -1.56118692719272
 6 -12.47334482288229 -1.07482989418942 -3.10707582618262
 7 -7.29208867716772 -1.47856747034703 -0.07569224622462
 6 -8.36417665746575 -2.21345651775178 -0.44201915711571
 6 -7.86134227982798 -3.62288055555556 -0.41756903420342
 6 -6.47301118521852 -3.57606194319432 -0.04316604850485
 6 -6.28586118251825 -2.20894917621762  0.13352615681568
 6 -8.51141860926093 -4.94546738913891 -0.71549002740274
 6 -5.37831230153015 -4.35591947544754  0.23084595719572
 8 -5.11215005290529 -5.61740622402240  0.18636566726673
 6 -4.22289586898690 -3.27109289908991  0.57644751005101
 6 -3.53877450835084 -3.63847906920692  1.90930130303030
 8 -3.66573817441744 -3.06209294549455  2.92617529862986
 8 -2.69804099779978 -4.67894261666167  1.67818639953995
 6 -1.97933852175218 -5.03135736483648  2.78726366186619
 6  2.80863337503750 -0.62031982658266 -1.32816401680168
 6  4.07009909890989 -0.45034321062106 -0.61607175617562
 6  5.10960444484448  0.36569283468347 -1.11829160186019
 6  5.05406382938294  1.19578222752275 -2.44271843714371
 6  6.41021535433543  0.50997284748475 -0.31724821002100
 6  7.56671420932093  0.00060971407141 -1.19580653115312
 6  8.94980685328533 -0.07123225362536 -0.33634544734473
 6  10.32138276277628 -0.63508057975798 -0.98757972847285
 6  10.15708240844084 -2.09573050915091 -1.38198166316632
 6  11.45525840274027 -0.20832461326133 -0.08059719111911
 6  12.77865277297730 -0.44841889298930 -0.79770979387939
 6  13.99338880728073 -0.11357256005601  0.20569763726373
 6  15.44778090299030 -0.06172990209021 -0.39064730453045
 6  15.69704137303730 -1.56088372217222 -0.89500911861186
 6  16.44495860176018  0.47820218021802  0.54320882808281
 6  17.83138772817282  0.47132853125313  0.05614980038004
 6  18.87969833933393  1.20583880088009  0.90252068506851
 6  20.26511518071807  1.18342867636764  0.36908167136714
 6  20.43892524632463  2.05953425062506 -0.77648864156416
 6  21.22922385318532  1.78063099939994  1.43234859825983
 1 -3.95471695619562  3.58154367576758  1.36025061196120
 1 -10.11624201690169  4.08889972497250 -0.50320571207121
 1 -10.29005229462946 -2.36501584238424 -1.16344299649965
 1 -2.56233269016902 -0.91937025092509  2.11791248244824
 1 -2.35301890709071  1.88546212881288  1.21354200460046
 1 -2.02759721722172  0.95531598449845  3.51316503000300
 1 -3.06525158515852  2.51211526902690  3.31060322572257
 1 -3.78475191789179  0.88675335933593  3.63470588338834
 1 -2.14742722762276 -1.53708366876688 -0.32665657485749
 1 -1.91274294679468  0.07937518791879 -1.00914095369537
 1 -0.27037055445545  0.14152876677668  1.27671807090709
 1 -0.39761756375638 -1.28405292049205  1.31089504470447
 1 -5.73937271267127  6.72860150425042  0.59545525472547
 1 -5.42780977037704  6.08931229432943  2.30497679477948
 1 -4.45191914791479  5.63780494689469  0.80682385798580
 1 -9.50261231373137  5.72721886998700 -0.39025925412541
 1 -9.05656687258726  8.00953169206921  1.08584820662066
 1 -7.36754622042204  7.25675207470747  1.36998538403840
 1 -12.58396250135014  2.82675300130013 -2.57205020972097
 1 -13.32116178537854  1.95448934013401 -0.97345853735374
 1 -12.19882161326133  3.23439209390939 -0.58014925892589
 1 -12.44994977337734 -1.82668211331133 -0.93627858275828
 1 -13.27906662556256 -0.29887662446245 -1.44209973747375
 1 -13.42606895949595 -1.61838652485249 -3.30535041954195
 1 -12.53652721692169 -0.10326486408641 -3.72921641734173
 1 -11.47354363366337 -1.91331619871987 -3.32662128212821
 1 -8.59179878287829 -5.06463720662066 -1.92319558365837
 1 -7.89708907370737 -5.74349435363536 -0.31438105110511
 1 -9.55953583848385 -5.00940596189619 -0.43403522612261
 1 -3.63082377827783 -3.36266951765177 -0.25309058055806
 1 -1.40074824132413 -4.19436587628763  3.14620753605361
 1 -2.71975158375838 -5.15526714431443  3.65765860476048
 1 -1.43659177067707 -5.90145941914191  2.48654260716072
 1  2.72168147224723 -1.63909574547455 -1.66301026602660
 1  2.68847632523252  0.15992027162716 -2.18381153335334
 1  4.24627553315332 -0.93691590679068  0.40996421242124
 1  3.98215717921792  1.14680339073907 -2.59340771047105
 1  5.50603601530153  2.04115437433743 -2.45450191839184
 1  5.54301160876088  0.85224633213321 -3.25844457545755
 1  6.56821888478848  1.61669566956696 -0.09522687988799
 1  6.37913203260326 -0.20730876827683  0.58049776647665
 1  7.22772015671567 -1.00453968916892 -1.46781810541054
 1  7.78757119301930  0.63979718781878 -2.02949587318732
 1  9.18616066766677  0.85040292529253 -0.00311267906791
 1  8.78763725242524 -0.58124363056306  0.49134699839984
 1  10.31650920232023 -0.12808027032703 -1.84307919741974
 1  9.22072705820582 -2.34497247374738 -1.97164308910891
 1  10.85880843654365 -2.60849763366337 -2.17375161906191
 1  10.06361924792479 -2.57521946394639 -0.40324976467647
 1  11.18299598049805  0.91828405860586  0.12408389588959
 1  11.54338739213921 -0.72869883118312  0.99007962956296
 1  12.94916823572357 -1.75368352955296 -1.04675234283428
 1  12.73107686018602  0.05790648164816 -1.78263162446245
 1  13.69238067476748  0.86087864386439  0.57481482448245
 1  14.00931368446845 -0.71148075277528  0.93582009850985
 1  15.39312260076008  0.65586507150715 -1.31205556355636
 1  15.88435587848785 -2.02641293339334 -0.07000845474547
 1  14.72064511521152 -2.00991336693669 -1.51934935003500
 1  16.71548117751775 -1.67178270317032 -1.65294676417642
 1  16.16710191089109  1.34780261396140  0.94425096939694
 1  16.35614006120612  0.16194701960196  1.63560632183218
 1  18.26829776847685 -0.52117866526653 -0.18667200760076
 1  17.74532159665967  0.77435475437544 -0.99061263706371
 1  18.61760255285528  2.27836199389939  0.98430643594359
 1  18.89412657295730  0.68807298829883  2.01715171547155
 1  20.38539345204521  0.00779692789279 -0.04710764676468
 1  20.10520462706270  3.11236479837984 -0.39946353975398
 1  21.45691994409441  1.74517116991699 -1.34690605390539
 1  19.64567847224723  1.72920473127313 -1.57557452645265
 1  21.16071204640464  1.33293140224022  2.41791140834083
 1  22.15325703200320  1.63751498119812  0.84989995629563
 1  20.81939166906691  2.81627171047105  1.98027846834684

