%nproc=4
%Mem=2GB
# td(NStates=1) B3LYP/6-31G(d,p) nosymm

b-caroten-emi Single Point

0 1
C  12.24820900   0.60137000  -0.52085100
C -12.20358100  -0.06089000   0.78394900
C  13.51158900  -0.28244000  -0.39297100
C -13.09181100   1.11046000   1.26298900
C  13.20897900  -1.77102000  -0.53273100
C -13.38028100   2.12875000   0.16529900
C  11.04936900  -0.00551000   0.25552900
C -10.99104100   0.45732000  -0.03478100
C  12.27339900  -2.19363000   0.59670900
C -12.06733100   2.72742000  -0.33836100
C  11.10975900  -1.25183000   0.81372900
C -10.96702100   1.71272000  -0.57509100
C  11.86482900   0.75660000  -2.01185100
C  12.61830900   1.99730000   0.03658900
C -13.03919100  -1.03096000  -0.08645100
C -11.72692100  -0.81499000   2.04680900
C   9.87175900   0.85360000   0.33704900
C  -9.92778100  -0.52648000  -0.21874100
C  10.06914900  -1.82121000   1.74690900
C  -9.86580100   2.22823000  -1.47017100
C   8.55985900   0.46182000   0.28591900
C  -8.57579100  -0.31099000  -0.22519100
C   7.41511900   1.32353000   0.34793900
C  -7.55964100  -1.31163000  -0.38552100
C   7.62194900   2.80557000   0.53684900
C  -7.96865100  -2.74268000  -0.62840100
C   6.15455900   0.75123000   0.22785900
C  -6.23116100  -0.91478000  -0.30504100
C   4.89347900   1.38558000   0.25828900
C  -5.06628100  -1.70499000  -0.42200100
C   3.69660900   0.69376000   0.12575900
C  -3.78734100  -1.17519000  -0.32068100
C   2.39886900   1.25746000   0.14962900
C  -2.56315100  -1.88060000  -0.41961100
C   2.24960900   2.75041000   0.34139900
C  -2.58830100  -3.37079000  -0.66275100
C   1.22636900   0.49376000   0.00392900
C  -1.37000100  -1.15770000  -0.28247100
C   1.12208900  -0.89177000  -0.19643100
C  -0.05453100  -1.64339000  -0.33307100
H  13.96979900  -0.11130000   0.59112900
H  14.24690900   0.04395000  -1.13875100
H -12.58447100   1.62173000   2.09273900
H -14.02383100   0.70230000   1.67393900
H  14.13268900  -2.36035000  -0.50463100
H  12.73774900  -1.97322000  -1.50237100
H -14.03999100   2.92128000   0.53705900
H -13.90966100   1.64919000  -0.66681100
H  12.84015900  -2.28075000   1.53892900
H  11.87634900  -3.20303000   0.41341900
H -11.70020100   3.47312000   0.38721900
H -12.23775100   3.29311000  -1.26375100
H  11.66865900  -0.21240000  -2.48109100
H  12.67172900   1.24737000  -2.56885100
H  10.95914900   1.36076000  -2.12163100
H  12.77162900   1.96413000   1.12035900
H  11.86008900   2.75517000  -0.17896100
H  13.55162900   2.33955000  -0.42466100
H -13.44936100  -0.53186000  -0.96895100
H -13.87434100  -1.44046000   0.49390900
H -12.44009100  -1.87669000  -0.43835100
H -11.07269100  -0.18423000   2.65731900
H -11.17675100  -1.72834000   1.80521900
H -12.59007100  -1.10025000   2.65948900
H  10.06408900   1.92241000   0.36545900
H -10.26034100  -1.56071000  -0.27963100
H   9.42570900  -1.05628000   2.18343900
H  10.56599900  -2.36383000   2.56212900
H   9.42438900  -2.55598000   1.24400900
H  -9.27760100   1.42776000  -1.92060100
H  -9.17131100   2.88364000  -0.92481100
H -10.29136100   2.83966000  -2.27507100
H   8.34228900  -0.59524000   0.15222900
H  -8.21323100   0.70003000  -0.05602100
H   8.18779900   3.00961000   1.45372900
H   6.68298900   3.35648000   0.59742900
H   8.20101900   3.23040000  -0.29306100
H  -8.61199100  -2.82276000  -1.51272100
H  -8.54423100  -3.13716000   0.21884900
H  -7.11421100  -3.40269000  -0.78021100
H   6.13269900  -0.33095000   0.09304900
H  -6.06057100   0.14777000  -0.12681100
H   4.85563900   2.46273000   0.39121900
H  -5.17218100  -2.77169000  -0.59591100
H   3.77510900  -0.38319000  -0.00692100
H  -3.71178100  -0.10187000  -0.14381100
H   2.69477900   3.08190000   1.28771900
H   1.19786900   3.04681000   0.34649900
H   2.75005900   3.31119000  -0.45787100
H  -3.13828100  -3.60886000  -1.58095100
H  -3.09384100  -3.89506000   0.15738900
H  -1.58975100  -3.79730000  -0.75964100
H   0.29594900   1.05527000   0.05119900
H  -1.49506100  -0.08954000  -0.11333100
H   2.04514900  -1.46283000  -0.25807100
H   0.08726900  -2.70899000  -0.49071100




