%nproc=4
%Mem=2GB
# td(NStates=1) B3LYP/6-31G(d,p) nosymm

b-caroten-emi Single Point

0 1
C  12.32079204   0.62644030  -0.44782589
C -12.30642647  -0.12106517   0.69340719
C  13.59289717  -0.30092242  -0.31700211
C -13.23739010   1.05736895   1.05761034
C  13.37308140  -1.79189315  -0.53252185
C -13.38228342   2.14215034   0.04274983
C  11.06385144   0.00771479   0.13662826
C -11.06347340   0.46150549  -0.05926072
C  12.29818633  -2.17538567   0.52676775
C -11.97298471   2.69508982  -0.32408800
C  11.11385435  -1.30166620   0.65762482
C -10.80643456   1.75440607  -0.54683975
C  12.00642226   0.83013531  -1.92079982
C  12.74206160   1.93737028   0.21639850
C -13.24241300  -0.89772999  -0.27529847
C -11.94320833  -1.00306612   1.83607637
C   9.86765393   0.87943257   0.28647110
C -10.01379632  -0.52135195  -0.13924497
C  10.06657947  -1.88771439   1.56405488
C  -9.71369114   2.30812284  -1.29779211
C   8.55734263   0.48879432   0.20110131
C  -8.60505373  -0.34053322  -0.18356461
C   7.46993861   1.33707590   0.22105178
C  -7.60093293  -1.30681649  -0.28200603
C   7.64058487   2.81650427   0.47078473
C  -7.96326867  -2.73867782  -0.47354714
C   6.16412146   0.78896966   0.13592174
C  -6.30679329  -0.92820066  -0.13554437
C   4.86279256   1.49550110   0.09739573
C  -5.15860349  -1.70804383  -0.32705735
C   3.70288905   0.70198992  -0.00537593
C  -3.86331000  -1.21667645  -0.12308716
C   2.46254503   1.26262950   0.21239228
C  -2.61832832  -1.97771402  -0.33279969
C   2.27198566   2.73601521   0.38966065
C  -2.50045302  -3.44281320  -0.58436387
C   1.22556782   0.53389809  -0.04542331
C  -1.50082422  -1.23934290  -0.16581596
C   1.17979864  -0.82097650  -0.14990598
C   0.02745689  -1.65840927  -0.24008124
H  13.90713223  -0.23066932   0.66133367
H  14.46692620   0.02175369  -0.94943352
H -12.88890124   1.56558820   1.96170801
H -14.20597325   0.41919426   1.58630250
H  14.35569632  -2.32826959  -0.52775911
H  12.69673498  -1.87308561  -1.54935285
H -13.87174927   3.09967851   0.44693394
H -13.96508369   1.80638599  -0.84928938
H  12.73130655  -2.08491547   1.65593511
H  11.99266804  -3.17647054   0.30801817
H -11.75985854   3.51625591   0.43985139
H -12.20538532   3.22799175  -1.25264440
H  11.74094733  -0.10551519  -2.48425437
H  12.81469710   1.43005082  -2.59820536
H  11.03904144   1.47393121  -2.07282660
H  12.86728536   1.87137976   1.43107563
H  11.88210377   2.69195454   0.05438091
H  13.71399773   2.34026340  -0.19603419
H -13.83322919  -0.22681450  -1.18227081
H -14.09204002  -1.28390236   0.38638695
H -12.65153415  -1.67966328  -0.92779415
H -11.39819973  -0.32971430   2.44908271
H -11.39044681  -1.77614530   1.55180482
H -12.80849927  -1.14684738   2.57108909
H  10.17757836   1.85396305   0.63339303
H -10.29175581  -1.51973681  -0.12756590
H   9.45432996  -1.10939106   2.05317513
H  10.55700085  -2.27528604   2.48671957
H   9.28586439  -2.57385829   1.09574308
H  -9.20011784   1.46753855  -1.72161255
H  -8.94160736   2.94400105  -0.58867388
H -10.06422628   3.09262708  -2.00402634
H   8.35458764  -0.75535235  -0.12435675
H  -8.17742927   0.48754380   0.09653898
H   8.25987445   3.13903207   1.24888614
H   6.78521569   3.61490016   0.53384348
H   8.16911638   3.39468284  -0.24844100
H  -8.47892227  -2.83156463  -1.53182179
H  -8.76252586  -3.04420969   0.30768211
H  -7.28295892  -3.47251615  -0.38781332
H   5.87254259  -0.31139772   0.55084231
H  -6.08044452   0.17108379   0.12665289
H   4.75885962   2.76588472  -0.29003711
H  -5.24293243  -2.68972821  -0.45186188
H   3.91612471  -0.39880474  -0.16260875
H  -3.81732378  -0.29687586   0.28378475
H   2.83268897   3.10274692   1.21479289
H   1.16831848   3.16721967   0.44749555
H   2.59544672   3.36958845  -0.59829616
H  -2.62564106  -3.63054007  -1.70388623
H  -3.46776147  -3.71687108   0.04380477
H  -1.32902046  -3.90392326  -0.39982297
H   0.18765454   1.08166929   0.17160125
H  -1.51078992  -0.04657210  -0.06217272
H   2.06367518  -1.41208345  -0.19322715
H   0.16863022  -2.62995290  -0.28934845




