%nproc=3
%Mem=2GB
# td=(NStates=1) B3LYP/SVP 

TD

0 1
 6 -5.22023972207221 -1.99660590269027  0.48211308720872
 6 -4.76690700970097  2.68236468816882  1.29861624752475
 6 -9.31302121182118  3.37577837703770 -0.17513598149815
 6 -9.79796785128513 -1.28962976637664 -0.91632418581858
 7 -5.21114027632763  0.40645226812681  0.76286472347235
 6 -4.47832644874487 -0.72818953995400  0.71307475087509
 6 -3.03769345584558 -0.61781821652165  1.21709670547055
 6 -3.00472543794379  0.87209610191019  1.75266437223722
 6 -4.41549074217422  1.35037485538554  1.33152674967497
 6 -2.98622719121912  0.83711122342234  3.29777764036404
 6 -2.08350042074207 -0.78371833353335 -0.00235228962896
 6 -0.63112632483248 -0.89814803140314  0.48306075877588
 6  0.44914857625763 -1.23954082698270 -0.49967152475248
 8  0.18299006660666 -1.83968633523352 -1.55343895539554
 8  1.73062325942594 -0.88463523662366 -0.22327477017702
 7 -7.04507910251025  2.77144441624162  0.46736624582458
 6 -5.97924950035003  3.39658407670767  0.96687754465447
 6 -6.18840202590259  4.83218965846585  0.97834432723272
 6 -7.47100619741974  4.97191602710271  0.44725125252525
 6 -8.08241918781878  3.76526502020202  0.15321547694769
 6 -5.20801131763176  5.76315183028303  1.50849211521152
 6 -8.07619490219022  6.33006701830183  0.46243474477448
 6 -9.06274417261726  6.66642636453645 -0.31212369116912
 7 -9.20916911751175  1.03804103710371 -0.41896436483648
 6 -9.92397626052605  2.11454395309531 -0.46415568476848
 6 -11.31262512901290  1.91530509150915 -0.94241807570757
 6 -11.44532848334833  0.64113145324532 -1.08082303700370
 6 -10.07893011871187  0.00878092639264 -0.79930317281728
 6 -12.29833833473347  2.98346684828483 -0.99870296059606
 6 -12.64092183168317 -0.21434391389139 -1.50993195289529
 6 -12.67206733743374 -0.34098736313631 -3.06199437073707
 7 -7.48050700830083 -1.17854954015402 -0.30404893339334
 6 -8.60473206070607 -1.93667239403940 -0.58442180458046
 6 -8.24479691869187 -3.36472335453545 -0.72454502180218
 6 -6.88513342244224 -3.43485031333133 -0.29163678757876
 6 -6.50228133153315 -2.05945876447645  0.02360743694369
 6 -9.15729848744874 -4.56033678317832 -1.04482347674767
 6 -5.76845379057906 -4.27080211531153  0.01065201080108
 8 -5.64636412661266 -5.52379190929093 -0.19423668956896
 6 -4.55664329292929 -3.32380314191419  0.37133619571957
 6 -4.00774457235724 -3.81718581208121  1.72818934463446
 8 -4.27086215971597 -3.28024595849585  2.82481054915492
 8 -3.20242893049305 -4.90406537943794  1.60595102300230
 6 -2.67435213901390 -5.50143959005901  2.77451959155916
 6  2.72224439303930 -1.27822171977198 -1.10209423522352
 6  4.07206045284528 -0.70228073047305 -0.55109720982098
 6  4.97850010661066  0.01734278917892 -1.32036599319932
 6  4.84630382608261  0.40405113681368 -2.64896201300130
 6  6.25905765096510  0.17449518871887 -0.56840575477548
 6  7.60660190059006 -0.69946612951295 -1.03769063596360
 6  8.79664126522652 -0.19219320442044 -0.18067641514151
 6  10.12026295199520 -0.85251957855786 -0.80701805660566
 6  10.06061209980998 -2.42295609850985 -0.86797608250825
 6  11.35462931313131 -0.30454476917692  0.07478692299230
 6  12.63059473367337 -0.61259657685769 -0.61535605870587
 6  13.86905549494950  0.05048782258226  0.23714577007701
 6  15.17258617041704 -0.11423230473047 -0.40745430333033
 6  15.58523809560956 -1.60814968036804 -0.15760452875288
 6  16.25753649794980  0.79297381468147  0.47079610191019
 6  17.81584647344734  0.83751666936694 -0.04465836723672
 6  18.65143606790679  1.84762909180918  0.59675049124912
 6  20.10717261886188  1.83598140274027  0.14361608910891
 6  20.28296899579958  2.29237581368137 -1.31151922972297
 6  20.96717923922392  2.72552389118912  1.11787357555756
 1 -3.93877153745375  3.32486371837184  1.57122200310031
 1 -10.18513636673667  4.16811405350535 -0.33863518621862
 1 -10.61322557895789 -1.95961311681168 -1.41907138023802
 1 -2.88556088308831 -1.35150438563856  1.89621049674967
 1 -2.20678199269927  1.51130135333533  1.40667357955796
 1 -2.08673893189319  0.21570793919392  3.59225832983298
 1 -2.83928942084208  1.88067311701170  3.56515671087109
 1 -3.85432502940294  0.27117230173017  3.69152432863286
 1 -2.25153066146615 -1.67306203930393 -0.83429787698770
 1 -2.19390272967297  0.12057824882488 -0.77018371257126
 1 -0.20208602840284  0.16797065066507  0.94197455875588
 1 -0.60908124742474 -1.64144610321032  1.26900440884088
 1 -4.42368718521852  5.95345971407141  0.84995779557956
 1 -5.59122432883288  6.92553746844684  1.37441673627363
 1 -4.89596768356836  5.44421246524652  2.55658979297930
 1 -7.85763077247725  7.01079095359536  1.25985753965397
 1 -9.39265461736174  5.90989114961496 -1.14909649574958
 1 -9.61930667726773  7.75598432593259 -0.34814503740374
 1 -12.16867122912291  3.67806699389939 -0.19957777087709
 1 -12.27129097739774  3.43819777717772 -2.10635995279528
 1 -13.50860188298830  2.67271510721072 -0.69127348274828
 1 -12.54017639083908 -1.40721964866487 -0.96710146124612
 1 -13.60051707620762  0.23229738443844 -0.90207256605661
 1 -12.79400503040304  0.77359417251725 -3.67022436673667
 1 -11.41746671467147 -0.66318389198920 -3.37955690779078
 1 -13.57612436593659 -1.11577067186719 -3.31568911121112
 1 -9.78652520132013 -4.92638195799580 -0.18118042004200
 1 -9.69530350925092 -4.30593853985398 -1.87192409060906
 1 -8.37177235193519 -5.23018128512851 -1.30808876437644
 1 -3.93570542194219 -3.57785407560756 -0.46338768736874
 1 -2.01598199119912 -6.40729582528253  2.50304363846385
 1 -1.99837828422842 -4.93774725862586  3.63902834543454
 1 -3.52731574797480 -6.02881797339734  3.26136301190119
 1  2.58023193069307 -2.42781042454245 -1.19793096009601
 1  2.58881377587759 -0.94099167996800 -2.13266103330333
 1  4.45035780748075 -0.95253756805681  0.50911881488149
 1  5.40384221342134  1.50212272127213 -2.63738845864586
 1  5.22110872807281 -0.12099613711371 -3.77128853045305
 1  3.80330044824482  0.61290247704770 -2.75084590969097
 1  6.64174219041904  1.24799092409241 -0.48933912501250
 1  6.02373041774177 -0.09164905450545  0.44272197959796
 1  7.12391917681768 -1.84510123472347 -0.69255001460146
 1  7.62826236873687 -0.49055703510351 -2.29512434143414
 1  8.89939542694269  1.05081392269227 -0.54477432913291
 1  8.92379544234423 -0.36084023552355  0.96895970837084
 1  10.50278294689469 -0.32448989228923 -1.82587716271627
 1  9.15137545374537 -2.93965265846585 -1.46181472927293
 1  10.80050508160816 -2.82123372317232 -1.55264586948695
 1  9.87744276437644 -2.83276496209621  0.20067179787979
 1  11.01588688608861  0.83787256735674  0.44298288348835
 1  11.29373533703370 -0.77932316881688  1.03785371557156
 1  12.64649936053605 -1.73094466566657 -0.86617983098310
 1  12.88920707290729 -0.22157223622362 -1.57747928162816
 1  13.53273442834283  1.11682139293929  0.35622853375338
 1  13.88651287828783 -0.22357878567857  1.20814766066607
 1  15.33794613881388  0.15573677977798 -1.44848686198620
 1  15.09621517441744 -2.54794737653765 -0.77358669186919
 1  16.61844571807181 -1.77802183878388 -0.50358614251425
 1  15.53408868766877 -2.09955508810881  1.07860713211321
 1  15.90573084628463  1.73773034333433  0.49018947794779
 1  16.44815947274727  0.53633425672567  1.61479490209021
 1  18.33361458315832 -0.05611982248225  0.05257538973897
 1  17.95350993659366  0.89128101640164 -1.16439487198720
 1  18.28190287978798  3.01263765966597  0.51768715841584
 1  18.47638989318932  1.87233304280428  1.72182933293329
 1  20.24872120452045  0.64264222522252  0.22617377357736
 1  19.76464382098210  3.24438270837084 -1.43817571997200
 1  21.10637788148815  2.31479954965497 -1.88110121672167
 1  19.62035700870087  1.86104172587259 -2.02142432393239
 1  20.87192242874287  2.28453992199220  2.05875691229123
 1  22.16869972717272  2.94506453385339  0.77068122522252
 1  20.76274590399040  3.96152935253525  1.16154489238924
 1 -7.03411524462446  1.69526840004000  0.18841068716872
 1 -7.36551810021002 -0.20270044604460 -0.46490661826183

