%nproc=3
%Mem=2GB
# td=(NStates=1) B3LYP/SVP 

TD

0 1
 6 -5.20359805790579 -2.01589783188319  0.50122499839984
 6 -4.68489880888089  2.71910836253625  1.37871425732573
 6 -9.15433534323432  3.46657745694569 -0.31379984788479
 6 -9.92302035653565 -1.38218902230223 -0.85327788118812
 7 -5.17438660096010  0.46060768366837  0.74801323832383
 6 -4.58216683278328 -0.74483120412041  0.85615905930593
 6 -3.10478016451645 -0.64488092279228  1.25484047984798
 6 -3.05934089948995  0.77849674197420  1.80224933073307
 6 -4.32797199029903  1.39669948784879  1.25595919291929
 6 -2.99789835833583  0.82273978627863  3.21123898649865
 6 -2.09953202390239 -1.08572853455346  0.17916586218622
 6 -0.59993320552055 -1.06126434303430  0.68602105480548
 6  0.32963662506251 -1.39510638353835 -0.50836239383938
 8  0.03871563916392 -1.83253562016202 -1.57386099759976
 8  1.68429862696270 -1.13854062716272 -0.16453889658966
 7 -6.95569016361636  2.74769204100410  0.47685719491949
 6 -5.82243381878188  3.41631604990499  1.07108796569657
 6 -6.09902308800880  4.80578701820182  1.02765925872587
 6 -7.40033913071307  4.98764760026003  0.44573110051005
 6 -7.86925787168717  3.68817731143114  0.10537069246925
 6 -5.10189070557056  5.79316483158316  1.53794506050605
 6 -8.02549983268327  6.30646465806581  0.29228773007301
 6 -8.93524142234223  6.73316303820382 -0.70372285108511
 7 -9.17746594719472  0.93467070007001 -0.46354882328233
 6 -9.74103796669667  2.16684918361836 -0.55537480668067
 6 -11.22428629512951  2.12605616661666 -0.95082891679168
 6 -11.43265721622162  0.78904624472447 -1.08213316801680
 6 -10.12521474717472  0.04777482578258 -0.83289653215322
 6 -12.11075957685769  3.23771227282728 -1.10003309360936
 6 -12.65648338783878  0.07584510501050 -1.62207316701670
 6 -12.74704483518352 -0.17685094949495 -3.16623479477948
 7 -7.64973393099310 -1.22122380758076 -0.23159168766877
 6 -8.66087767526753 -1.94927365416542 -0.57435079747975
 6 -8.25870830983098 -3.36742362456246 -0.67364993229323
 6 -6.98920382948295 -3.42242907120712 -0.25000262416242
 6 -6.52930403380338 -2.01221404000400 -0.03154807860786
 6 -9.16171892949295 -4.51530227972797 -0.95495448984898
 6 -5.86824376957696 -4.34591962706271 -0.09685874027403
 8 -5.86950644084408 -5.55465499559956 -0.15516278217822
 6 -4.66974460306031 -3.41052181378138  0.46240530263026
 6 -4.05677947584759 -3.97571166466647  1.75283180888089
 8 -4.35626069956996 -3.62851078497850  2.94133220132013
 8 -3.21628031563156 -4.93345831873187  1.57699812771277
 6 -2.88500320412041 -5.77458690479048  2.61991413101310
 6  2.74494666326633 -1.36309020662066 -1.11460548634864
 6  3.98371161796180 -0.86867737013701 -0.46830893099310
 6  5.01939419601960 -0.09755870097010 -1.18169212581258
 6  4.84262345804580  0.51621235293529 -2.56608372517252
 6  6.27362910811081  0.09785752495250 -0.42602151635164
 6  7.53467470787079 -0.53547973087309 -0.92992985988599
 6  8.75664726582658 -0.16714069916992 -0.03689203670367
 6  10.10869179487949 -0.69218354495450 -0.68017537233723
 6  10.15536157475748 -2.24876867976798 -0.76256554145415
 6  11.35029888008801 -0.23310762546255  0.10716016031603
 6  12.69480115431543 -0.53789910711071 -0.46818134123412
 6  13.92004059345935  0.06466924072407  0.35630768626863
 6  15.39331824362436 -0.12331321282128 -0.34977853575358
 6  15.72293186498650 -1.60836970237024 -0.59527829612961
 6  16.37149789408941  0.79484400170017  0.44345336763676
 6  17.69546443524353  0.85710862856286 -0.29995389678968
 6  18.61800272457246  1.97278160706071  0.53342415861586
 6  20.03726562816281  1.91430923552355  0.02239396689669
 6  20.27116781568157  2.69018559465947 -1.37124520232023
 6  20.88197071837184  2.75040637943794  1.00828261646165
 1 -4.12354001430143  3.28558979097910  2.03562844374437
 1 -9.84831268436844  4.36042328442844 -0.53200452315231
 1 -10.66187044344434 -2.11371852735273 -0.82173164626463
 1 -3.00106243324332 -1.34182341754175  2.18554943064306
 1 -1.93379469396940  1.24680490369037  1.52481539373937
 1 -1.92468272627263  0.84976134453445  3.74100320432043
 1 -3.58361385328533  1.97037208690869  3.59207940314031
 1 -3.53046264316432 -0.05279009450945  3.70014519071907
 1 -2.37257276567657 -1.99012374547455 -0.18649309650965
 1 -2.07245058445845 -0.33185699469947 -0.81767846204620
 1 -0.42336815661566 -0.03235938233823  1.07397775907591
 1 -0.33664400370037 -1.71063302190219  1.49641715011501
 1 -4.26501131763176  6.02622699079908  0.79713251305131
 1 -5.59388459485949  6.84570948564857  1.66413570817082
 1 -4.69154724152415  5.71347939193919  2.58517265126513
 1 -7.85082009140914  7.13958383288329  1.04894644854485
 1 -8.87736308820882  5.88457861836184 -1.39334092019202
 1 -9.24809955655565  7.65539426692669 -0.81461168406841
 1 -12.17131149314931  4.05599478667867 -0.30355816891689
 1 -11.82316616491649  3.70460441784178 -2.14209352615262
 1 -13.18817984078408  2.67609544524452 -1.19461381678168
 1 -12.76630900410041 -0.83342226892689 -0.88378312941294
 1 -13.56317334183418  0.90749490419042 -1.43091545034503
 1 -12.47845347524752  0.75181199429943 -3.76781412571257
 1 -11.89967493549355 -1.04680225382538 -3.32851180328033
 1 -13.81959871337134 -0.47872696749675 -3.46421396369637
 1 -9.82642919171917 -4.72923224302430  0.05719341734173
 1 -9.75989996889689 -4.25859380538054 -1.84252115031503
 1 -8.42904807950795 -5.50551881888189 -1.06217417291729
 1 -3.95985783718372 -3.62010830103010 -0.39277062566257
 1 -2.35468586158616 -6.55684077977798  2.07948128222822
 1 -2.17227567396740 -5.13268675257526  3.19094353695370
 1 -3.55433845024502 -6.22795788738874  3.19945682128213
 1  2.81352526002600 -2.58290593409341 -1.16905807280728
 1  2.56514140864086 -1.07386496729673 -2.02695046224622
 1  4.23839661136114 -1.29047136143614  0.56467437043704
 1  5.34832666186619  1.55632814181418 -2.66814153395340
 1  5.44339095629563 -0.28244228172817 -3.12276367796780
 1  3.86436655485549  0.52461364816482 -2.88058888398840
 1  6.43460147634763  1.18456458145815 -0.41645183628363
 1  6.09177722242224  0.04315442584258  0.60050775817582
 1  7.59558634353435 -1.64871159575958 -1.13816457605761
 1  7.65676521902190 -0.17258523792379 -1.91146597559756
 1  9.04769025642564  0.89923876517652 -0.02909276097610
 1  8.85263832663266 -0.32373652515252  1.05997881028103
 1  10.06788945754575 -0.27354479777978 -1.67527210221022
 1  9.28971928812881 -2.74175286848685 -1.31992053985399
 1  11.09855488658866 -2.52050365016502 -1.41884248914891
 1  10.10357537763776 -2.66968865446545  0.21600333103310
 1  11.14931022842284  0.89940872097210  0.33038162336234
 1  11.18292425592559 -0.63966920342034  1.18013794399440
 1  13.00059477007701 -1.66767833903390 -0.73427664066407
 1  12.76862501470147 -0.00254033303330 -1.37426896059606
 1  13.90385154005400  1.09611932273227  0.33204611551155
 1  14.02710693769377 -0.46356278407841  1.21875872177218
 1  15.22049439363936  0.29530073617362 -1.48561057435744
 1  14.85600115301530 -2.05201778357836 -1.31148048124812
 1  16.72709658315831 -1.76013004960496 -0.93668945284528
 1  15.43966924572457 -2.05740087268727  0.56286555795580
 1  16.02890316351635  1.71679825012501  0.62150260926093
 1  16.33346800360036  0.25654627792779  1.57649107170717
 1  18.56034725642564 -0.04066827732773 -0.36597646544654
 1  17.60129471507151  1.04224611291129 -1.37205563806381
 1  18.32957764726473  2.80636703260326  0.45973136283628
 1  18.61966422062206  1.87275308480848  1.49744689468947
 1  20.49973630603060  0.97971593259326 -0.01479032283228
 1  19.86384374097410  3.69315758585859 -1.29151105350535
 1  21.28566581028103  2.68107617731773 -1.75895900250025
 1  19.49764473747375  1.96111173287329 -1.83596577807781
 1  20.80570580708071  2.31025249324933  2.04598563516352
 1  21.77286014321432  3.22594262166217  0.56531068816882
 1  20.65039466886689  3.78692189178918  1.26027476537654
 1 -7.17791962506251  1.82904177737774  0.25779762586259
 1 -7.53877542594259 -0.18832900890089 -0.00698082568257

