%nproc=3
%Mem=2GB
# td=(NStates=1) B3LYP/SVP 

TD

0 1
 6 -5.05179287738774 -1.89534577667767  0.47755263116312
 6 -4.72289260826083  2.82672912461246  1.40202658855886
 6 -9.46639654935493  3.32534333353335 -0.27801626952695
 6 -9.74458251275128 -1.48328913231323 -0.93906646004600
 7 -5.19677884018402  0.44205582848285  0.93187162416242
 6 -4.47038565466547 -0.68294501550155  0.94728817221722
 6 -3.07141682818282 -0.47893432813281  1.34740973677368
 6 -3.01507647304730  1.04602349464946  1.91709081488149
 6 -4.45606479957996  1.40105992389239  1.43984758175818
 6 -3.04674324282428  1.02834034633463  3.45912377497750
 6 -1.97794986568657 -0.76445640734073  0.15012295789579
 6 -0.51439465166517 -0.62174039063906  0.50793324602460
 6  0.31249491089109 -0.75270214311431 -0.59617117471747
 8 -0.02936116851685 -0.76444881148115 -1.85285889738974
 8  1.60897109420942 -0.71485825892589 -0.18092053475348
 7 -7.14477907250725  2.66739401120112  0.52152166136614
 6 -6.00569214461446  3.36783120142014  1.00011086798680
 6 -6.29615280098010  4.76087252675268  1.05868236103610
 6 -7.56623572037204  4.95777461296130  0.50552708010801
 6 -8.15405635153515  3.65988448214821  0.16594675007501
 6 -5.44314483098310  5.87765328042804  1.64880614661466
 6 -8.27832511521152  6.21114512611261  0.36211471277128
 6 -9.07024492269227  6.58969869176918 -0.65704818361836
 7 -9.29011721232123  0.81539877287729 -0.49974244264426
 6 -9.89968383128313  2.01081358005801 -0.68827809700970
 6 -11.36204007050705  1.69729329032903 -1.13657749164917
 6 -11.48924287478748  0.39664700480048 -1.22956791149115
 6 -10.16528875457546 -0.16454640634063 -0.86510975347535
 6 -12.42460096099610  2.80727922952295 -1.26772986328633
 6 -12.66815455495550 -0.51279375887589 -1.68051901160116
 6 -12.67815794649465 -0.74330759515952 -3.21114928622862
 7 -7.46311526912691 -1.25180686588659 -0.24163269176918
 6 -8.63165475297530 -2.07927665446545 -0.48474183658366
 6 -8.15631807080708 -3.43029991219122 -0.50094266156616
 6 -6.82113702280228 -3.46261308960896 -0.14181180508051
 6 -6.37898900230023 -2.08181099969997 -0.00299522332233
 6 -8.83426618421842 -4.68451920142014 -0.83131212561256
 6 -5.73510045524552 -4.35954098919892  0.09944088968897
 8 -5.57345683588359 -5.53994352445245  0.04676741084108
 6 -4.43649127772777 -3.35417617921792  0.37701676377638
 6 -3.73907770567057 -3.80648474197420  1.65612213791379
 8 -3.91061613511351 -3.42179011291129  2.77964603270327
 8 -2.74822350995100 -4.80419539243924  1.32635306320632
 6 -2.11333603740374 -5.42176162226223  2.47483962356236
 6  2.69700186878688 -0.95471936953695 -1.10434446024602
 6  3.92728597539754 -0.51220172257226 -0.55310741084108
 6  4.86109836643664  0.35103615851585 -1.05286924352435
 6  4.88948814451445  1.03887461916192 -2.38465558235824
 6  6.14673641884188  0.44677241644164 -0.29995891009101
 6  7.37348858925893 -0.21533771667167 -0.98727559445945
 6  8.74898649974998  0.01338735363536 -0.08128647614761
 6  10.09041996769677 -0.58662298889889 -0.83400075487549
 6  9.85060109870987 -2.07887169006901 -0.92711199609961
 6  11.20311416161616 -0.20886520122012  0.02421186548655
 6  12.61391306550655 -0.51574689188919 -0.61203572667267
 6  13.79931852125213 -0.15526275247525  0.24948700420042
 6  15.22745165696570 -0.23571445294529 -0.40325388328833
 6  15.52478205000500 -1.74064292969297 -0.50427919621962
 6  16.32292303660366  0.52004652195220  0.44887390969097
 6  17.73481837063706  0.48272118981898 -0.22259616101610
 6  18.66119704400440  1.33983831273127  0.62902371857186
 6  20.18654055565557  1.33813161776178  0.09765149264927
 6  20.26997769666967  1.70502707880788 -1.30579865766577
 6  20.94722724402440  2.22080341914191  1.19647143534353
 1 -3.88793645394539  3.52286351835184  1.63760864176418
 1 -9.98575642874287  4.07744498659866 -0.57783910661066
 1 -10.43098735513551 -2.34510166566657 -1.31525099819982
 1 -2.83024535153515 -1.28007724292429  1.98216909260926
 1 -2.08501981648165  1.69336956015602  1.55068798099810
 1 -2.11574183218322  0.69250561896190  3.73278238223822
 1 -3.07916340824082  2.18325337503750  3.60743093829383
 1 -3.93147274417442  0.48527371187119  3.93071824802480
 1 -2.18678418681868 -1.83477821092109 -0.17891233843384
 1 -2.06411975137514  0.00538672967297 -0.68672536673667
 1 -0.35252107190719  0.24196805040504  1.03313367466747
 1 -0.08577891719172 -1.30673263186319  1.40922843124312
 1 -4.26878169466947  5.64237860596060  1.19857265706571
 1 -5.76783198959896  6.87370228492849  1.43652294689469
 1 -5.44299238603860  5.71765980998100  2.91156529052905
 1 -8.29591460086009  6.99158903340334  0.98161971587159
 1 -9.22799815171517  5.87319748024802 -1.53157474357436
 1 -9.33493824042404  7.72666139363936 -0.79178940184018
 1 -12.56913127512751  3.54644383158316 -0.55482329542954
 1 -12.33318716701670  3.42934689208921 -2.23308262506251
 1 -13.42966398919892  2.28686652235224 -1.72840719611961
 1 -12.50577295049505 -1.51311023772377 -1.05760051115111
 1 -13.72573959845985 -0.17182302760276 -1.17101946074608
 1 -12.85955158505850  0.24144095719572 -3.69187653195320
 1 -11.82066703470347 -1.19490706430643 -3.37009596169617
 1 -13.56970372387239 -1.36412550735074 -3.29236677897790
 1 -9.56799334813481 -4.96748606840684 -0.13603590559056
 1 -9.29060303920392 -4.35999394539454 -1.82371927012701
 1 -8.17843301800180 -5.61087935493549 -0.83009096459646
 1 -3.87964981638164 -3.33830012021202 -0.55015636423642
 1 -1.34588498149815 -6.22852794849485  2.19891322542254
 1 -1.48302674907491 -4.55848933283328  2.88699314191419
 1 -2.79330234663466 -5.80647573917392  3.18657553315332
 1  2.74113802130213 -2.10833847734773 -1.19711087808781
 1  2.40693558805881 -0.51994957575758 -2.09279704690469
 1  4.36358913061306 -0.96034834913491  0.51445934893489
 1  5.11680350955095  2.07136964596460 -2.40237495729573
 1  5.46044266146615  0.54092005450545 -3.14812621422142
 1  3.97861797999800  0.91497268406841 -2.82277310241024
 1  6.49484750095009  1.54573069806981 -0.64237442854285
 1  6.16548459315932  0.19112922332233  0.82779048644864
 1  7.37697448234823 -1.31167789238924 -0.96378713831383
 1  7.52630217271727  0.34493651425143 -1.92238706770677
 1  8.94233972137214  1.10707954925493  0.07632778107811
 1  8.58803186598660 -0.56253040454045  0.70959377177718
 1  10.26849951855185 -0.22143958725873 -1.79093366836684
 1  8.93320363656366 -2.65489418261826 -1.23209175697570
 1  10.61023605470547 -2.65106670647065 -1.54795540044004
 1  9.96987200730073 -2.51095278087809  0.10560229092909
 1  11.32029732713271  0.86527530763076  0.28873745894589
 1  11.02312827632763 -0.65714095059506  0.92337226742674
 1  12.55766047664767 -1.66721829302930 -0.60607382038204
 1  12.89632778497850 -0.22961304030403 -1.69176070977098
 1  13.74982613751375  0.90310002080208  0.44047695859586
 1  13.85176940394039 -0.64484091189119  1.15386223212321
 1  15.11429377357736  0.20392159825983 -1.39661167446745
 1  14.68614416731673 -2.46289887168717 -1.03373270647065
 1  16.45960983448345 -1.99136317291729 -0.87414319821982
 1  15.27085236403640 -2.48097322992299  0.57186645804580
 1  15.75918619181918  1.56691326162616  0.74857531653165
 1  16.25663031983198 -0.07316669336934  1.37222064466447
 1  18.02438366006601 -0.57134134463446 -0.56318618641864
 1  17.60369495509551  0.91291317961796 -1.28947738023802
 1  18.18881357085709  2.34716111201120  0.55389077877788
 1  18.48522077627763  0.98315412491249  1.67958510851085
 1  20.69596592899290  0.22063002400240  0.23478463466347
 1  19.63760111671167  2.68647691779178 -1.57506940934093
 1  21.33089033273328  1.79108717841784 -1.47326043264326
 1  19.85899087208721  1.09363498519852 -1.91553373487349
 1  20.58844408090809  1.75107657565757  2.14015505210521
 1  22.11818467566757  2.30173020042004  1.17185134223422
 1  20.62089171857186  3.08745194479448  1.06283502140214
 1 -7.09549138223822  1.78313718691869  0.66038788488849
 1 -7.59118066646665 -0.23238341434143 -0.07400752835284

