%nproc=3
%Mem=2GB
# td=(NStates=1) B3LYP/SVP 

TD

0 1
 6 -5.16512421052105 -1.96848309040904  0.49404428032803
 6 -4.72232255125513  2.78647509920992  1.29790617651765
 6 -9.24427433713371  3.37820862006201 -0.32157062496250
 6 -9.84434248874888 -1.46684748814881 -0.81541409480948
 7 -5.25604476677668  0.46196781968197  0.84181261826183
 6 -4.56807542364236 -0.67585430643064  0.86017946134613
 6 -3.04884457095710 -0.54507094179418  1.28383337913791
 6 -3.00758572397240  0.89696858915892  1.88185729152915
 6 -4.40633982708271  1.46784660256026  1.29729332633263
 6 -3.14549311781178  0.87527503980398  3.47315517811781
 6 -2.16553862456246 -0.79065902760276  0.15091303690369
 6 -0.66419963216322 -0.79141735833583  0.59719217191719
 6  0.36911057245725 -1.14114098699870 -0.51544310191019
 8  0.04705647324732 -1.51785415201520 -1.55662927442744
 8  1.67293749084908 -0.91433820692069 -0.09094153685369
 7 -6.94340893549355  2.78129540134013  0.38524803400340
 6 -5.88978055345535  3.41127554585459  0.90470132703270
 6 -6.19749293499350  4.80988742824283  0.96004249704971
 6 -7.53463256005601  4.93887272277228  0.39936646404640
 6 -7.98194914081408  3.63067156085609  0.13209336473647
 6 -5.31015153165317  5.88051356645665  1.32265353135313
 6 -8.14767204990499  6.22396640824082  0.27661616291629
 6 -8.94349224742474  6.65551527342734 -0.65174765356536
 7 -9.25334353495349  0.83197043004300 -0.38395086348635
 6 -9.92118598149815  2.05305780448045 -0.51082035123512
 6 -11.28642250875088  1.91634519551955 -0.92522635653565
 6 -11.43199715021502  0.60419775987599 -1.06400135483548
 6 -10.20085231093109 -0.04405435713571 -0.78586182868287
 6 -12.30277877877788  3.06473497509751 -1.09941303160316
 6 -12.71219895939594 -0.14333681318132 -1.57210817051705
 6 -12.64734486518652 -0.42032529692969 -3.12010018131813
 7 -7.55153411101110 -1.26511819701970 -0.13576210471047
 6 -8.66797838533853 -2.07354608140814 -0.53304666706671
 6 -8.28851129012901 -3.51450833303330 -0.50654322162216
 6 -6.80455536463646 -3.43675050335034 -0.29371699559956
 6 -6.49862096549655 -2.04326714531453  0.03027810401040
 6 -9.09762251985198 -4.66215696519652 -0.85524451885189
 6 -5.67449439463946 -4.33201823692369  0.06780772637264
 8 -5.50126961716172 -5.53684321442144 -0.15882314821482
 6 -4.50081771037104 -3.27375813741374  0.50808987108711
 6 -3.85812961086109 -3.83952804630463  1.77679420512051
 8 -4.10649572307231 -3.42952088598860  2.97038510661066
 8 -3.00165885348535 -4.79183415631563  1.50281070897090
 6 -2.50569527332733 -5.68605805190519  2.56210835043504
 6  2.65345751435144 -1.09993389098910 -1.14419844564456
 6  3.97842108890889 -0.70638114051405 -0.58467056715672
 6  4.92190444704470  0.00986204110411 -1.10328428502850
 6  4.76889608530853  0.71378210991099 -2.47415453225323
 6  6.37952969816982  0.16933467266727 -0.49424833903390
 6  7.55614685508551 -0.45626180908091 -1.14086095299530
 6  8.80422202330233 -0.22054603970397 -0.31499984748475
 6  10.15700662636264 -0.71475580218022 -1.00504785958596
 6  10.02314835343534 -2.19649345224522 -1.20932021692169
 6  11.33640749094910 -0.25323963866387 -0.11244179987999
 6  12.71454312851285 -0.35726104330433 -0.81646616971697
 6  13.84281287068707  0.17652042584258  0.04145620112011
 6  15.28953786558656 -0.10651153265327 -0.41585514341434
 6  15.52458203000300 -1.62438130353035 -0.63054182248225
 6  16.27753849814982  0.55288980628063  0.50306932923292
 6  17.64504939373937  0.72876579427943 -0.04430833223322
 6  18.58146907120712  1.57902223112311  0.81325214141414
 6  20.06165806740674  1.64050185478548  0.34301602910291
 6  20.14863556245625  2.43626020212021 -1.04852293009301
 6  21.01798431973198  2.21297263606361  1.38479026722672
 1 -3.93939159945995  3.51920315231523  1.55574045494549
 1 -9.89239709280928  4.19131637373737 -0.46462778547855
 1 -10.44647890429043 -2.25559271477148 -1.08975844894489
 1 -2.87421974897490 -1.28457769296930  2.02590346604660
 1 -2.19423073757376  1.51339156235624  1.68650156235624
 1 -2.21525178317832  0.46663303170317  4.02613171717172
 1 -2.87176266816682  1.83380843054305  3.84787498269827
 1 -3.98233783068307  0.52425761026103  3.90857603380338
 1 -2.43165867426743 -1.78405313841384 -0.34621906910691
 1 -1.89079241864186  0.02287847884788 -0.58080477467747
 1 -0.37487330713071  0.43593744734473  0.71896225752575
 1 -0.27349768906891 -1.19228118671867  1.50824833323332
 1 -4.36087090359036  5.87222159025903  0.75673847364736
 1 -5.62904811121112  6.92360727542754  1.13939323392339
 1 -5.03870195699570  5.81861990599060  2.39184331833183
 1 -7.77740274967497  6.88343821832183  1.09972152605261
 1 -9.25121047294730  6.07183734423442 -1.64881646774677
 1 -9.29273402000200  7.81620034753475 -0.68337856075607
 1 -12.60472483448345  3.66416560376038 -0.17280509360936
 1 -11.83714756305631  3.75835979337934 -2.06888620542054
 1 -13.26858788158816  2.71596943264326 -1.79666402180218
 1 -12.68443081628163 -1.06595552225223 -1.12383713481348
 1 -13.51856888138814  0.49150330503050 -1.43928628742874
 1 -12.41590722062206  0.52494930803080 -3.66644398869887
 1 -11.71434640264026 -1.16222379597960 -3.35192414451445
 1 -13.68105485898590 -0.71681077587759 -3.39018656095610
 1 -9.70672722152215 -4.94655397519752  0.12363006100610
 1 -9.80294427332733 -4.43749169516952 -1.75975287348735
 1 -8.41025620032003 -5.59980824782478 -1.24691264676468
 1 -3.76556840824082 -3.62170846104610 -0.14311566016602
 1 -1.88013840684068 -6.33410850655065  1.85393872797280
 1 -1.71264971137114 -5.13123660756076  3.28354279687969
 1 -3.15012802920292 -6.14847993959396  3.16589346494649
 1  2.50296420392039 -2.17782542604260 -1.41689285628563
 1  2.20111500600060 -0.44698227902790 -1.92086985418542
 1  4.04103687538754 -1.21332364666467  0.38042594559456
 1  5.08806063526353  1.89020152915292 -2.24037875767577
 1  5.47881449864987  0.42762872537254 -3.31131253285328
 1  3.86774689288929  0.64611579837984 -3.08168899399940
 1  6.55209322552255  1.28580470547055 -0.35358554965497
 1  6.20492853755376 -0.15871576117612  0.47967567496750
 1  7.50505729062906 -1.68225495009501 -1.06088684828483
 1  7.70376991949195 -0.07600557995800 -2.09343417241724
 1  8.76118160556056  0.83752259355936 -0.10335018671867
 1  8.50407347014701 -0.71346549804980  0.63516632903290
 1  10.10592326092609 -0.01716916021602 -1.84020859585959
 1  8.83192350855085 -2.36478517171717 -1.60641918971897
 1  11.07664269536954 -2.44200580038004 -1.82660326522652
 1  9.89429444954496 -2.65338702430243 -0.36147441674167
 1  11.14945024242424  0.78665744584458  0.11849043424342
 1  11.24596055955596 -0.78461369786979  0.96502643284328
 1  12.87490220082008 -1.38656022722272 -0.99215242824282
 1  12.69695784798480  0.13158307930793 -1.89149068276828
 1  13.89601075597560  1.27747745854585 -0.03163025212521
 1  13.70412463946395 -0.12360878867887  1.15325217111711
 1  15.33951629582958  0.36059726582658 -1.42518453175318
 1  14.78108366126613 -2.20032261406141 -0.97465679887989
 1  16.56867074057406 -1.99604364096410 -0.81409719361936
 1  15.32514779357936 -1.90655578817882  0.37598687008701
 1  15.92386265946595  1.59865643594359  0.53597405640564
 1  16.28842349914991  0.03752437573757  1.43976739933993
 1  18.25704692639264 -0.36272048254825 -0.19724959275928
 1  17.79303388898890  0.92907479577958 -1.14969340184018
 1  18.45885057455746  2.42229862576258  0.92375776547655
 1  18.70935318951895  1.11771758125813  1.66844399439944
 1  20.20525685808581  0.58784674567457  0.13157431363136
 1  19.80454781138114  3.46971524162416 -0.97613951635164
 1  21.22578982268227  2.44048211791179 -1.46302940954095
 1  19.49279425242524  1.92932855455546 -1.93809599109911
 1  21.03282851935194  1.65101656965697  2.36629766636664
 1  21.88641149834984  2.22115214261426  1.02869702680268
 1  20.72712234163416  3.25222842244224  1.76122486038604
 1 -6.72845467856786  1.84316318951895  0.36128797489749
 1 -7.77899944834483 -0.30835101110111  0.11557142954295

