%nproc=3
%Mem=2GB
# td=(NStates=1) B3LYP/SVP 

TD

0 1
 6 -5.22606030413041 -2.06860310241024  0.41506638253825
 6 -4.62562288128813  2.61020747244724  1.47947433333333
 6 -9.15292520222022  3.37365816501650 -0.28799726762676
 6 -10.00020807530753 -1.39134993839384 -1.04576713011301
 7 -5.16734589688969  0.30344196709671  0.81806024302430
 6 -4.54081269736974 -0.87201392239224  0.80154359775978
 6 -3.07051673817382 -0.70390682538254  1.28579357515752
 6 -3.09378434383438  0.66834572687269  1.89703880968097
 6 -4.28433762686269  1.30617043494349  1.38251184818482
 6 -3.02887145564556  0.68490600290029  3.40102796539654
 6 -2.09548161886189 -0.92505246694669  0.16061400700070
 6 -0.58202141434143 -0.90384860146015  0.69710216291629
 6  0.36956061746175 -1.22974984788479 -0.49292084968497
 8  0.03159492709271 -1.55766813341334 -1.61638525002500
 8  1.65660585768577 -0.87712448554855 -0.17679012171217
 7 -6.88458305290529  2.72658993079308  0.47855736493649
 6 -5.70758233363336  3.26519093739374  0.99609046594659
 6 -6.07294047974797  4.72714915441544  1.12061855465547
 6 -7.33116221302130  4.94316315181518  0.53099962736274
 6 -7.86250719661966  3.67330582428243  0.17137729312931
 6 -5.12197271377138  5.78392390749075  1.65879714571457
 6 -8.03704098679868  6.19535354695469  0.35558405970597
 6 -8.77394529272927  6.61174089598960 -0.64682716151615
 7 -9.14922312291229  1.01002823582358 -0.66035850425042
 6 -9.73173703660366  2.20999349804981 -0.77749701890189
 6 -11.19514338083808  1.99954351535154 -1.14810864476448
 6 -11.26163011351135  0.70775811591159 -1.39069402410241
 6 -10.09474169986999  0.00368041634163 -0.99170241274127
 6 -12.23494199509951  3.10936943854385 -1.11352444274427
 6 -12.65601334083408 -0.01100357985799 -1.82847380708071
 6 -12.73493362406241 -0.18604186858686 -3.34988315961596
 7 -7.58854781238124 -1.29484116931693 -0.37631616011601
 6 -8.67501908940894 -1.96414514131413 -0.66555991839184
 6 -8.29479191819182 -3.41504838703870 -0.63998656595660
 6 -6.91306621572157 -3.47222405070507 -0.30720834473447
 6 -6.55385648904891 -2.10859367796780 -0.01386631043104
 6 -9.19167192479248 -4.42138288778878 -1.03457245164516
 6 -5.91153809900990 -4.39108414351435  0.16039698529853
 8 -5.90521001120112 -5.58881841194119  0.12070480458046
 6 -4.63125075367537 -3.48626938853885  0.50938000010001
 6 -4.04444824272427 -3.90370446394639  1.80384691039104
 8 -4.30343541704170 -3.47405533943394  2.92604067216722
 8 -3.18042673027303 -4.89570454335434  1.59153958185819
 6 -2.64481918571857 -5.50934038013801  2.84648678827883
 6  2.62155432403240 -1.10163406100610 -1.06521054685469
 6  3.98906215301530 -0.78534903730373 -0.44396649674968
 6  4.91223347994799 -0.04936388148815 -0.99613356995700
 6  4.84804400010001  0.59917064876488 -2.29660677747775
 6  6.23259500470047  0.21573931313131 -0.21849076327633
 6  7.50883212361236 -0.31826800970097 -0.84568143504350
 6  8.74667626872687 -0.12814679977998 -0.01335968346835
 6  10.07308823452345 -0.65050937753775 -0.69494684948495
 6  10.04706074467447 -2.16983078597860 -0.92052133703370
 6  11.26830068026803 -0.20881519621962  0.09087853215322
 6  12.63395506970697 -0.47824314151415 -0.40172469556956
 6  13.80293888328833  0.20270304410441  0.31249330483048
 6  15.24645355715571 -0.03698457995800 -0.30937449534953
 6  15.62101167296730 -1.54015288068807 -0.32697146544654
 6  16.25167591189119  0.86027054435444  0.33547256955696
 6  17.68294318311831  0.88837175487549 -0.28036193759376
 6  18.68731965626563  1.78610293919392  0.36814763096310
 6  20.07983988558856  1.70272807740774 -0.16443471597160
 6  20.17006770567057  2.50079665576558 -1.51316939473947
 6  21.18212073337334  2.30957229602960  0.74373616181618
 1 -3.86996465676568  3.37026825882588  1.77340222112211
 1 -9.85993384648465  4.15058230033003 -0.25013633633363
 1 -10.69274353075308 -2.15889304480448 -1.34991446454645
 1 -2.77301962896290 -1.33245248044805  2.12357323302330
 1 -2.21720303480348  1.05785600880088  1.47465037723772
 1 -2.19717997599760  0.06743311171117  3.79596870087009
 1 -3.02011750365036  1.68828387808781  3.69565976117612
 1 -3.93974357125713  0.17446263076308  4.07818299449945
 1 -2.17117262566257 -1.97721245434543 -0.36631107830783
 1 -2.27975131453145 -0.02544635363536 -0.61535823002300
 1 -0.28926474627463 -0.04037018341834  1.43626398769877
 1 -0.44406474577458 -1.80093205180518  1.16526403480348
 1 -4.19479429592959  6.15302967106711  1.17140994079408
 1 -5.76874208060806  6.60918583328333  1.55699499409941
 1 -5.17721580838084  5.52602064606461  2.78174230823082
 1 -7.94448945834583  6.80291016551655  1.35956751065107
 1 -8.68035338723872  5.97980814131413 -1.55398698479848
 1 -9.15605035163516  7.71724045154515 -0.78443866676668
 1 -12.45976033803380  3.47800698789879 -0.00256806990699
 1 -11.88073192149215  3.94486844424442 -1.85056437323732
 1 -13.10423144594459  2.60251808750875 -1.66625098049805
 1 -12.59452182538254 -0.97215614231423 -1.17701245234523
 1 -13.60357738223822  0.44137829252925 -1.46674903370337
 1 -12.81299692959296  0.74165097819782 -3.77268461276128
 1 -11.75729069706971 -0.55449302290229 -3.77903685578558
 1 -13.54235098859886 -0.87519661446145 -3.57749529182918
 1 -10.36379292809281 -4.08430775057506 -0.80084238623862
 1 -9.26582056095609 -4.25945389138914 -2.28217511571157
 1 -8.94166934163416 -5.52062032903290 -0.70597855335534
 1 -3.88297014841484 -3.75917220742074 -0.40986233483348
 1 -2.12401279427943 -6.42127722342234  2.46742007610761
 1 -2.12419086548655 -4.78291177507751  3.15641008360836
 1 -3.50213322972297 -5.70213530513051  3.71344822042204
 1  2.40296420392039 -2.26786442994299 -1.22870403740374
 1  2.49163405790579 -0.60152773357336 -2.08437620482048
 1  4.08874164586459 -1.15194750905091  0.41318922192219
 1  5.67940977017702  1.50311282028203 -2.39879459925993
 1  5.27528414561456 -0.13378741624162 -3.04880628222822
 1  3.76641675987599  1.00122130893089 -2.58692951805181
 1  6.33461147734773  1.27173329832983  0.06833664256426
 1  6.24458250295030 -0.07566745634563  0.90123783118312
 1  7.44562134703470 -1.35463218781878 -0.87847860746075
 1  7.57969751225123  0.15009703030303 -2.02588741774177
 1  8.72824831223122  0.96401524282428  0.23271341964196
 1  8.76410947374738 -0.66638078957896  0.85322813521352
 1  9.89856252485249 -0.23440088338834 -1.66402097709771
 1  9.09495981218122 -2.42646133933393 -1.44921346914691
 1  10.86032106320632 -2.71596319611961 -1.43017362226223
 1  10.12203722382238 -2.77059874547455  0.16333806450645
 1  11.18522381978198  0.92074085418542  0.73517210241024
 1  11.05784174767477 -0.71382661916192  1.04136406660666
 1  12.76890160076008 -1.53545511671167 -0.39678289128913
 1  12.65429358155816 -0.16687676667667 -1.36704823852385
 1  13.77233838873887  1.29640935173517  0.25491840274027
 1  13.67527175417542 -0.25769219701970  1.36869371527153
 1  14.99188153235323  0.40931213731373 -1.25028704200420
 1  14.73706925982598 -2.01134371617162 -0.88797813101310
 1  16.41215508900890 -1.86347038363836 -1.24856063996400
 1  15.74900017881788 -1.79405453805380  0.60085935733573
 1  15.82606287948795  1.84222079237924  0.47376783578358
 1  16.51392604940494  0.76543716701670  1.31577500010001
 1  18.13590481218122 -0.28092230273027 -0.24456432423242
 1  17.71158574417442  1.23092498079808 -1.35952438493849
 1  18.32013670317032  2.87293368926893  0.20795618531853
 1  18.72429468366837  1.63142895239524  1.54863201320132
 1  20.40591692409241  0.55432339333933 -0.27927677147715
 1  19.89063642024202  3.57362563266327 -1.29342124452445
 1  21.16920416411641  2.44015208490849 -1.99591269786979
 1  19.49913488648865  2.06034165586559 -2.28454063556356
 1  21.07875311181118  1.68883035103510  1.75586662326233
 1  22.22927578477848  2.19205923332333  0.50137429452945
 1  21.08085771517152  3.34742794239424  0.76236497439744
 1 -7.19377121022102  1.80873974717472  0.48426027212721
 1 -7.52370391879188 -0.19433960996100 -0.63931405900590

