%nproc=3
%Mem=2GB
# td=(NStates=1) B3LYP/SVP 

TD

0 1
 6 -5.19373707180718 -1.92897914001400  0.44468934483448
 6 -4.71891221022102  2.67417386908691  1.38397478337834
 6 -9.27567747744774  3.33518431763176 -0.26094456235624
 6 -9.83548160266027 -1.53624442784278 -0.83256580998100
 7 -5.14976413871387  0.42685430833083  0.83822225922592
 6 -4.50527914401440 -0.76324304530453  0.74612805620562
 6 -3.08732841934193 -0.60413684838484  1.21202619841984
 6 -3.03000796619662  0.80136902920292  1.78359746554655
 6 -4.38360755385539  1.40683050095009  1.31228482548255
 6 -2.98048661716172  0.74865237753775  3.27930579317932
 6 -2.14095616631663 -0.94799476117612  0.02447039263926
 6 -0.71520473267327 -0.63418163476348  0.48649110181018
 6  0.34421808320832 -0.97549442234223 -0.63756531413141
 8 -0.00029826222622 -1.32781514811481 -1.70846445794579
 8  1.59864006110611 -0.58612538563856 -0.26960940364036
 7 -6.98011260586059  2.68123539533953  0.40433994319432
 6 -5.91779335473547  3.22757717601760  0.96354721162116
 6 -6.17126031173117  4.67384382388239  0.98162465526553
 6 -7.33751284808481  4.96083491899190  0.42686921432143
 6 -8.02313325922592  3.59891838553855  0.13992414781478
 6 -5.11949246574657  5.68072358745875  1.49531079707971
 6 -8.10037732043204  6.28563257485749  0.33714221552155
 6 -8.88265616381638  6.63140286218622 -0.70343282208221
 7 -9.21685988658866  0.86238347134713 -0.45428789718972
 6 -9.78594245714571  2.06443894259426 -0.57814708390839
 6 -11.22980684718472  1.87463102410241 -0.94845867976798
 6 -11.43591754225423  0.55294263436344 -1.12329728442844
 6 -10.16355858155815 -0.11146109780978 -0.79262250475048
 6 -12.20234873577358  2.97812631423142 -1.01276436673667
 6 -12.69825756525653 -0.24234671417142 -1.50755171487149
 6 -12.83726385708571 -0.59095235963596 -2.98231640294029
 7 -7.55981493909391 -1.26834852005201 -0.21950047854785
 6 -8.68923051055106 -2.11602032883288 -0.52283564596460
 6 -8.25655809480948 -3.47173405560556 -0.56160872817282
 6 -6.83223813291329 -3.44146097439744 -0.21203882778278
 6 -6.49921102450245 -2.13500631923192  0.01582665886589
 6 -9.22333509110911 -4.59953070257026 -0.89417841224122
 6 -5.71155810101010 -4.31637667276728  0.04296524212421
 8 -5.74210370057006 -5.57532706280628  0.01656439053905
 6 -4.54212184078408 -3.44583534513451  0.41807086918692
 6 -3.83936773467347 -3.85864995849585  1.74703122882288
 8 -4.08105317881788 -3.27648558245825  2.83909197729773
 8 -3.02640132773277 -4.79072404530453  1.56016644454445
 6 -2.36507121092109 -5.45323476957696  2.66808894849485
 6  2.65620778937894 -0.72847674527453 -1.20157418321832
 6  3.90555380218022 -0.42161266366637 -0.68001010111011
 6  4.97843009960996  0.22845390029003 -1.14712866946695
 6  4.85414461016102  0.86801753345335 -2.49177629442944
 6  6.19755150035003  0.33229096829683 -0.38551746594659
 6  7.47938917931793 -0.24548073097310 -1.08037490439044
 6  8.77451905300530  0.02377839273927 -0.28462681018102
 6  9.98556948264826 -0.58296262286229 -0.94246160096010
 6  9.92797883648365 -2.17007080998100 -0.95933521842184
 6  11.25609946014601 -0.20586490119012 -0.17228778447845
 6  12.61991366556656 -0.60678599579958 -0.67494201730173
 6  13.84491308070807  0.01793456725673  0.21939399489949
 6  15.28500741254125 -0.29882076357636 -0.30353391129113
 6  15.53367293909391 -1.86559542494249 -0.21959072737274
 6  16.34660540484048  0.48700321762176  0.53376239853985
 6  17.73927881668167  0.57945086278628 -0.11248514991499
 6  18.59096002030203  1.59473380228023  0.64929574577458
 6  20.08196009760976  1.67551535613561  0.23358508600860
 6  20.30683138203820  2.28113468956896 -1.07735581338134
 6  21.06354887618762  2.26155749454945  1.22904469266927
 1 -4.12994065436544  3.42164339633963  1.97680256115612
 1 -9.81450930403040  4.07815505760576 -0.57601892459246
 1 -10.70165442184218 -2.12069922542254 -1.00121959505951
 1 -2.74421674867487 -1.27472670787079  1.95337621332133
 1 -2.21936325082508  1.21147137033703  1.39372228442844
 1 -2.05188544654465  0.27028339673967  3.63413251725173
 1 -2.81890738263826  1.87998304800480  3.64225442064206
 1 -3.98245784268427  0.30415560006001  3.69800497669767
 1 -2.08635414381438 -1.99963469656966 -0.36029047624762
 1 -2.19533287268727 -0.37629143814381 -0.97628432263226
 1 -0.46749256905691  0.23276713031303  0.94629499079908
 1 -0.42186252555256 -1.19483144174417  1.47700520892089
 1 -4.21417623412341  5.68050241834183  0.75778857865787
 1 -5.55177038343834  6.69758467316732  1.67981727632763
 1 -4.54210229702970  5.18553659765977  2.49067320132013
 1 -7.89030403980398  7.10195006950695  1.09329088298830
 1 -9.32726807870787  6.08453861436144 -1.57154874097410
 1 -9.48572331893189  7.48771749924992 -0.52368259115912
 1 -12.09476383838384  3.66930611781178 -0.07160497359736
 1 -12.00843469176918  3.58176213361336 -1.87710702750275
 1 -13.23599462226223  2.65362319801980 -1.25344970037004
 1 -12.84867724092409 -1.06864579127913 -0.85054980608061
 1 -13.56773379787979  0.27041119581958 -1.06129848864887
 1 -12.63218884878488  0.33834064716472 -3.57335467976798
 1 -12.11124609260926 -1.53096066966697 -3.27317626972697
 1 -13.74695144864486 -1.05567466226623 -3.29506704900490
 1 -9.79200574937494 -4.88089740954095  0.18458615661566
 1 -9.91274525342534 -4.10606855285529 -1.76576347454745
 1 -8.46260143484349 -5.28784705170517 -1.24446240174017
 1 -3.83150500190019 -3.45692198239824 -0.28722007060706
 1 -1.63954434743474 -6.09686478217822  2.16016935103510
 1 -2.12082052845285 -4.82064554845485  3.37465190779078
 1 -3.16835985238524 -5.86204129572957  3.27406428202820
 1  2.49989389688969 -1.72661030453045 -1.67295846284628
 1  2.29153404790479 -0.04608218901890 -2.12860062726273
 1  4.19032180388039 -0.96439875417542  0.29907781078108
 1  5.25862769196920  1.91424393339334 -2.38572329212921
 1  5.53189980718072  0.29731569406941 -3.16682808440844
 1  3.79732985118512  1.02027321412141 -3.08004882998300
 1  6.36136415261526  1.33911003600360 -0.27995818691869
 1  6.08965701040104  0.08046815721572  0.64718242564256
 1  7.33254003890389 -1.49861658625863 -1.03435419501950
 1  7.39621916441644  0.14275629622962 -2.20931576057606
 1  8.94533002040204  1.19949879117912 -0.45884573627363
 1  8.74439750255025 -0.28141229272927  0.76564937733773
 1  10.05089775837584 -0.38326576987699 -2.07120169516952
 1  9.20761107730773 -2.43175186838684 -1.56462501030103
 1  10.74592962406241 -2.88196979677968 -1.46255686058606
 1  9.76230125022502 -2.59022070767077  0.03524525522552
 1  11.02689798719872  0.94942372247225 -0.16950836563656
 1  11.13104906840684 -0.49045428192819  0.88210814101410
 1  12.97535224582458 -1.68383995519552 -0.55310852385239
 1  12.70830898309831 -0.56596667566757 -1.82372390609061
 1  13.48245940084008  1.12829254005401  0.26660957185719
 1  13.59806403340334 -0.28533496129613  1.25352219811981
 1  15.36474881908191 -0.22061085498550 -1.32434444774477
 1  14.75920147304730 -2.28561114291429 -0.79097843104310
 1  16.70504437793779 -2.12357639423942 -0.37205298919892
 1  15.37409268806881 -2.05338047064706  0.83205247664767
 1  15.75348562176218  1.60025659595960  0.86166662566257
 1  16.45893054985499  0.03380400370037  1.71532495509551
 1  18.28912013371337 -0.35502971347135 -0.26968683648365
 1  17.61304589018902  1.14456634493449 -1.06417484998500
 1  18.01844653415342  2.61301769766977  0.44134952465247
 1  18.66911916611661  1.48820462996300  1.75643279327933
 1  20.41400773317332  0.62031999299930  0.22017317351735
 1  20.09727708430843  3.30903917401740 -0.91487338973897
 1  21.56984422812281  2.31327939763976 -1.28981208780878
 1  19.71466643964396  1.86865248694869 -2.14083626512651
 1  20.78498373487349  2.01036250425043  2.27198823542354
 1  22.06278913611361  2.00066009340934  0.70304446154615
 1  20.90426005540554  3.39277247684768  1.08338707660766
 1 -6.88826065916592  1.74043291649165  0.12601444754475
 1 -7.66816836523652 -0.22249242524252  0.00906077847785

