%nproc=3
%Mem=2GB
# td=(NStates=1) B3LYP/SVP 

TD

0 1
 6 -5.05033273137314 -1.85778202030203  0.40035491139114
 6 -4.70534085308531  2.81398785048505  1.41092747864786
 6 -9.26917682738274  3.37738853805381 -0.13210167806781
 6 -9.78640669516952 -1.44831563496350 -0.93929648304830
 7 -5.15501466376638  0.51230285318532  0.76638507550755
 6 -4.47144576067607 -0.68864558555856  0.66836027942794
 6 -2.99262894939494 -0.62603903860386  1.22252724852485
 6 -2.94931989738974  0.93324221652165  1.82052115791579
 6 -4.29848904200420  1.38539835773577  1.35169876687669
 6 -2.99994856335634  1.03943145544554  3.33530139273927
 6 -2.06828889958996 -0.81866182788279 -0.05829788418842
 6 -0.62823603580358 -0.97509572617262  0.32231468416842
 6  0.41235489688969 -1.14692156505651 -0.74543610121012
 8 -0.04141237363736 -1.64799716631663 -1.80179379087909
 8  1.63590378747875 -1.02650942404240 -0.38420086278628
 7 -7.01354594919492  2.83982125392539  0.48904841404140
 6 -5.86844842024202  3.41909632793279  1.02263312021202
 6 -6.18464164986499  4.79150559005901  1.06572306510651
 6 -7.48901799859986  4.98148698419842  0.62949947734773
 6 -7.97702864876488  3.66981547524752  0.19228938433843
 6 -5.13403391989199  5.85821133623362  1.49560082608261
 6 -8.14271155385538  6.27815182678268  0.45763426472647
 6 -9.06641453965396  6.75564528642864 -0.43448592739274
 7 -9.27804600520052  0.87920515351535 -0.45454792319232
 6 -9.79794365726573  2.13461596029603 -0.50221949114911
 6 -11.22466633313331  1.92639620062006 -0.89586342024202
 6 -11.41495544604460  0.54028136823682 -1.02629758445845
 6 -10.18656088178818 -0.03507345904590 -0.80514375687569
 6 -12.16785528642864  3.02818131973197 -1.22204529482948
 6 -12.68114585408541 -0.20294277377738 -1.55673663336334
 6 -12.73887401810181 -0.48470173457346 -2.98066623792379
 7 -7.43576253385339 -1.27401908710871 -0.18519704820482
 6 -8.61181276877688 -1.98803753055306 -0.55059842224222
 6 -8.20316275527553 -3.37352423462346 -0.68176074337434
 6 -6.89898480758076 -3.34877170547055 -0.22168979287929
 6 -6.33734483788379 -2.04892771137114  0.00302537873787
 6 -9.08876163376338 -4.44029477897790 -0.97934692909291
 6 -5.66005295049505 -4.28426346144614  0.07252819841984
 8 -5.66682617281728 -5.48430796089609  0.01840457455746
 6 -4.53133076167617 -3.35472623422342  0.41185024712471
 6 -4.00324412231223 -3.83549764326433  1.79543606930693
 8 -4.24984005750575 -3.30501843574357  2.85594366246625
 8 -3.10630931853185 -4.86264123702370  1.65765619351935
 6 -2.56819152295230 -5.53444289038904  2.76250839043904
 6  2.75690785938594 -1.43302720032003 -1.30394442024202
 6  3.97801104790479 -0.94828533093309 -0.72478457855786
 6  4.94039629622962 -0.24304324942494 -1.25656961356136
 6  4.94577377307731  0.32463319501950 -2.76998411521152
 6  6.15197694289429  0.16151389058906 -0.41225013921392
 6  7.43149438983898 -0.49569575247525 -1.01660852775278
 6  8.80134173527353 -0.20976496159616 -0.25767411491149
 6  10.09590051575158 -0.78285261186119 -0.79941729652965
 6  10.04609064766477 -2.29938374127413 -0.97403668856886
 6  11.17994184438444 -0.26089040374037 -0.07461801750175
 6  12.58084975917592 -0.53872919011901 -0.60079460256026
 6  13.74670325972597  0.12995576937694  0.21818387388739
 6  15.17925683748375 -0.11208208970897 -0.42658621652165
 6  15.60799037083708 -1.64598346374637 -0.39014778307831
 6  16.27184792909291  0.76495101240124  0.39184820712071
 6  17.59922481128113  0.91893481118112 -0.09456335773577
 6  18.61895281958196  1.81573590249025  0.76861767796780
 6  20.09633153475347  1.76096390099010  0.38069979747975
 6  20.21300199909991  2.35853242934293 -1.04910298809881
 6  20.93875639693970  2.55225656445645  1.33925571377138
 1 -3.95175283558356  3.53137436943694  1.92406728762876
 1 -9.99835768886889  4.33196043814381 -0.06816813951395
 1 -10.72161641804180 -2.07331448694870 -0.94369384248425
 1 -2.71087341434143 -1.11459069426943  1.97855873157316
 1 -2.30186150065007  1.64102432563256  1.53190610281028
 1 -1.98676893489349  0.81243761216122  4.01990109410941
 1 -3.18680417231723  1.99922497219722  3.76519671487149
 1 -3.72713231013101  0.37513269776978  3.75132030823082
 1 -2.39017452585259 -1.75353008610861 -0.52083653085309
 1 -2.08813215261526  0.08556474747475 -0.81907860206021
 1 -0.44188000780078  0.00350420402040  0.85289565086509
 1 -0.20863120242024 -1.79324128272827  1.07060456885689
 1 -4.26521133763376  5.86994136223622  0.80907370717072
 1 -5.34050925732573  7.03056797149715  1.57591688628863
 1 -4.66607469426943  5.58235627962796  2.41946608060806
 1 -7.97793280268027  7.20367024152415  1.12080363426343
 1 -9.47674302620262  6.14658481898190 -1.23949553565357
 1 -9.45454020062006  7.72986171367137 -0.29418964186419
 1 -12.26266062806281  3.47674686188619 -0.34650246334633
 1 -11.79124297259726  3.77985194259426 -1.85054437123712
 1 -13.01474249704970  2.62739057475748 -1.65972032743274
 1 -12.72484485768577 -1.23734266096610 -1.11167591869187
 1 -13.80212723722372  0.09315347004701 -1.15928828762876
 1 -12.76287191709171  0.53292010511051 -3.35421276557656
 1 -11.96051101910191 -1.02307988158816 -3.59596854895490
 1 -13.86678343184319 -0.83690278507851 -3.48467600990099
 1 -9.81184773357336 -4.56410573037304 -0.02343464546455
 1 -9.57454143304330 -4.45779372537254 -1.99908680688069
 1 -8.31879705440544 -5.33880214721472 -0.81255921142114
 1 -3.74482633403340 -3.60066635683568 -0.32556390499050
 1 -1.89582997599760 -6.49083417911791  2.38102143624362
 1 -1.99253770017002 -4.71639512341234  3.35554999759976
 1 -3.41803481988199 -5.75696078767877  3.50246712231223
 1  2.56148005550555 -2.54804244774478 -1.25119628662866
 1  2.55953084758476 -0.95214279507951 -2.27879564676468
 1  4.06398917061706 -1.27582989728973  0.44392229522952
 1  5.11497332653265  1.28930143914391 -2.53461818161816
 1  5.68892550975097 -0.35728976647665 -3.37347874947495
 1  3.89903002120212  0.11319250605060 -3.35998682378238
 1  6.52609062526253  1.10773689868987 -0.48325851695170
 1  6.06468451315132  0.00957106750675  0.70082779017902
 1  7.34256104100410 -1.64015073967397 -1.44284504410441
 1  7.55677522002200 -0.01448942834283 -2.00130495949595
 1  8.98349383678368  0.90110895219522 -0.24549440114011
 1  8.65923898669867 -0.52020617211721  0.74972778517852
 1  10.12802547114711 -0.50167761106111 -1.66397097209721
 1  9.39462977917792 -2.73128182138214 -1.76213476127613
 1  11.18573360446045 -2.66925852565257 -1.25377598249825
 1  9.67258227832783 -2.63203488908891  0.16719845054505
 1  11.13163846124613  0.78815759585959  0.08979756495649
 1  11.11178714221422 -0.70448568506851  1.03089301950195
 1  12.65560027062706 -1.55668723992399 -0.93919713271327
 1  12.67206535873587  0.09647956895690 -1.42428396209621
 1  13.73693484838484  1.29355906670667  0.40637354825483
 1  13.73806803380338 -0.30170659845985  1.13812065796580
 1  15.26042838703870  0.16217742384238 -1.42070408370837
 1  14.93705925882588 -2.14422700450045 -0.96994632783278
 1  16.54189806330633 -1.72888692529253 -0.87917370127013
 1  15.82550782958296 -2.16808194079408  0.61220049144914
 1  15.91696196939694  1.84285085538554  0.47355781478148
 1  16.01817647444744  0.34136475977598  1.46717013961396
 1  18.18599982168217  0.03586937643764 -0.14205407320732
 1  17.61858644424442  1.24821670997100 -1.24494292679268
 1  18.30996568606861  2.81219761566157  0.56020140984098
 1  18.70914316851685  1.51882769226923  1.83211036103610
 1  20.28950528292829  0.70380834183418  0.14124528072807
 1  19.97230458705871  3.33512178227823 -1.06406830923092
 1  21.11301854555456  2.35703377307731 -1.60663376997700
 1  19.38017299029903  1.80114573627363 -1.81853403490349
 1  21.23036827332733  2.25188665666567  2.28261929852985
 1  21.93676653385339  2.87165719311931  1.00399455655566
 1  20.48829845924593  3.56578977857786  1.43005174307431
 1 -7.09157099019902  1.73985285848585  0.42397424352435
 1 -7.71793334173417 -0.05798597459746 -0.32921304890489

