%nproc=3
%Mem=2GB
# td=(NStates=1) B3LYP/SVP 

TD

0 1
 6 -5.18485618371837 -1.93632987508751  0.51462633853385
 6 -4.66281660066007  2.79500595229523  1.54180056595660
 6 -9.26989689938994  3.29355015421542 -0.10260872877288
 6 -9.80604865936594 -1.36801760516052 -1.15637819121912
 7 -5.16155531783178  0.43395501840184  0.96314475147515
 6 -4.50477909400940 -0.78081480248025  0.87019046244624
 6 -3.07273696019602 -0.52817925262526  1.38468346414641
 6 -3.09095406080608  0.85215410771077  1.91431053685369
 6 -4.44857405050505  1.41914173207321  1.45772936993699
 6 -3.03621218971897  0.91202871517152  3.50291815441544
 6 -2.05225729642964 -0.73841380308031  0.14934287988799
 6 -0.60939415161516 -0.71692990959096  0.61116356905691
 6  0.29107276867687 -1.15458233113311 -0.54306586418642
 8 -0.05993422582258 -1.55638800540054 -1.55592920442044
 8  1.59747994509451 -0.89121589468947 -0.21210365306531
 7 -6.97945253985399  2.68057532933293  0.55523503270327
 6 -5.88490006540654  3.35485990429043  0.99084994189419
 6 -6.17498068376838  4.70882732223222  1.06587308010801
 6 -7.46564566136614  4.89823865936594  0.59692622002200
 6 -8.00577152305231  3.61676016971697  0.27193734913491
 6 -5.30869138563856  5.79887540264026  1.62825409140914
 6 -8.06540382308231  6.18672268386839  0.31196969826983
 6 -8.77066496469647  6.49895961786179 -0.72297477627763
 7 -9.08088628922892  0.93612084508451 -0.54403687208721
 6 -9.82089595249525  2.01983448214822 -0.53847311651165
 6 -11.21733560006001  1.92600616161616 -0.98886272017202
 6 -11.34849880038004  0.60145748584858 -1.31000595529553
 6 -10.04033625932593 -0.05095504720472 -1.02021526402640
 6 -12.14795329622962  3.05408390999100 -1.31531462176218
 6 -12.45162290179018 -0.05582806230623 -1.93779473917392
 6 -12.50128025872587 -0.22670593499350 -3.57117528882888
 7 -7.52941189878988 -1.23729541474147 -0.17851638013801
 6 -8.61350293779378 -2.00733946074608 -0.68082144454445
 6 -8.18111055005501 -3.37631451365137 -0.69784235153515
 6 -6.83636854595460 -3.40955778407841 -0.16741436533653
 6 -6.52583368676868 -2.03435625422542  0.01722679887989
 6 -9.03802656025603 -4.58132888238824 -0.98353734813481
 6 -5.82491943714371 -4.29066410151015  0.14359530513051
 8 -5.86334582478248 -5.44263379347935  0.10201293539354
 6 -4.56578420702070 -3.38199896149615  0.49589865196520
 6 -3.91122492039204 -3.78950304380438  1.77180370607061
 8 -4.10508558205821 -3.41901983588359  2.89635770387039
 8 -3.19739842744274 -4.87247222012201  1.54559498739874
 6 -2.43901860566057 -5.48823826992699  2.64121626122612
 6  2.64279644824482 -1.05348924652465 -1.17030105590559
 6  3.93652689948995 -0.76586708910891 -0.55576767686769
 6  4.92954521112111 -0.01182012711271 -1.05970992759276
 6  4.76944614031403  0.81469220092009 -2.28257537433743
 6  6.24176592179218  0.08570630983098 -0.27995690989099
 6  7.48683992439244 -0.53252943584358 -1.01864873177318
 6  8.76224782588259 -0.37857184228423 -0.15794414191419
 6  10.02027295299530 -0.93907823442344 -0.69952730753075
 6  9.98970500910091 -2.46150995389539 -0.97052633753375
 6  11.24448829902990 -0.47429174387439  0.07835728002800
 6  12.70040171437144 -0.68791410861086 -0.57395191829183
 6  13.84911350075008 -0.01500872707271  0.20376243174317
 6  15.25540445224522 -0.16485736723672 -0.35699925782578
 6  15.72957252905290 -1.61728059345935 -0.41397016531653
 6  16.24938568286829  0.66263078037804  0.40507953025302
 6  17.59302419121912  0.96402932063206 -0.34604850625063
 6  18.59464038833883  1.80575490439044  0.52006282248225
 6  20.05210711231123  1.89371717631763 -0.01068934143414
 6  20.11540223912391  2.47301387748775 -1.47228530633063
 6  20.91052357365737  2.66958829762976  0.96617840604060
 1 -3.95516317661766  3.29518075007501  2.15674055495549
 1 -9.84662251535154  4.16937417951795 -0.17065838853885
 1 -10.43874813121312 -2.20876803230323 -1.62084155725572
 1 -2.80285261226123 -1.26121535673567  2.21744261996200
 1 -2.32962427692769  1.53378360156016  1.55304821702170
 1 -2.07469772777278  0.70260662906291  3.81555065906591
 1 -3.05580107200720  1.85514056375638  3.88716891209121
 1 -3.80783037993799  0.21677686218622  3.86870204640464
 1 -2.51215672407241 -1.46017075017502 -0.45104955215522
 1 -2.28997233663366  0.08517470847085 -0.64677137133713
 1 -0.16345216501650  0.17642149574957  1.06599696099610
 1 -0.49460980028003 -1.49464142274227  1.49432694109411
 1 -4.68488330483048  6.02587695579558  0.60842364216422
 1 -5.86308151455146  6.78237315201520  1.95854514911491
 1 -4.77296538333833  5.42838088208821  2.62269640364036
 1 -7.92714772417242  6.98895877037704  0.97348890279028
 1 -9.04981033293329  5.76989715021502 -1.46746833293329
 1 -9.30435518211821  7.39224795229523 -0.73588381128113
 1 -12.18014237623762  3.74263345054505 -0.41262907600760
 1 -11.68826267456746  3.75744970237024 -2.23080239703970
 1 -13.07992901570157  2.74709254495450 -1.54710906630663
 1 -12.58541091429143 -1.11897082378238 -1.58296304740474
 1 -13.49318634313431  0.46827098179818 -1.62912527132713
 1 -12.48689431933193  0.84328114121412 -4.02566991129113
 1 -11.45695066306631 -0.72617019061906 -3.85439439153915
 1 -13.29342609610961 -0.71688078287829 -3.85895343764376
 1 -10.00777732653265 -4.44988430823082 -0.39700200220022
 1 -9.14168814771477 -4.94368231423142 -2.03151004920492
 1 -8.63560873557356 -5.73553182018202 -0.52720067556756
 1 -3.90793264466447 -3.54192048224822 -0.37929927852785
 1 -1.74631502450245 -6.33601869756976  2.26159949404940
 1 -1.84878332473247 -4.82361584548455  3.31555599819982
 1 -3.33747676407641 -6.00337542914292  3.39883675927593
 1  2.49374328182818 -2.13805144864486 -1.70261142814281
 1  2.47146204070407 -0.46811439223922 -2.20149791699170
 1  4.21644441614161 -1.40079239353935  0.35358326132613
 1  4.99896172537254  1.93113562256226 -2.13705842564256
 1  5.50866748394840  0.63120908340834 -3.20989239083908
 1  3.79416953515351  0.82307349414941 -2.76691751685168
 1  6.52105012121212  0.98275440044004  0.05519532843284
 1  6.03297134183418 -0.40741063066307  0.81464917231723
 1  7.51715850075007 -1.57367409200920 -1.40871163076308
 1  7.60046958945895  0.11019303990399 -1.98225305430543
 1  9.11735722312231  0.69927876917692 -0.02747259895990
 1  8.70280334313431 -0.66643079457946  0.91162397479748
 1  10.07416008460846 -0.46581402470247 -1.70332490749075
 1  9.32525284148415 -2.93220191339134 -1.69914846264626
 1  11.01964699579958 -2.89993159295930 -1.48142874777478
 1  10.02883790389039 -3.12736442204220 -0.01766003530353
 1  11.19465476287629  0.64044282438244  0.38472705790579
 1  11.13582954645465 -1.11069630613061  1.05877580778078
 1  12.75924063466347 -1.76201777297730 -0.76384959795980
 1  12.60866901910191 -0.14993507250725 -1.58607014071407
 1  13.53083423832383  0.95586529732973  0.56925983688369
 1  13.90956518351835 -0.54093052085208  1.21271811771177
 1  15.14966731093109  0.28950015611561 -1.31592360566057
 1  14.99171472437244 -2.05869845164516 -1.18413774697470
 1  16.88170204370437 -1.55842987958796 -0.74153993789379
 1  15.87572285108511 -2.18415354795480  0.49444871627163
 1  15.62394266746675  1.70990756105611  1.00435089408941
 1  16.42546720352035  0.14836545984598  1.45859928252825
 1  18.03733495519552 -0.05511972247225 -0.66620648844885
 1  17.36080066566657  1.44390627892789 -1.33440187268727
 1  18.24592928242824  2.77928432433243  0.59288467816782
 1  18.51255350955095  1.35084089358936  1.59233638363836
 1  20.26075240764076  0.89676763776378 -0.02716155995600
 1  19.61844920152015  3.39254752485249 -1.44454635703570
 1  21.19194643834384  2.44186225592559 -1.77497060366037
 1  19.48370334333433  1.79823544524452 -2.12179436093609
 1  21.28270350685069  2.01566303430343  2.00643167976798
 1  21.83764662186219  2.85267529492949  0.51734589168917
 1  20.25392502190219  3.63058625822582  1.39720845874587
 1 -7.34036586968697  1.62297117031703  0.41126297239724
 1 -7.66601815021502 -0.31269144514451 -0.07927805540554

