%nproc=3
%Mem=2GB
# td=(NStates=1) B3LYP/SVP 

TD

0 1
 6 -5.04701239933993 -1.95206144824482  0.39877475337534
 6 -4.81638195719572  2.76578303000300  1.26478286418642
 6 -9.47120703040304  3.26768756795680 -0.11146961486149
 6 -9.78411646614661 -1.48753955735574 -0.95765831923192
 7 -5.11392055435544  0.47962958585859  0.81959039603960
 6 -4.46241485758576 -0.75577229822982  0.81983542694269
 6 -3.07290697719772 -0.54395082978298  1.35882087788779
 6 -3.09042400780078  1.02699159145915  1.75606471227123
 6 -4.41932112521252  1.42814263216322  1.35986958395840
 6 -2.93536210471047  1.14854236653665  3.28907677027703
 6 -2.00644271497150 -0.77074703640364  0.12879082468247
 6 -0.57598081028103 -0.78392660926093  0.64789724242424
 6  0.46811047244724 -1.05698257115712 -0.44203576117612
 8  0.07762953055306 -1.47935030163016 -1.57025063656366
 8  1.72131232833283 -0.70253702680268 -0.14500694339434
 7 -7.13372796739674  2.73200047184718  0.53780328952895
 6 -6.01321289668967  3.38351276957696  0.95659651655166
 6 -6.32316550225022  4.81395783528353  0.98426491929193
 6 -7.61168026482648  5.00175901140114  0.69688621602160
 6 -8.17056800270027  3.63555204890489  0.29821997739774
 6 -5.30116063256326  5.87795331043104  1.36914818081808
 6 -8.30947823052305  6.26981099269927  0.50992949424942
 6 -9.22513041124112  6.51613133503350 -0.43821630043004
 7 -9.25694389498950  0.89617685068507 -0.42990545894589
 6 -9.92726658955896  2.00364286298630 -0.46195546474647
 6 -11.26774064056406  1.73943750475048 -0.90191402530253
 6 -11.38406235673567  0.46730407050705 -1.25262021672167
 6 -10.06726895259526 -0.17584753645365 -0.85307855035504
 6 -12.37144564546455  2.78072657425743 -0.98728181848185
 6 -12.59765750525053 -0.27021950145014 -1.84960592029203
 6 -12.56054618531853 -0.23032629702970 -3.29038721002100
 7 -7.45906486408641 -1.25425711091109 -0.40174870337034
 6 -8.54529611711171 -2.07935666246625 -0.76604996739674
 6 -8.12352479147915 -3.42028891109111 -0.65235780308031
 6 -6.76451136023602 -3.37659448774877 -0.28355597949795
 6 -6.40803190659066 -2.05629844844484 -0.14054897869787
 6 -8.85252801040104 -4.61186193569357 -1.15412440684068
 6 -5.68650559575958 -4.31204623972397  0.03663460906091
 8 -5.63572306250625 -5.50499002910291  0.10286302040204
 6 -4.54232186078608 -3.35203596519652  0.56470553265327
 6 -3.95830962886289 -3.80814490799080  1.82260878657866
 8 -4.20918599209921 -3.25642357625763  2.84391245934593
 8 -3.07761644924492 -4.74034900780078  1.67509793769377
 6 -2.65210991479148 -5.41368081418142  2.85569770937094
 6  2.66877904650465 -0.98940283788379 -1.15237926372637
 6  4.01661490829083 -0.66150665306531 -0.48192029212921
 6  5.03587584418442  0.01825288018802 -1.06163011961196
 6  4.89571876757676  0.65152588428843 -2.46590370717072
 6  6.33347509270927  0.41918965816582 -0.39672858705871
 6  7.51867310771077 -0.47951413431343 -1.10246711361136
 6  8.78827042814281 -0.25818980408041 -0.35318366586659
 6  10.14162508820882 -0.75161948854885 -0.89463681848185
 6  10.11906794539454 -2.25755955885589 -1.01470075497550
 6  11.34685853605361 -0.26714102880288 -0.09156971267127
 6  12.73612528672867 -0.53628894609461 -0.61842636573657
 6  13.85575416481648  0.09058183198320  0.25627768326833
 6  15.20414932673267 -0.17999888138814 -0.40624418231823
 6  15.50149972177218 -1.64446331173117 -0.47539630793079
 6  16.27282802710271  0.43366788408841  0.41827084938494
 6  17.62680756955696  0.65826874457446 -0.12010591199120
 6  18.60104102840284  1.49390371927193  0.68300911711171
 6  20.05121702330233  1.62490029462946  0.11853358085809
 6  20.13862456135613  2.34464104020402 -1.30269834763476
 6  21.02865538683869  2.16458779757976  1.21171295949595
 1 -3.89582724302430  3.41220245224522  1.64954983588359
 1 -10.23604145724572  4.02456969906991 -0.13636495919592
 1 -10.74878913531353 -2.24071122662266 -0.95433490659066
 1 -2.85003733073307 -1.20442967816782  2.13251412711271
 1 -2.23637495199520  1.57723794699470  1.19481239343934
 1 -1.85082534053405  0.82777914631463  3.56549565356536
 1 -3.03868936083608  2.13265831553155  3.60765096029603
 1 -3.73352294919492  0.66397158165817  3.81618679487949
 1 -2.19545505390539 -1.62380711381138 -0.56859130633063
 1 -2.02125546494649  0.01761795279528 -0.62402909710971
 1 -0.34406022582258  0.15868972257226  1.28645900720072
 1 -0.37025736503650 -1.80708266686669  1.41786929532953
 1 -4.31826664316432  5.62172654075408  0.71523432323232
 1 -5.69249445584558  6.95176009070907  1.16780607520752
 1 -5.31065915271527  5.79470751475148  2.44708884288429
 1 -7.99098410781078  7.19019889438944  0.87945949984998
 1 -9.59160451235124  5.81794195469547 -1.18249983608361
 1 -9.57322206880688  7.56594532203220 -0.47485770867087
 1 -12.42236659865987  3.65403459065907 -0.15438325142514
 1 -12.26345019331933  3.27104106150615 -1.83719303610361
 1 -13.40498152095210  2.29106694239424 -1.06254060946095
 1 -12.47361973517352 -1.35099402610261 -1.64528928002800
 1 -13.55431245574557  0.31879603430343 -1.35258761756176
 1 -12.43723935383538  0.90548736183618 -3.87624496879688
 1 -11.75418038603860 -0.76467404100410 -3.90063901600160
 1 -13.49001575507551 -0.87991708650865 -3.86957449974998
 1 -9.53175972477248 -4.85873519331933 -0.48256055805581
 1 -9.29934391329133 -4.43642158815882 -2.18687558575858
 1 -8.13350852555256 -5.37484575157516 -1.16089404490449
 1 -3.69710156155616 -3.56070236043604 -0.14117546614661
 1 -2.05047544054406 -6.44198929462946  2.57940127422742
 1 -1.82185063146315 -4.72968645254525  3.43065750835084
 1 -3.57354037043704 -5.44674976657666  3.50126700230023
 1  2.54252816031603 -1.94311195469547 -1.46203737073707
 1  2.47399229372937 -0.35644322512251 -2.21739950715071
 1  4.06114888658866 -1.03767608190819  0.57789569256926
 1  5.40994282348235  1.52675518451845 -2.43126784658466
 1  5.23742035923592 -0.34029806730673 -3.23130453205321
 1  3.77927804600460  0.89534072087209 -2.40727155225523
 1  6.48426644284428  1.43861998699870 -0.39050924202420
 1  6.31173921862186  0.18844895529553  0.54943265066507
 1  7.21872865776578 -1.53141986658666 -1.23558431803180
 1  7.79108865136514 -0.14747272667267 -2.23305813481348
 1  8.73867935533553  0.92663150445045 -0.26523637533753
 1  8.46293935673567 -0.79953410491049  0.61089390179018
 1  10.18795146374637 -0.37328477177718 -2.05953052805280
 1  9.13737405360536 -2.48714740794079 -1.51550009780978
 1  11.00929596069607 -2.34369596939694 -1.63664426932693
 1  9.99067408750875 -2.77428911451145  0.04930666136614
 1  11.40530582798280  0.77608638873887  0.12995158035804
 1  11.24338030153015 -0.81405664216422  0.92033196339634
 1  12.79285399599960 -1.60736230743074 -0.81305451845185
 1  12.78337648984899  0.10378029902990 -1.55316685038504
 1  13.74358551345134  1.16566627742774  0.02523543444345
 1  13.61467569456946 -0.26153258105811  1.38077492339234
 1  15.26779912411241  0.38002920902090 -1.43712572587259
 1  14.79699525242524 -2.06194877667767 -1.33317265046505
 1  16.42069594309431 -1.98243227982798 -0.97658344224422
 1  15.50559583838384 -2.03417855045505  0.39387865926593
 1  15.94600487368737  1.33803037333733  0.69750020902090
 1  16.08860351715171 -0.05512488918892  1.50523394599460
 1  18.10414163586358 -0.26107031753175 -0.28365823362336
 1  17.46673125872587  1.20619250755075 -1.07134556705671
 1  18.10710540004001  2.54832122802280  0.91934732443244
 1  18.75572782698270  1.16499230873087  1.64385153515352
 1  20.56078241064106  0.63476143714371 -0.02600144394439
 1  19.67069442604260  3.35759402950295 -1.22622452485249
 1  21.14097134083408  2.56776484618462 -1.59237234383438
 1  19.73122809580958  1.87058267996800 -2.05712789428943
 1  21.29861509800980  1.30352182018202  2.04721575817582
 1  22.04515737293729  2.47722775017502  0.43866802390239
 1  20.53555318471847  3.13575677527753  1.86062480038004
 1 -7.34808664176418  1.72339121232123  0.60151199729973
 1 -7.61003255165516 -0.27891806780678 -0.56586671427143

