%nproc=3
%Mem=2GB
# td=(NStates=1) B3LYP/SVP 

TD

0 1
 6 -5.11657935603560 -2.02786902900290  0.43813868976898
 6 -4.86562688168817  2.68679513121312  1.34391077697770
 6 -9.36627653735373  3.38696949614961 -0.18593706160616
 6 -9.78295635013501 -1.47711851525153 -0.88496104950495
 7 -5.23480264256426  0.42041366426643  0.73378181518152
 6 -4.52345096119612 -0.82383910491049  0.84964840824082
 6 -3.08454814131413 -0.61621805650565  1.26421141694169
 6 -3.10711567696770  0.86188508080808  1.76518562436244
 6 -4.41736092919292  1.38301811971197  1.11184478147815
 6 -2.84108267676768  1.13539105140514  3.22900076267627
 6 -2.04036610731073 -0.88146810851085  0.00306825242524
 6 -0.52915612781278 -0.75614383098310  0.42975542824282
 6  0.40770443184318 -0.97021389428943 -0.74226578417842
 8  0.08030979857986 -1.66055842244224 -1.72324593609361
 8  1.60544074117412 -0.63830060316032 -0.36031847454745
 7 -7.11167576217622  2.76621389318932  0.45952546174617
 6 -6.01113268866887  3.35255967426743  0.95541639853985
 6 -6.23269645534553  4.76475291479148  0.94645113791379
 6 -7.50134923172317  4.94964379987999  0.52317884528453
 6 -8.10121106700670  3.66867536123612  0.21497165256526
 6 -5.28412892939294  5.83775929102910  1.30091135713571
 6 -8.23896117881788  6.24731874347435  0.35917441874187
 6 -9.18644654285428  6.56579630153015 -0.58389086788679
 7 -9.21150935153515  0.94197143014301 -0.48920138853885
 6 -9.98075193809381  2.09428192689269 -0.46378564776478
 6 -11.23524739123912  1.84414797579758 -0.96006984088409
 6 -11.46457040754075  0.46854419451945 -1.08782373707371
 6 -10.14214644034403 -0.04812476417642 -0.88229147164716
 6 -12.29035753665367  2.85737423902390 -1.04570766106611
 6 -12.66109384888489 -0.21007348684868 -1.59399035873587
 6 -12.71009113981398 -0.53104636903690 -3.13469164046405
 7 -7.42676163376338 -1.22546423162316 -0.11056958545855
 6 -8.57348893639364 -2.01455018181818 -0.47845120752075
 6 -8.27191963096310 -3.47043392559256 -0.44470703800380
 6 -6.88344325342534 -3.48431525982598 -0.19612723662366
 6 -6.39758086148615 -2.15380819941994  0.13859893609361
 6 -9.06442920052005 -4.55294604410441 -0.98690768516852
 6 -5.73920086528653 -4.31055609070907  0.01865281088109
 8 -5.63649313951395 -5.49256878697870  0.03153588768877
 6 -4.53340096869687 -3.32880364196420  0.50003906600660
 6 -3.88123192109211 -3.79087318081808  1.82348887458746
 8 -4.19069414291429 -3.33836177007701  2.92531059915992
 8 -3.07543623122312 -4.85522049494949  1.66026645454545
 6 -2.48747345114511 -5.49943939003900  2.73808594819482
 6  2.72666483508351 -0.86742063966397 -1.30572459825983
 6  4.02943619041904 -0.67954845724572 -0.63666576667667
 6  5.02595485208521  0.21322237713771 -1.08224218081808
 6  5.01106030173017  1.20237096879688 -2.24753186998700
 6  6.23331507670767  0.30635837503750 -0.25797471167117
 6  7.51854309470947 -0.19479566246625 -0.88266513341334
 6  8.77919952105210 -0.20920490559056 -0.10791913941394
 6  9.98069899559956 -0.67245157175718 -0.91937929272927
 6  9.99112515111511 -2.14277808070807 -1.28662794769477
 6  11.24065791599160 -0.38043235793579  0.05608505280528
 6  12.62579425362536 -0.68680399759976 -0.54723924702470
 6  13.80406899629963 -0.11298852505251  0.23632568806881
 6  15.20631954375438 -0.13454433593359 -0.43782734063406
 6  15.72068163996400 -1.60179904530453 -0.65627439573957
 6  16.33066381068107  0.59055357265727  0.42123114541454
 6  17.69632452125213  0.74818773647365 -0.33183708510851
 6  18.76804772907291  1.34621895079508  0.79636045224522
 6  20.20036193779378  1.51266907150715  0.26663839133913
 6  20.28142884178418  2.20244682078208 -1.08654673247325
 6  20.98080060136014  2.32697403620362  1.32550433863386
 1 -4.08358601890189  3.24732596459646  1.81534641554155
 1 -9.87873572667267  4.19739698179818 -0.33564488718872
 1 -10.74939919631963 -2.27456461196120 -0.92707218031803
 1 -3.07837016401640 -1.36526576177618  2.08768964466447
 1 -2.32148346284628  1.39513973717372  1.22885579777978
 1 -1.79353961196120  0.62575894429443  3.48942804680468
 1 -2.81830732263226  2.18164321402140  3.43665386058606
 1 -3.50171976887689  0.47979316381638  3.72590776697670
 1 -2.08473398179818 -1.87270200330033 -0.31146559375938
 1 -2.11872521192119 -0.20470427942794 -0.64857155135514
 1 -0.31767758755876  0.35716957055706  0.63062342364236
 1 -0.21294163346335 -1.47043900250025  1.23534104250425
 1 -4.13302811931193  5.83127749584958  0.66012881268127
 1 -5.51580678707871  6.99386430113011  1.07117641224122
 1 -4.74119220602060  5.97697574157416  2.29111324532453
 1 -7.87126213561356  6.87010688518852  0.96477803170317
 1 -9.57158251015101  5.99771993249325 -1.39697128322832
 1 -9.58352309890989  7.58383711121112 -0.63772399529953
 1 -12.36667102910291  3.57759694689469 -0.18473628672867
 1 -11.90075392369237  3.51151510891089 -1.85429474627463
 1 -13.26209723252325  2.39202703840384 -1.13579793519352
 1 -12.83821619481948 -1.17079600630063 -1.14061881298130
 1 -13.62923994849485  0.00956511121112 -1.36186854565457
 1 -12.73865949584958  0.26428324142414 -3.76167351165117
 1 -11.66891185918592 -0.78667624122412 -3.52768172027203
 1 -13.47346409990999 -1.22913200800080 -3.52092963526353
 1 -10.12334888368837 -4.74056337613762 -0.40832313431343
 1 -9.48021200010001 -4.33187113311331 -1.91622852105210
 1 -8.62065724042404 -5.49568783578358 -0.64002195769577
 1 -3.53301515291529 -3.70437672787279 -0.20020136873687
 1 -1.66265665866587 -6.13521861756176  2.19802313641364
 1 -2.18407685408541 -4.76528001190119  3.55131957455746
 1 -3.28376139253925 -6.15980107170717  3.13739061466147
 1  2.66815072257226 -1.90725836933693 -1.72089325632563
 1  2.46232112661266 -0.18208578937894 -2.18097586478648
 1  4.47918068976898 -1.38470078437844  0.10039794279428
 1  5.03844567376738  2.41044355335534 -1.86039075887589
 1  5.97768438563856  1.02866882938294 -2.85275667726773
 1  3.89799991819182  1.05129631643164 -2.83365419051905
 1  6.40363838003800  1.32867899289929  0.26579638853885
 1  6.01622966766677 -0.25473536313631  0.57740544794479
 1  7.31450823572357 -1.29771649624962 -1.36479723932393
 1  7.73872341484148  0.57001902250225 -1.84437926692669
 1  8.92176766416642  0.85326416771677  0.27404755305531
 1  8.75839890269027 -0.83481763326333  0.78557136953695
 1  10.03730639923992 -0.20372781608161 -1.91205578057806
 1  9.01886220242024 -2.40961965516552 -1.76096464426443
 1  10.78379341044104 -2.36562816261626 -2.10187079197920
 1  9.93066808690869 -2.98474015961596 -0.49655792509251
 1  11.22198749614962  0.66169494959496  0.14488307350735
 1  11.16199216271627 -1.01563680018002  0.99743967416742
 1  12.69062377297730 -1.74952652385239 -0.62311552455246
 1  12.48135628782878 -0.35669574857486 -1.55831736543654
 1  13.62035319021902  0.99189890069007  0.42849576047605
 1  13.99365359235924 -0.55818224602460  1.25164201010101
 1  15.18443078727873  0.32581378747875 -1.41117313061306
 1  15.03885943884388 -2.19001158295830 -1.30375970917092
 1  16.74783865736574 -1.69204324092409 -1.08256404030403
 1  15.51590686948695 -2.08613374597460  0.34891416281628
 1  15.84745501870187  1.60595716601660  0.59296975597560
 1  16.59585424222422  0.17795841914191  1.43271669426943
 1  18.10974219591959 -0.20187439793979 -0.81893176097610
 1  17.69259384498450  1.42551443974397 -1.20193862636264
 1  18.40416510601060  2.35356175207521  1.13034842454245
 1  18.56556881108111  0.89298510801080  1.79314646464646
 1  20.86171250365037  0.60023798479848  0.30962211841184
 1  19.82555991259126  3.28638690879088 -0.90861276367637
 1  21.40224746844684  2.54476254595460 -1.20308341494149
 1  19.98471344434443  1.65765138683868 -1.84277645914591
 1  21.02437767426743  1.72425389338934  2.18615965256526
 1  22.10948380558056  2.71488151555155  1.01689584668467
 1  20.27404703410341  3.20782398199820  1.48204694259426
 1 -7.02226405950595  1.75529440264026  0.12374422052205
 1 -7.50277182558256 -0.22427260326033  0.13892376477648

