%nproc=3
%Mem=2GB
# td=(NStates=1) B3LYP/SVP 

TD

0 1
 6 -5.19000669876988 -1.91950819291929  0.63306818271827
 6 -4.75582590159016  2.84316076777678  1.45976236213621
 6 -9.25117502720272  3.34144494369437 -0.30855932383238
 6 -9.74191224572457 -1.50122092549255 -0.87239979337934
 7 -5.15834499679968  0.48668029092909  0.87430586758676
 6 -4.47616623272327 -0.69118583958396  0.83514695809581
 6 -3.02741242774277 -0.49844627932793  1.29135413121312
 6 -3.02823778917892  0.90134902720272  1.83553265906591
 6 -4.38436762986299  1.42236205410541  1.36168976597660
 6 -3.06498506700670  0.92790030233023  3.39429729232923
 6 -2.01156322702270 -0.71155111681168  0.11730967656766
 6 -0.55482869506951 -0.80396861346135  0.53589604230423
 6  0.41318497989799 -1.08525539843984 -0.55819737733773
 8  0.15473724132413 -1.79218158475848 -1.57480109160916
 8  1.66141633873387 -0.89829660276028 -0.23139558225823
 7 -7.05661025562556  2.79713698549855  0.52980248944894
 6 -5.97553912931293  3.36552097039704  1.02094295119512
 6 -6.33692687838784  4.73902034153415  1.15326181898190
 6 -7.54618371517152  4.93200203570357  0.46227275467547
 6 -8.07242818871887  3.64488298199820  0.14709486488649
 6 -5.39896041254125  5.75945146024602  1.72679394539454
 6 -8.25536281898190  6.22617662926293  0.39476797809781
 6 -9.03884178237824  6.70139986188619 -0.66468894769477
 7 -9.27966616721672  0.88933616661666 -0.45380784918492
 6 -9.94616847974797  2.09134163286329 -0.49494876407641
 6 -11.27019088558856  1.92970653165317 -1.07231106500650
 6 -11.45303925442544  0.49345668576858 -1.22999795449545
 6 -10.15541776747675 -0.09489944164416 -0.85361860436044
 6 -12.12819132003200  3.09338784038404 -1.32118520882088
 6 -12.76106384588459 -0.18287076657666 -1.67027798749875
 6 -12.69508963966397 -0.30301356575658 -3.20791896319632
 7 -7.55840479807981 -1.15108679387939 -0.23301182968297
 6 -8.57900948844885 -2.06506523332333 -0.58182154455446
 6 -8.17686012501250 -3.39666654885489 -0.63016558385839
 6 -6.84632954205421 -3.36464329262926 -0.10511813571357
 6 -6.56538764216422 -2.00958377697770  0.22426750295030
 6 -8.94459721732173 -4.53380412991299 -1.13300229462946
 6 -5.75351229642964 -4.29998503360336  0.01027197279728
 8 -5.68725821602160 -5.47780731083108 -0.04728199409941
 6 -4.57013464206421 -3.28107886948695  0.50831989408941
 6 -3.92510630853085 -3.91548564206421  1.78151467716772
 8 -4.33407848134813 -3.64857279117912  2.89569763786379
 8 -2.95764445204520 -4.76746171907191  1.43990441834183
 6 -2.30116482028203 -5.37941738783878  2.53328546814681
 6  2.74826699529953 -1.20447434503450 -1.23589761556156
 6  4.01180442724272 -0.83290379277928 -0.61275337543754
 6  4.94279653625363 -0.12969191429143 -1.19939389598960
 6  4.94967416311631  0.35532626432643 -2.61460857765777
 6  6.20897264246425  0.10951869106911 -0.44400331453145
 6  7.58562980338034 -0.36073225612561 -0.95477234413441
 6  8.83838543964396 -0.07622160726073 -0.19624797229723
 6  10.08751967766777 -0.66343066966697 -0.82713006780678
 6  9.97712375097510 -2.27442124502450 -0.95529481438144
 6  11.35658950915091 -0.29822413711371  0.01440088438844
 6  12.67346902110211 -0.53751906910691 -0.66940146324632
 6  13.82620120952095 -0.00827805400540  0.32401445694569
 6  15.21298020982098 -0.12931381288129 -0.36954051195120
 6  15.75040461226122 -1.54454331973197 -0.48120688898890
 6  16.16487723202320  0.78729324662466  0.42886190849085
 6  17.68884377317732  0.71853477117712 -0.05606950835084
 6  18.56386731103110  1.73664799369937  0.57436825302530
 6  20.10973287488749  1.63743154775478  0.06930865836584
 6  20.31532223112311  2.07579415551555 -1.36153423122312
 6  20.88598111941194  2.55987732653265  1.13147493569357
 1 -4.20030769106911  3.47078831083108  2.06808168906891
 1 -9.94266211931193  4.24726196829683 -0.38322964566457
 1 -10.67860211661166 -2.03744089958996 -1.18564803790379
 1 -2.67576990399040 -1.14038327352735  2.09860073577358
 1 -2.04087540204020  1.55258548174817  1.76134904710471
 1 -2.16654691269127  0.59949631803180  3.72391149514952
 1 -3.10756624852485  1.84852990269027  3.81680187538754
 1 -3.83752334923492  0.32867805230523  3.66855203140314
 1 -2.22518802720272 -1.77752248534853 -0.47894234143414
 1 -2.19428276767677  0.04808099909991 -0.51572826702670
 1 -0.28013383318332  0.26448030163016  0.83944430573057
 1 -0.52364270357036 -1.34987694629463  1.47046455485548
 1 -4.44172898939894  6.00192456055606  1.16206900670067
 1 -6.12278748514851  6.66685159985999  2.11468076267627
 1 -4.80915900270027  5.67074511851185  2.55464959895990
 1 -8.05975098449845  6.94638451295129  1.12894444834483
 1 -9.40449580148015  6.06328648914891 -1.56863844994499
 1 -9.44794954155416  7.72819154665467 -0.57844806770677
 1 -12.52851721372137  3.50839002620262 -0.47527534063406
 1 -11.48594244254425  3.92515647304730 -1.95536485328533
 1 -13.00257127992799  2.68280611631163 -2.01836619201920
 1 -13.00846321952195 -0.98505743244324 -1.07081183228323
 1 -13.74669169366937  0.40186434113411 -1.19507186598660
 1 -12.47466309620962  0.68842565566557 -3.78813615791579
 1 -11.81473644164416 -1.02283985758576 -3.34311326342634
 1 -13.65701245474547 -0.61065015981598 -3.49212675497550
 1 -9.63189973877388 -5.06497581738174 -0.34133643564356
 1 -9.35897987688769 -4.42711065706571 -1.95060195839584
 1 -8.29307448214822 -5.45428369536954 -1.55011296679668
 1 -3.73692554395440 -3.42809910011001 -0.21764311291129
 1 -1.47153754675468 -6.01530662636264  2.31026436053605
 1 -1.89453790019002 -4.46227971187119  3.24260870347035
 1 -2.97944096049605 -5.96882197379738  3.16354322992299
 1  2.65215912341234 -2.38821646514652 -1.44814598159816
 1  2.54018891339134 -0.73928150895090 -2.21079884708471
 1  4.11412418411841 -1.31686400070007  0.39492739573957
 1  5.40788261746175  1.27920042904290 -2.63452817261726
 1  5.59672628982898 -0.24922896039604 -3.20506190779078
 1  3.94231434963496  0.36382756955696 -3.07132795789579
 1  6.08755677187719  1.31105723072307 -0.13590378147815
 1  6.08272631733173 -0.27207709730973  0.62066977437744
 1  7.34289107400740 -1.41794851945194 -1.07509826942694
 1  7.81438098059806 -0.09974795419542 -1.95591042004200
 1  8.88228371577158  0.96988582988299 -0.06441629332933
 1  8.64550761356136 -0.33582773427343  0.86552936533653
 1  10.01459412801280 -0.13822126542654 -1.85041961696170
 1  9.11575189138914 -2.53788248144814 -1.50994954275428
 1  10.97846287738774 -2.55269686948695 -1.43571417631763
 1  9.91767678777878 -2.85563724932493 -0.02199046834683
 1  11.27849314671467  0.80998977907791  0.24994357955796
 1  11.06615257875788 -0.77523275977598  1.10323025322532
 1  12.93325803640364 -1.51407297849785 -0.91428464146415
 1  12.73086123832383  0.01482140314031 -1.71822335603560
 1  13.53660481538154  1.02161187198720  0.64663757465747
 1  13.60590481748175 -0.33529995779578  1.36929377527753
 1  15.23225556975698  0.25087629372937 -1.49785179847985
 1  14.94319987288729 -2.30684326612661 -0.88022735593559
 1  16.73393726722672 -1.54290832743274 -1.05480126402640
 1  15.93909918871887 -1.98464359695970  0.50416968836884
 1  15.68901917511751  1.71948851915191  0.46630708970897
 1  16.23163782058206  0.42859348264826  1.43064648724873
 1  18.06770799249925 -0.33969818031803  0.35956608880888
 1  17.62969755535553  0.99756164446445 -1.17127556005601
 1  18.17158184768477  2.73809020492049  0.44648003770377
 1  18.36729898409841  1.56769257875788  1.63597074707471
 1  20.50103643604361  0.65782374337434  0.40189134533453
 1  20.22571992859286  3.19234750485048 -1.40145204760476
 1  21.35374261796180  1.61348941864186 -1.83752685928593
 1  19.74927990099010  1.80584620632063 -2.10052223372337
 1  20.75582081858186  2.08769023702370  2.22496353295330
 1  21.95685854305431  2.54070409780978  1.05653981108111
 1  20.65036466586659  3.59786298589859  1.40583932183218
 1 -7.21853368646865  1.75291416461646  0.30476232233223
 1 -7.66775832423242 -0.10710088608861 -0.05958608620862

