%nproc=3
%Mem=2GB
# td=(NStates=1) B3LYP/SVP 

TD

0 1
 6 -5.05244294239424 -1.91658790089009  0.49541441734173
 6 -4.77970828982898  2.74240069176918  1.43480986688669
 6 -9.34891480118012  3.29192999219922 -0.33607207510751
 6 -9.99441749624962 -1.53067387078708 -0.85281783518352
 7 -5.21758092039204  0.35864748764876  0.81674011101110
 6 -4.49598821492149 -0.68985570657066  0.78138158155816
 6 -3.05544523102310 -0.56368280298030  1.27552254805480
 6 -3.14170913631363  0.89280817311731  1.94846395219522
 6 -4.37428662176218  1.35236505440544  1.35230882788279
 6 -3.06748531703170  0.79877739003900  3.43925178777878
 6 -2.04495656635664 -0.76842680438044  0.08474642024202
 6 -0.62783599579958 -0.69909812641264  0.40053250595060
 6  0.42129579097910 -0.95534240714071 -0.65885744334433
 8  0.20373214081408 -1.25931829842984 -1.80604421592159
 8  1.61111130823082 -0.60153692679268 -0.20379282198220
 7 -6.99743433803380  2.68871614341434  0.44146365556556
 6 -5.94260583598360  3.35557997629763  0.99429028592859
 6 -6.28661184688469  4.78854529402940  1.02701919471947
 6 -7.60349944674467  4.98895773127313  0.53853038043804
 6 -8.04686563246325  3.64535302900290  0.09220937633763
 6 -5.20061057755776  5.83376889198920  1.51723298929893
 6 -8.19973725642564  6.31962597419742  0.30816931823182
 6 -9.17528542674267  6.56430615251525 -0.62671515031503
 7 -9.21400960156016  0.73390062306231 -0.62302477087709
 6 -9.76992085498550  1.99190168886889 -0.68564783398340
 6 -11.25168903540354  1.78849241024102 -0.98586242014201
 6 -11.41112506300630  0.41957929802980 -1.11905686038604
 6 -10.15091731743174 -0.22183213491349 -0.87010025252525
 6 -12.34426292719272  2.85132363396340 -1.17078016831683
 6 -12.74902264176418 -0.36859933943394 -1.50189114881488
 6 -12.87618774947495 -0.51597486188619 -3.07082525382538
 7 -7.42732168976898 -1.25577726292629 -0.36245477397740
 6 -8.59926151365137 -2.04340306710671 -0.63379674207421
 6 -8.17567000600060 -3.45689257145715 -0.60489305660566
 6 -6.85250015911591 -3.44432126042604 -0.20793841774177
 6 -6.35730683408341 -2.11884470307031 -0.03681860566057
 6 -8.99574233183318 -4.66646739623962 -1.02617161156116
 6 -5.67152409760976 -4.33304833993399  0.05301624722472
 8 -5.59682917311731 -5.50499002910291  0.01713444754475
 6 -4.44858248684868 -3.37418818041804  0.39050811291129
 6 -3.98132193009301 -3.86353044654465  1.72202872857286
 8 -4.18639371287129 -3.23174110801080  2.80394846294629
 8 -3.05192387998800 -4.81151612451245  1.60523095099510
 6 -2.65785048884888 -5.35576502260226  2.87666980658066
 6  2.67223939253925 -0.77498139573957 -1.13708773457346
 6  4.04034728152815 -0.61803230563056 -0.56002810291029
 6  5.02326458305831  0.28904995989599 -1.01889584618462
 6  4.95566476217622  1.16951768346835 -2.29985710251025
 6  6.22790453565356  0.34286202540254 -0.17936685088509
 6  7.54710595099510 -0.11813799669967 -0.80749761666167
 6  8.82260386148615 -0.16790077517752  0.02314396689669
 6  10.11074199989999 -0.68398272487249 -0.67155451025103
 6  10.06332237083708 -2.17950175307531 -0.98997828272827
 6  11.29092294249425 -0.13900821552155 -0.01759231493149
 6  12.63633530773077 -0.42667798499850 -0.80217474057406
 6  13.81869045844584 -0.04809203540354  0.19567162266227
 6  15.25239415121512 -0.17706858835884 -0.38137169506951
 6  15.57330690249025 -1.59987885328533 -0.51245001330133
 6  16.28354909920992  0.52574709200920  0.54743376567657
 6  17.63694858365837  0.52723564126413 -0.18180208160816
 6  18.71224214851485  1.35785011391139  0.65011582778278
 6  20.10752265386538  1.43142094669467  0.04180590809081
 6  20.19652035093509  2.18183475957596 -1.32519059685969
 6  21.04427694899490  1.95949728852885  1.02595438363836
 1 -3.87713537383738  3.39549078107811  1.72890777167717
 1 -10.16237409050905  3.93210045214521 -0.43728505120512
 1 -10.89498375477548 -2.23425058055806 -0.92490196329633
 1 -2.76723905090509 -1.45621485668567  1.84133500920092
 1 -2.24184549904991  1.63771399459946  1.69186209840984
 1 -2.20788104610461  0.26810317871787  3.61917102110211
 1 -2.97698319021902  1.70822587228723  3.79425962116212
 1 -3.82143174007401  0.15644082858286  3.80354553075307
 1 -2.18380388878888 -1.73206793989399 -0.54008845604560
 1 -2.31980531993199  0.05229142014201 -0.53077977217722
 1 -0.27486330613061  0.20048390199020  0.98364872617262
 1 -0.44657499679968 -1.52132409100910  1.15698320672067
 1 -4.56696151265126  5.82233660176018  0.63041584138414
 1 -5.56452165856586  6.77430234493449  1.65317461206121
 1 -4.73276136293629  5.42466051005101  2.28974310831083
 1 -7.70884589398940  7.17298717321732  1.00549210311031
 1 -9.50819617151715  6.00233039353935 -1.57253883998400
 1 -9.36736148274827  7.62933166066607 -0.66053627652765
 1 -12.46696105810581  3.53928311551155 -0.17437525062506
 1 -12.38073192149215  3.63885784318432 -2.07956727352735
 1 -13.29417043984398  2.21125896159616 -1.30150450585058
 1 -12.88805117831783 -1.35258418511851 -1.08275302640264
 1 -13.63297032153215  0.12410656535654 -1.02755511431143
 1 -13.23766939683968  0.54910172327233 -3.57406475077508
 1 -12.01428639663966 -1.06411398499850 -3.63913286538654
 1 -13.66831358485849 -1.24768386318632 -3.26485402770277
 1 -9.90862741154115 -4.86716603640364 -0.28047034903490
 1 -9.39621360026002 -4.56816476247625 -2.01015791399140
 1 -8.49458463316332 -5.61058932593259 -1.01951990749075
 1 -3.87626947834783 -3.48193448364836 -0.57264861346135
 1 -1.96089648264827 -6.16905200090009  2.71942527662766
 1 -2.43283172957296 -4.32713619751975  3.51154559715972
 1 -3.33183620002000 -5.79527461906191  3.49868674427443
 1  2.62287619511951 -1.77629527302730 -1.53090425742574
 1  2.78868376287629 -0.17903548434844 -1.99730749794980
 1  4.27560033173317 -0.98183049734973  0.39570747374737
 1  5.64376620582058  2.16434894389439 -1.96175089488949
 1  5.48128474567457  0.65298126062606 -3.14407580918092
 1  3.87576769496950  1.28502968976898 -2.64667549264926
 1  6.38557657385739  1.34159028402840  0.27306711561156
 1  6.39296734143414 -0.56005589518952  0.75010271767177
 1  7.37706449134913 -1.19772649724972 -1.29964072367237
 1  7.70758030053005  0.62984500510051 -1.88675350435043
 1  9.05980146754675  0.85809465076508  0.12824297259726
 1  8.77249031183118 -0.64093824532453  1.02450526292629
 1  10.07369003760376 -0.02520996429643 -1.55310988598860
 1  9.12455277147715 -2.34312300550055 -1.42974152195220
 1  10.94212924402440 -2.51744334413441 -1.63810441534153
 1  10.29898491859186 -2.73169485508551  0.18151988268827
 1  11.30846614401440  0.95745452555256  0.14801338653865
 1  11.17094305780578 -0.57331256775678  1.04340427062706
 1  12.66746145674568 -1.48541011221122 -0.85201841484148
 1  12.48221637383738 -0.06872695169517 -1.89292082578258
 1  13.60145130003000  1.04505421622162  0.68257116801680
 1  13.61490571757176 -0.57453388118812  0.98490533643364
 1  15.18276062026203  0.26837804390439 -1.46413842714271
 1  14.85412096499650 -2.20345292709271 -1.12085141834183
 1  16.31278515201520 -2.10693473007301 -0.98677446134613
 1  15.63311859065907 -2.20124525712571  0.41632090349035
 1  15.95256552975298  1.60515708600860  0.83126358535854
 1  16.45485014181418  0.12070269356936  1.60515393799380
 1  18.17553877557756 -0.45407961846185 -0.33913378117812
 1  17.84708929452945  1.02067395569557 -1.27788622112211
 1  18.30343503300330  2.43088948484848  0.77334272397240
 1  18.69231148534854  0.88816462596260  1.75857300730073
 1  20.46336266866687  0.35179314031403 -0.25186403020302
 1  20.11174853145315  3.22476074617462 -1.40913281568157
 1  21.00996824052405  2.41112918261826 -1.70288339493949
 1  19.57717269026903  1.67461308300830 -2.06190837233723
 1  21.10063530003000  1.52165363336334  1.84063510011001
 1  22.10911376857686  1.92019204660466  0.53039719681968
 1  20.74656428582858  3.05526872647265  1.18431716961696
 1 -7.05167700080008  1.72897177037704  0.21601344744474
 1 -7.50120166856686 -0.34165434143414 -0.20764089168917

