%nproc=3
%Mem=2GB
# td=(NStates=1) B3LYP/SVP 

TD

0 1
 6 -5.18916661476148 -1.91005724782478  0.52079695559556
 6 -4.66363668266827  2.78914536623662  1.37403378927893
 6 -9.34042395209521  3.37942874207421 -0.18654712261226
 6 -9.72672072657266 -1.44919572297230 -0.95291784518452
 7 -5.09726888918892  0.37444906780678  0.82871130813081
 6 -4.50872948904891 -0.74705142614261  0.81678512191219
 6 -3.05756544304430 -0.65443187788779  1.10641563736374
 6 -2.94072903830383  0.83230212251225  1.87093619941994
 6 -4.35246443954395  1.39946976487649  1.39014261126113
 6 -2.82977154565457  0.76323383568357  3.33956181878188
 6 -2.08070014071407 -0.70027998969897 -0.10940299469947
 6 -0.61884509670967 -0.66305452205221  0.37738019071907
 6  0.33870753215322 -1.06786365926593 -0.74849640724072
 8  0.03523529112911 -1.57141950855086 -1.84290790229023
 8  1.58781897899790 -0.82997977107711 -0.38981142384238
 7 -7.05206980158016  2.78182545434543  0.56664617381738
 6 -5.88419999539954  3.42337675597560  0.93838469536954
 6 -6.27558074377438  4.78942538203820  1.04769126192619
 6 -7.56212530933093  5.03971280678068  0.61813834123412
 6 -8.07343828972897  3.67786628032803  0.34147430283028
 6 -5.18564908140814  5.75164067916792  1.40539180518052
 6 -8.14293157585758  6.30966497809781  0.52851135243524
 6 -8.85594349254925  6.64753447534753 -0.49144162296230
 7 -9.15720392099210  0.85994322732273 -0.39127159555956
 6 -9.80289415231523  2.04802730143014 -0.60057932713271
 6 -11.21860572707271  1.93436699769977 -1.08745257915792
 6 -11.37198114861486  0.54860220032003 -1.23608856355636
 6 -10.10267249294929 -0.07824777647765 -0.91766500900090
 6 -12.26756525742574  2.97235573717372 -1.19633272357236
 6 -12.57016475597560 -0.18844132363236 -1.78187914761476
 6 -12.36645677637764 -0.64209747414741 -3.27026519781978
 7 -7.53035199279928 -1.23051473667367 -0.19939846834683
 6 -8.61647323482348 -2.00275900270027 -0.55526888928893
 6 -8.29818225722572 -3.37246412861286 -0.42186475377538
 6 -6.89009391849185 -3.37940476877688 -0.14528215211521
 6 -6.47515861926193 -2.10962378097810  0.06979205540554
 6 -9.22487524512451 -4.54947569706971 -0.77389638403840
 6 -5.84100104530453 -4.29958499359936  0.14301524712471
 8 -5.81113060326033 -5.47936746684668  0.25511824592459
 6 -4.61339896849685 -3.34445520712071  0.54377343944394
 6 -3.94774857275728 -3.79817391089109  1.92353887958796
 8 -4.19467454095409 -3.30441837573757  2.96787485558556
 8 -3.13022170977098 -4.78193316621662  1.64469489738974
 6 -2.46299100290029 -5.41942138823882  2.78376051565157
 6  2.66710887948795 -1.29397329492949 -1.24693871967197
 6  4.04936818361836 -0.90985148754876 -0.73312541264126
 6  4.98227048364836 -0.04270321542154 -1.13578753535354
 6  4.88857805350535  0.74682541424142 -2.43822093889389
 6  6.22439418461846  0.25782352155216 -0.44508342254225
 6  7.47575881628163 -0.39000518341834 -1.04539140604060
 6  8.71677327842784 -0.27206119121912 -0.27458580608061
 6  10.06314724042404 -0.75389971657166 -0.97137449224922
 6  9.91482752135214 -2.25708951185119 -1.20142942784278
 6  11.27429127932793 -0.37758207290729 -0.11584213991399
 6  12.63725539973997 -0.56051136833683 -0.73544806790679
 6  13.77475606500650  0.08099087288729  0.12086414191419
 6  15.21114002580258  0.01356047454745 -0.53203676157616
 6  15.65461503330333 -1.48253711911191 -0.69514828312831
 6  16.21371211551155  0.60590510781078  0.32356137843784
 6  17.66957184598460  0.78336125382538 -0.18058195959596
 6  18.58266919121912  1.58017234613461  0.76659747594759
 6  20.10760266186618  1.78787659225923  0.37140886838684
 6  20.33394409330933  2.46333290939094 -0.98001607940794
 6  20.93822634393440  2.33227456625663  1.59254104230423
 1 -3.84284194449445  3.59660089208921  1.88699358025803
 1 -10.00129798289829  4.30234747684769 -0.35653697639764
 1 -10.37765202160216 -2.18938609410941 -1.43084255735574
 1 -2.70679300630063 -1.54482371757176  1.80688156385639
 1 -2.31265257975798  1.46020624382438  1.30197310951095
 1 -1.88499875787579  0.36574294269427  3.77896700070007
 1 -3.11674716661666  1.58612366206621  3.75043523872387
 1 -3.45876547344734 -0.07337215271527  3.65526070227023
 1 -2.29373488188819 -1.91473620672067 -0.63508795599560
 1 -2.43290663006301  0.10789698069807 -0.59828652285228
 1 -0.30491631143114  0.30342419601960  0.87217757905791
 1 -0.55598593789379 -1.44170612921292  1.17652516091609
 1 -4.34718953545355  5.90379474757476  0.64134693449345
 1 -5.62686789318932  6.68088300300030  1.95508480308031
 1 -4.37071515831583  5.58156620062006  2.18723285728573
 1 -7.71758676807681  7.14099397389739  1.18552010591059
 1 -9.03133848574858  5.91325148564857 -1.35912749884988
 1 -9.71611635823582  7.45128385588559 -0.65089531243124
 1 -12.62130649264927  3.58504769196920 -0.09931774487449
 1 -12.00873472177218  3.82144610201020 -1.89917923472347
 1 -13.19328035083508  2.43428126382638 -1.48123247864787
 1 -12.71119349254925 -0.93541246794680 -1.25718046914692
 1 -13.56008303280328  0.39836399109911 -1.64446680548055
 1 -12.12576820672067  0.14839165226523 -3.98476582088209
 1 -11.48203317131713 -1.18963653725373 -3.32793174527453
 1 -13.43498025152515 -1.10079917471747 -3.76669421172117
 1 -10.09869641844185 -4.94275359515952  0.16521421942194
 1 -9.64107808670867 -4.46095404140414 -1.83553045124512
 1 -8.48720389508951 -5.53812207920792 -0.81400935643564
 1 -3.74322617401740 -3.40448673887389 -0.11443279187919
 1 -2.01557195019502 -6.46624171987199  2.54041737583758
 1 -1.76549499589959 -4.75007849174918  3.23231767436744
 1 -3.19763277967797 -5.74711980358036  3.55566244184418
 1  2.59194310181018 -2.43068071157116 -1.26080724772477
 1  2.51923681818182 -1.01954953575358 -2.19816758395840
 1  4.29370214191419 -1.55557787208721  0.08066596959696
 1  4.86309813901390  1.78845135413541 -2.31659637943794
 1  5.69444606180618  0.53604956745675 -3.20482188378838
 1  4.01397151535154  0.51611279807981 -2.90051087618762
 1  6.42990100630063  1.17781390639064 -0.25918610971097
 1  6.27720576527653 -0.00487037663766  0.66731443884388
 1  7.25101188608861 -1.50099682428243 -1.11729248884888
 1  7.67479702220222 -0.01403938333833 -2.13469829882988
 1  8.74354984238424  1.09115795709571 -0.10458030973097
 1  8.53876693949395 -0.77619177067707  0.71001381378138
 1  10.03514618321832 -0.21488893219322 -1.96055063006301
 1  8.86068638483848 -2.39467816101610 -1.76229477727773
 1  10.75443047414741 -2.93787538733873 -2.07913851875188
 1  10.18229324942494 -3.03878556415642 -0.30921919121912
 1  11.00336563396340  0.83459223932393  0.13510209540954
 1  11.31553751725173 -0.92525776227623  0.71060099029903
 1  12.73790850145014 -1.64110568176818 -0.92297551055105
 1  12.61359951215121 -0.05662574157416 -1.63958549224922
 1  13.59564071897190  1.17595730653065  0.20164307520752
 1  13.73941816881688 -0.65502192999300  1.06383322922292
 1  15.17014935913591  0.51964317041704 -1.56654866816682
 1  14.87568312121212 -2.04912749454946 -1.19259859305931
 1  16.76923079657966 -1.95064910151015 -0.97336312021202
 1  15.52998827762776 -1.89339447204720  0.31405067646765
 1  15.89472974617462  1.60794736503650  0.46536699569957
 1  16.24974963176318  0.05453607690769  1.41199462206221
 1  18.03801502320232 -0.11534574507451 -0.32432230003000
 1  17.45907049264926  1.38831071937194 -1.07056548904890
 1  18.05926061556156  2.54831122702270  1.04183957365737
 1  18.55079733393340  1.15362117161716  1.86967411741174
 1  20.36575290769077  0.72267022802280  0.20560171637164
 1  20.07272462906291  3.54209247934794 -0.60936283868387
 1  21.36043328702870  2.56054412411241 -1.23209631623162
 1  19.81037601060106  1.91799742144214 -1.90678285978598
 1  20.69231446794680  1.63933540154015  2.47003804040404
 1  22.10778363556356  2.48838886628663  1.37115127222722
 1  20.55548517791779  3.33598679827983  1.99144788268827
 1 -7.24402623572357  1.69937881108111  0.41978382448245
 1 -7.45299684808481 -0.29514969096910 -0.23484361196120

