%nproc=3
%Mem=2GB
# td=(NStates=1) B3LYP/SVP 

TD

0 1
 6 -5.02772047014702 -1.93594983708371  0.47732260816082
 6 -4.79854017301730  2.79873632533253  1.32642902880288
 6 -9.42265217491749  3.34070486968697 -0.25206367426743
 6 -9.85540359485949 -1.52212301570157 -0.89944249764977
 7 -5.10415957825783  0.44646626952695  0.72726116311631
 6 -4.43180179627963 -0.77852457345735  0.78247169056906
 6 -3.06970665716572 -0.52570900560056  1.21918691449145
 6 -3.00616558195820  0.89881877417742  1.78876798259826
 6 -4.48191738483848  1.39979979787979  1.25310890789079
 6 -2.93821238973897  1.03784129642964  3.43788165076508
 6 -2.11904397509751 -0.67108707040704 -0.02323437783778
 6 -0.69138235043504 -0.70231844844484  0.33223567626763
 6  0.31881554295430 -0.96037291019102 -0.71419297689769
 8  0.04650641824182 -1.23674604120412 -1.85031864336434
 8  1.57256745384538 -0.72324909800980 -0.28315075777578
 7 -7.08784337893789  2.77470474227423  0.44540404960496
 6 -6.02861443684368  3.34489890819082  0.97319817671767
 6 -6.38528171387139  4.85500193969397  1.09276576937694
 6 -7.63921301810181  4.98543737923792  0.60501702910291
 6 -8.07440838673867  3.67567606130613  0.11399155455546
 6 -5.41411192769277  5.92963847894789  1.50655192119212
 6 -8.26815409810981  6.18927293889389  0.23804230553055
 6 -9.26675457365736  6.53611333323332 -0.65204768356836
 7 -9.22816101670167  0.87520475347535 -0.46969943834383
 6 -9.91968583148315  2.04018651735174 -0.50836010521052
 6 -11.28323218971897  1.83236679767977 -0.93799763366337
 6 -11.49093304380438  0.40740808090809 -1.04805976067607
 6 -10.16968919461946 -0.12839279097910 -0.80677391989199
 6 -12.40967946884689  2.85364386598660 -1.20061315161516
 6 -12.59779751925192 -0.34854733423342 -1.60761172087209
 6 -12.71622175287529 -0.42494575897590 -3.04101227252725
 7 -7.53969292689269 -1.33559524472447 -0.23855238373837
 6 -8.58006959445945 -2.11404013081308 -0.66042940534053
 6 -8.18914135313531 -3.47729461166117 -0.45309787708771
 6 -6.82884779387939 -3.37779460776078 -0.04665228912891
 6 -6.43154425782578 -2.07641045964596  0.10808588478848
 6 -9.07313007060706 -4.68831958145815 -0.95689468386839
 6 -5.64058100330033 -4.24701973707371  0.15716666226623
 8 -5.58660815101510 -5.46577610771077  0.16113884798480
 6 -4.42670029862986 -3.37321808340834  0.40402946504650
 6 -3.78985278317832 -3.77367146064606  1.69766629232923
 8 -4.03356843034303 -3.26636457035704  2.79647771587159
 8 -2.92416110371037 -4.81493646654665  1.48048847674767
 6 -2.35351005480548 -5.35809525562556  2.66092823242324
 6  2.69105127372737 -0.92318621622162 -1.29060308610861
 6  3.97679092589259 -0.77070757315732 -0.61340344044404
 6  4.93051530813081  0.19660071497150 -0.96713066966697
 6  4.95686488218822  1.07099783148315 -2.16885400220022
 6  6.22942468766877  0.14979271847185 -0.13129204340434
 6  7.55828706910691 -0.38013419631963 -0.96270313721372
 6  8.71166276737674 -0.24420840594059 -0.09727807530753
 6  10.09648057375738 -0.64904923152315 -0.78602595739574
 6  10.01660769936994 -2.12947675057506 -1.22772205710571
 6  11.37253110331033 -0.31040535523552  0.02790223452345
 6  12.77080875507551 -0.61803712091209 -0.73594811791179
 6  13.84933352275227 -0.13115034123412  0.28550060556056
 6  15.29397830963096 -0.28938982048205 -0.31766532443244
 6  15.68420799259926 -1.62786165156516 -0.64977374567457
 6  16.35594633893389  0.42699721702170  0.57224624692469
 6  17.77394228302830  0.57803072077208 -0.04474837623762
 6  18.73335425972597  1.46218054695470  0.72411322752275
 6  20.10841274287429  1.54191199579958  0.13261498899890
 6  20.10952165106511  2.22491906800680 -1.25005308310831
 6  21.09489201050105  2.28264960376038  1.17662945114511
 1 -3.95098275857586  3.37202843484348  1.96982186308631
 1 -10.11048890199020  4.08236547864786 -0.34314563726373
 1 -10.61320557695770 -2.30435759125913 -1.54782425552555
 1 -2.60003233023302 -1.34841407660766  1.86984786048605
 1 -2.33590490499050  1.61391161436144  1.25785869806981
 1 -1.86789704770477  0.62414878327833  3.68078718271827
 1 -3.12172766466647  2.01012606230623  3.80589078427843
 1 -3.74581417831783  0.52708789328933  3.84875005120512
 1 -2.28789429782978 -1.59559429252925 -0.51313576077608
 1 -2.46819015841584 -0.01490529952995 -0.75476217041704
 1 -0.44110993079308  0.20745459905991  0.94677503880388
 1 -0.48071841114111 -1.66307826642664  0.89722723112311
 1 -4.84773959045905  6.06457082518252  0.77264006380638
 1 -5.91754696109611  6.74900981568157  1.58953824842484
 1 -4.86888497529753  5.56931497549755  2.43199733373337
 1 -8.04044905430543  6.96729660416042  0.97302885678568
 1 -9.52093744564456  5.79128928942894 -1.40578216431643
 1 -9.67458220482048  7.47233596109611 -0.85478570147015
 1 -12.15992035403540  3.56114530173017 -0.47108492159216
 1 -12.23105695399540  3.16333029042904 -2.45112442924292
 1 -13.36304732753275  2.36180401610161 -1.13739809520952
 1 -12.67200957415742 -1.33854278097810 -1.15619037013701
 1 -13.43545056955696  0.30211436613661 -1.18438079687969
 1 -12.74441007090709  0.70056686978698 -3.30328767306731
 1 -11.67275224322432 -0.73021059465947 -3.63469242134213
 1 -13.49483623712371 -1.13440253505351 -3.29964750705071
 1 -9.72043859265927 -5.06232555235524 -0.02733503550355
 1 -9.56946092499250 -4.45582352835283 -1.79055595379538
 1 -8.40781595629563 -5.49923819081908 -1.19817777327733
 1 -3.70320217161716 -3.50114640484048 -0.37746909550955
 1 -1.23789418241824 -5.87453254895490  2.20987432153215
 1 -2.35627407380738 -4.32032551645165  3.45534997759776
 1 -3.00764378077808 -6.29315440704070  3.16313318891889
 1  2.47768167566757 -2.05309295279528 -1.81729289628963
 1  2.65651054555456 -0.21745932673267 -2.17586535373537
 1  4.05242801450145 -1.39574188848885  0.27079498249825
 1  5.08908073727373  2.31849435843584 -1.98292301210121
 1  5.84067068426843  0.70999696219622 -2.85006640824082
 1  3.91025114331433  1.10844203100310 -2.58634946004601
 1  6.41742975917592  1.19084520952095  0.29975978487849
 1  6.27757580228023 -0.52356224582458  0.85213292069207
 1  7.46370315521552 -1.67948467306731 -1.35420618021802
 1  7.56242578507851  0.29893191379138 -1.91900672967297
 1  8.97026251365136  0.77181602290229  0.43910405870587
 1  8.50919398219822 -0.98936308780878  0.96647946034603
 1  10.15824849344934 -0.08902634593459 -1.76997157215722
 1  9.26265658185819 -2.40049874307431 -1.75218376617662
 1  10.97420245134513 -2.38647024682468 -1.62555316021602
 1  9.99842486258626 -2.81532321792179 -0.27089535883588
 1  11.16200149754976  0.79078785888589  0.19707829302930
 1  11.57091305480548 -0.78195343184318  0.93463339353935
 1  12.70416512711271 -1.66547811901190 -0.75096830983098
 1  12.72527067926793 -0.19522960196020 -1.75462699639964
 1  13.52411356625663  0.92844255505551  0.59531244214421
 1  13.53754798179818 -0.65683211101110  1.17857470337034
 1  15.20700304450445  0.62999420552055 -1.16307832113211
 1  14.95012056495650 -1.97156973877388 -1.57390672387239
 1  16.57140101360136 -1.72417645424542 -1.24618040194019
 1  15.61715699449945 -2.21073620622062  0.21404067546755
 1  15.96101637483748  1.46228279857986  0.76524698369837
 1  16.69285394219422 -0.10182955965597  1.52543596619662
 1  18.20184140584058 -0.40802501300130 -0.28388825662566
 1  17.32621720732073  1.23577546584658 -0.84937336983698
 1  18.30796548604861  2.52320871677168  0.62152754245425
 1  19.07192944714471  1.07647345684568  1.76496364636464
 1  20.26903323572357  0.36623458445845 -0.02678152195220
 1  19.82053941054106  3.26822509260926 -1.33142504490449
 1  21.14671191489149  2.26608467816782 -1.65806891349135
 1  19.43961893489349  1.45924154585458 -1.83304548604860
 1  21.12742797929793  1.96839830783078  2.27448848544854
 1  22.15769862706271  2.41709173657366  0.65438959605961
 1  20.56788641804181  3.35468866846685  1.23518225612561
 1 -7.26242807590759  1.85517439063906  0.08521036713671
 1 -7.46113766216622 -0.24541471747175 -0.23629375697570

