%nproc=3
%Mem=2GB
# td=(NStates=1) B3LYP/SVP 

TD

0 1
 6 -5.02319001710171 -1.84134037613761  0.43853872977298
 6 -4.88814913391339  2.83686013771377  1.25700208610861
 6 -9.43594350405040  3.32829362856286 -0.04642311021102
 6 -9.78824687918792 -1.45568637203720 -0.92269482288229
 7 -5.37125628792879  0.53374499739974  0.76128456545655
 6 -4.45045366146615 -0.64179090009001  0.80221366476648
 6 -2.99960964746475 -0.34228066276628  1.22921791759176
 6 -3.06643160856086  1.01007990029003  1.57767687348735
 6 -4.38687788088809  1.45555537343734  1.10299389638964
 6 -2.83411197969797  1.30236774907491  3.10083794639464
 6 -2.06200827152715 -0.77672763446345  0.08707665326533
 6 -0.50741395359536 -0.66161437803780  0.55001745444544
 6  0.42589625102510 -1.07019389228923 -0.54944650225023
 8  0.21221298889889 -1.58895126172617 -1.57316092759276
 8  1.69989018611861 -0.87015378847885 -0.09152159485949
 7 -7.10918551315132  2.79407667946795  0.51594110331033
 6 -6.02025360076008  3.44543896219622  0.96430728762876
 6 -6.36702988868887  4.85118155765577  1.00416690949095
 6 -7.69644874167417  4.96382521802180  0.64768129552955
 6 -8.22219316521652  3.64805329902990  0.34768492389239
 6 -5.52336285278528  6.01444695979598  1.39555082108211
 6 -8.37201448414841  6.15686969856986  0.45935443674367
 6 -9.40918881708171  6.53932365426543 -0.46218869766977
 7 -9.24077227782778  0.94530176317632 -0.42031449984999
 6 -9.98420228312831  2.06243874257426 -0.44012328152815
 6 -11.38745261176118  1.81352491349135 -0.78118195209521
 6 -11.46830078057806  0.42011935203520 -0.96741169586959
 6 -10.12872509820982 -0.12503245494549 -0.76082932543254
 6 -12.43105160606061  2.83119162076208 -1.07255034533453
 6 -12.61355909540954 -0.36395887538754 -1.49997095679568
 6 -12.67094722542254 -0.46461972637264 -3.02232040334033
 7 -7.36806576417642 -1.24009569476948 -0.31058958745875
 6 -8.49074066156616 -2.03235196199620 -0.78979234163416
 6 -8.02682512151215 -3.32378926112611 -0.77069963726373
 6 -6.73280818991899 -3.36800362866287 -0.37246487038704
 6 -6.33045414881488 -2.03208602720272 -0.04868979277928
 6 -8.89751250885088 -4.61448219771977 -1.10149914431443
 6 -5.63191013621362 -4.22718775387539 -0.09498855325533
 8 -5.61253074327433 -5.41087061716172 -0.28607587348735
 6 -4.46110373897390 -3.30943170477048  0.35451451355136
 6 -3.87226102400240 -3.81824591809181  1.61926845254525
 8 -4.03070814431443 -3.40657859175918  2.74524259235924
 8 -3.02679136673667 -4.84422939583958  1.37176760466047
 6 -2.38916362016202 -5.43126257235724  2.57655979557956
 6  2.82586475507551 -1.34972887048705 -1.03036706250625
 6  4.14926817361736 -0.93804430683068 -0.45351745184518
 6  4.92261451805181  0.07494854975498 -1.00973493009301
 6  4.64818401410141  0.75022575427543 -2.26229334613461
 6  6.27985973117312  0.30261800100010 -0.30122903710371
 6  7.52327356775678 -0.38825500840084 -0.90085695259526
 6  8.77520912201220 -0.25718970407041 -0.08909725722572
 6  10.08839976567657 -0.70601492809281 -0.63901125592559
 6  10.09235527412741 -2.25555935883588 -0.77142642754275
 6  11.34461831203120 -0.23062737743774  0.15950539483948
 6  12.66981865606561 -0.55152046924692 -0.43875839893989
 6  13.83205179457946  0.09446222002200  0.33019507500750
 6  15.18955786758676 -0.31839272077208 -0.26963052095210
 6  15.61996156795679 -1.81190005540554 -0.20795956425643
 6  16.30260100440044  0.61614613191319  0.46249527182718
 6  17.66504139293929  0.58066098379838 -0.09993389478948
 6  18.74324524882488  1.53037736663666  0.58430924712471
 6  20.18159006060606  1.61674947954795 -0.04842311481148
 6  20.23089378827883  1.86793336943694 -1.54383246104610
 6  20.96760928222822  2.56504784358436  0.80923271147115
 1 -4.01219888018802  3.58922015401540  1.64484936583658
 1 -10.20637849094910  4.07812505460546 -0.12359368206821
 1 -10.70025428182818 -2.10688784428443 -1.26036550965096
 1 -2.92071439843984 -0.93333256845685  2.25167604330433
 1 -2.20038135263526  1.37333755695570  0.92251516371637
 1 -1.79900015801580  1.01858822722272  3.28511761576158
 1 -2.85206069796980  2.41283633333333  3.21508170337034
 1 -3.45787538443844  1.01406659115912  3.57294247044704
 1 -2.30857636603660 -1.75671040414041 -0.33700814801480
 1 -2.35613895329533  0.01061725272527 -0.63256995119512
 1 -0.44411023082308  0.23146700030003  0.98347870917092
 1 -0.32788312761276 -1.41317327592759  1.43455096349635
 1 -4.56622143864386  6.02404677277728  0.69526232603260
 1 -6.01416662306231  6.98598351305131  1.42169146374637
 1 -5.02674076087609  5.76717476147615  2.29455358935894
 1 -8.29839484888489  6.81469134363436  1.38745029892989
 1 -9.62807815971597  6.14223438393839 -1.36076766286629
 1 -10.15814056065607  7.41622034953495 -0.29384960786079
 1 -12.70253461546155  3.27125631283128 -0.14600241334133
 1 -12.21880572887289  3.44231818921892 -1.86328564536454
 1 -13.50312133493349  2.32829066476648 -1.34983933933393
 1 -12.78656102930293 -1.30628955565557 -1.04293904500450
 1 -13.55447247174718  0.14555871057106 -1.24582694149415
 1 -12.75378100800080  0.54528134123412 -3.55241258555856
 1 -11.77789275727573 -1.04649222282228 -3.22985193729373
 1 -13.56193294679468 -0.99578867366737 -3.21303884618462
 1 -9.58419496829683 -4.66123544334433 -0.51312361436144
 1 -9.39555353425343 -4.39503744974497 -2.10231712991299
 1 -8.29679485418542 -5.53624189118912 -1.19679763526353
 1 -3.55083693509351 -3.72496878707871 -0.47205855445545
 1 -1.58760915391539 -6.18051314701470  2.13799713381338
 1 -1.87509595599560 -4.89982346624662  3.12541698429843
 1 -3.04798781518152 -5.89679477107711  3.25409228482848
 1  2.73712762026203 -2.54449209270927 -1.02060322732273
 1  2.46064095859586 -1.02486006680668 -2.15991375857586
 1  4.18731150285029 -1.40667298159816  0.46152405540554
 1  4.93427525672567  1.80262277127713 -2.29228394819482
 1  5.53715033223322  0.77655361786179 -3.05462686428643
 1  3.67680779897990  0.49003018981898 -2.80165099019902
 1  6.40760877707771  1.45021114611461 -0.50770096119612
 1  6.22106015071507  0.19697980838084  0.94973268066807
 1  7.35352213711371 -1.34903162776278 -1.06480724032403
 1  7.66877642014201  0.13878589918992 -1.82397722672267
 1  8.78490397779778  0.85232407370737  0.15756590489049
 1  8.74894795759576 -0.77226137763776  0.82355516791679
 1  10.28590125872587 -0.30177762106211 -1.66191076607661
 1  9.60649096529653 -2.73765245844584 -1.54330287808781
 1  11.08154318541854 -2.92391399119912 -0.96575718061806
 1  9.58340336043604 -2.79654133973397  0.28671040174017
 1  11.32031732913291  0.97562634273427  0.09630821602160
 1  11.20961692519252 -0.50473571007101  1.40704063426343
 1  12.80560527112711 -1.78578014921492 -0.41018423142314
 1  12.85913406560656 -0.10819089808981 -1.55045657935794
 1  13.69808096299630  1.18300801160116  0.32179509040904
 1  13.78936316331633 -0.14655108290829  1.40368721462146
 1  15.08595093929393  0.11492269836984 -1.40261227452745
 1  14.82006755965596 -2.20865344714471 -0.80371970517052
 1  16.61156503000300 -2.05768980558056 -0.54617040094009
 1  15.50916619541954 -2.28037316991699  0.77786705810581
 1  16.11012128532853  1.60492706300630  0.56837729672967
 1  16.22502715951595  0.24343496679668  1.54678810141014
 1  18.01295251695170 -0.47533174367437  0.04810494269427
 1  17.65143972957296  0.89812170047005 -1.23028146064607
 1  18.27367205670567  2.41870826672667  0.63406879657966
 1  18.68210046424642  1.30918672817282  1.62569971997200
 1  20.69456578897890  0.74690265126513  0.06674783098310
 1  19.65293264986499  2.84908317841784 -1.90885278767877
 1  21.32272951665167  1.64039210891089 -1.76197930453045
 1  19.37158213121312  1.27287290899090 -2.01507368886889
 1  21.02785802230223  2.28884035203520  1.92891392799280
 1  22.03485634283428  2.84988501590159  0.45080923802380
 1  20.51697132653265  3.53086628622862  0.85134387228723
 1 -7.25449728282828  1.77513638683868  0.33537538363836
 1 -7.40082163056306 -0.32413258925893 -0.37296742434243

