%nproc=3
%Mem=2GB
# td=(NStates=1) B3LYP/SVP 

TD

0 1
 6 -5.12482018011801 -1.91378762086209  0.39879475537554
 6 -4.89560987998800  2.72046849854986  1.42850923682368
 6 -9.47104701440144  3.24374517371737 -0.28072654055406
 6 -9.96331438593859 -1.51396219961996 -0.85886844024402
 7 -5.22707186948695  0.44890651355136  0.76081451845185
 6 -4.49085770187019 -0.66010273127313  0.64314775817582
 6 -3.06078576507651 -0.45559199389939  1.18984398019802
 6 -3.18820378577858  0.95359425172517  1.86157526332633
 6 -4.49758895199520  1.41741155905591  1.35237883488349
 6 -3.13708227672767  1.03734124642464  3.38110597319732
 6 -2.00621269196920 -0.62628258995900  0.06874482008201
 6 -0.62655586778678 -0.61407962456246  0.55813826652665
 6  0.40769443084308 -0.88984585748575 -0.46502806040604
 8  0.16536830443044 -1.41297366396640 -1.58280189168917
 8  1.64820501760176 -0.52355912901290 -0.11388383108311
 7 -7.21776637123712  2.78488576037604  0.48062757195720
 6 -6.11834340974097  3.43796821512151  1.03779463636364
 6 -6.44062724842484  4.87016345584559  1.05605209800980
 6 -7.73977307410741  5.01612044754475  0.45180170757076
 6 -8.19172011791179  3.63266175987599  0.21303145854585
 6 -5.55006552305231  5.98047356245625  1.38859012501250
 6 -8.39853713641364  6.27416142774277  0.47725622692269
 6 -9.32119001720172  6.53856357825783 -0.55978845764576
 7 -9.24759295989599  0.81639887288729 -0.58093056145615
 6 -10.02262612551255  1.94951745044504 -0.65964523372337
 6 -11.40423428992899  1.64109767076708 -0.94401823572357
 6 -11.56836078657866  0.37454479457946 -1.01026598129813
 6 -10.19562178787879 -0.23693364506451 -0.82365560806081
 6 -12.32451095199520  2.78614711631163 -1.01617470777078
 6 -12.68410615011501 -0.51358383788379 -1.43937489718972
 6 -12.65465559625963 -0.74339760416042 -2.96221439273927
 7 -7.52572152975298 -1.33189487468747 -0.14463299179918
 6 -8.66151773927393 -2.07449617641764 -0.51817517991799
 6 -8.19113155215522 -3.39591647384739 -0.66329889718972
 6 -6.83139804890489 -3.38562539083908 -0.24452207610761
 6 -6.46664776817682 -2.11406422502250 -0.08170309410941
 6 -8.94448720632063 -4.67707845734573 -1.00465946034603
 6 -5.59676662186219 -4.27681271637164 -0.14817387178718
 8 -5.43928341854185 -5.40686021612161 -0.22813007890789
 6 -4.45720334893489 -3.26534729632963  0.28602766486649
 6 -3.80278407630763 -3.81574566806681  1.60120664636464
 8 -4.09908498199820 -3.42676060996100  2.67011507960796
 8 -2.87688637623762 -4.74697967086709  1.29789021692169
 6 -2.33934863866387 -5.38322776887689  2.53155529512951
 6  2.73282545114511 -0.79299319691969 -1.03345737153715
 6  4.04544779157916 -0.41530203260326 -0.31718381848185
 6  4.96430868746875  0.23510456535654 -1.06014997159716
 6  4.96403559925993  0.84063479517952 -2.42233935073507
 6  6.28742048724872  0.44730246944694 -0.32642155635564
 6  7.60277151755175 -0.27574375727573 -0.93124999189919
 6  8.84732633373337  0.15311132603260 -0.08582693019302
 6  10.17872879857986 -0.53393772037204 -0.70192754755476
 6  9.92186822542254 -2.17854165706571 -0.48917820272027
 6  11.39830368056806 -0.05846016071607 -0.00359091479148
 6  12.78676035023502 -0.60765608280828 -0.49698422152215
 6  13.89419800920092  0.03823659745975  0.18506056155616
 6  15.36128504030403 -0.23919480098010 -0.30927448534854
 6  15.62799237103710 -1.80920978637864 -0.26994576287629
 6  16.33373411771177  0.46355087238724  0.54249327162716
 6  17.81781667046705  0.48316123382338 -0.21549545094509
 6  18.80532145644564  1.34458878777878  0.55389620582058
 6  20.24250615221522  1.27784558915892  0.00498222572257
 6  20.43103380228023  1.82936951305130 -1.47226530433043
 6  21.34495701700170  1.98404974377438  0.90510229842984
 1 -4.01081874217422  3.36532776477648  1.68015289618962
 1 -10.22949080218022  3.98769601170117 -0.71579290199020
 1 -10.92568682508251 -2.30677783328333 -0.89354882798280
 1 -2.72099442644264 -1.20277951315131  1.90901177687769
 1 -2.36727804230423  1.67816804000400  1.16234914711471
 1 -2.40012027002700  0.64899126752675  4.00993009700970
 1 -3.25847133903390  2.19356440614061  3.68443863906391
 1 -4.09282887978798  0.40742592709271  3.67506268246825
 1 -2.22606811521152 -1.45845057815782 -0.51177562476248
 1 -2.00506384578458  0.01123731473147 -0.68127482168217
 1 -0.51508732853285  0.31904575817582  0.99949031033103
 1 -0.36723706300630 -1.39636159475948  1.41115862426243
 1 -4.84104892139214  6.30109447754776  0.47699049884988
 1 -6.13766897329733  6.94381929662966  1.51399069366937
 1 -4.86363445024502  5.82321036503650  2.32886702070207
 1 -8.05316032543254  7.05857573207321  1.09331088498850
 1 -9.88997434933493  5.78972913341334 -1.24584617071707
 1 -9.66807155375537  7.61514024152415 -0.80321054395440
 1 -12.27101146314632  3.17593678087809 -0.02888070117012
 1 -12.27137098539854  3.55157911531153 -1.81592090889089
 1 -13.45339636243624  2.62994082978298 -1.31096545194519
 1 -12.92582495569557 -1.36129505620562 -0.85017976907691
 1 -13.67687471197120  0.05501965666567 -1.22080443924392
 1 -12.69870550045004  0.25230204330433 -3.51416876117612
 1 -11.90976594459446 -1.29332690629063 -3.18268722082208
 1 -13.64957171067107 -1.28825792059206 -3.31300884318432
 1 -9.97059360816082 -4.85431475127513 -0.67527982998300
 1 -9.14547852675267 -4.85869381538154 -2.13786068426843
 1 -8.66173134783478 -5.54552281928193 -0.61048900440044
 1 -3.66253810521052 -3.36738302850285 -0.65033638223822
 1 -1.60426081908191 -6.06938203390339  2.01905523962396
 1 -1.90698914531453 -4.80810429432943  3.14186862946295
 1 -2.99955297169717 -6.02756784838484  3.16241311691169
 1  2.56263017051705 -1.98254589808981 -1.42053322032203
 1  2.53758865336534 -0.06657423822382 -1.94456222342234
 1  4.46473924562456 -0.87797011131113  0.32645054805481
 1  4.75047687688769  2.08594110311031 -2.35051977177718
 1  5.77951456865687  0.54648061056106 -3.07449885148515
 1  3.97685780398040  0.66428761556156 -2.98572939803980
 1  6.57722573877388  1.46283240824082 -0.16587677877788
 1  6.10825887058706 -0.08854874447445  0.76348405580558
 1  7.39161594649465 -1.32970969556956 -0.87791855145515
 1  7.45324486698670 -0.00757873727373 -2.03276810581058
 1  9.16285177257726  1.10519936123612 -0.16773662536254
 1  8.72545560836084 -0.19547369886989  0.95914872727273
 1  10.28110077867787 -0.27879532283228 -1.82956753175317
 1  9.07333764996500 -2.49350804400440 -1.22393094089409
 1  10.77787281838184 -2.79995159495950 -1.00983158805881
 1  9.88852387248725 -2.67286897249725  0.62591432213221
 1  11.78092338973897  1.28312709280928 -0.36476789158916
 1  11.38798476197620 -0.28555379187919  1.20223015321532
 1  12.72078678927893 -1.80365193639364 -0.38842205520552
 1  12.70893904610461 -0.51666174517452 -1.61399293299330
 1  13.62419357425743  1.22088179897990  0.09562247314731
 1  13.68492271927193 -0.12823925172517  1.30591743764376
 1  15.46019836403640  0.06891809790979 -1.29028104140414
 1  15.02271782468247 -2.39709229102910 -1.05142447564756
 1  16.67704157765776 -2.15731976857686 -0.24702048594860
 1  15.23271855065506 -2.07543267586759  0.79704897629763
 1  16.24667494069407  1.67425399569957  0.77843830283028
 1  16.35690034683468  0.09753037633763  1.65041846444644
 1  18.01819304100410 -0.57829203970397 -0.49087895569557
 1  17.37563214881488  0.74803669196920 -1.10695912841284
 1  18.42994768426843  2.41953834973497  0.43764915461546
 1  18.82901515571557  1.16996280578058  1.57683483348335
 1  20.44125045744574  0.08058601960196 -0.20591943574357
 1  20.04900225682568  2.80986925702570 -1.38486038843884
 1  21.56175341904191  1.94019208890889 -1.69918302490249
 1  19.86481145414541  1.27313293499350 -2.26489867136714
 1  21.32978821532153  1.68430989898990  1.88091912851285
 1  22.21253411061106  1.72096212361236  0.34114827192719
 1  20.93701333073307  3.08135133473347  0.84107284518452
 1 -6.99156098919892  1.77714658785879  0.48847069316932
 1 -7.56237778617862 -0.18874905090509 -0.16731685928593

