%nproc=3
%Mem=2GB
# td=(NStates=1) B3LYP/SVP 

TD

0 1
 6 -5.20147784588459 -2.02622886498650  0.64688956485649
 6 -4.84087440644064  2.75861231293129  1.47794418031803
 6 -9.40145005470547  3.35324612381238 -0.42491095899590
 6 -9.77175523002300 -1.48452925632563 -0.98309086248625
 7 -5.18911807410741  0.35395701860186  0.84313275027503
 6 -4.57024564066407 -0.89779650065006  0.93898734213421
 6 -3.07613730023002 -0.57733416811681  1.32039703550355
 6 -3.06825179057906  0.87003589588959  1.84349345514551
 6 -4.49512870597060  1.34868468636864  1.39478307530753
 6 -2.98061663016302  0.88892640494049  3.39681754435444
 6 -2.06286835753575 -0.80053001470147  0.19458740434043
 6 -0.56471968416842 -0.67843606020602  0.67364981768177
 6  0.36330999239924 -0.91786865976598 -0.53853541114111
 8  0.07544931253125 -1.38824119071907 -1.57516112761276
 8  1.61687188428843 -0.58407518061806 -0.15189763246325
 7 -7.11379597419742  2.75833310511051  0.40235974517452
 6 -5.96607818321832  3.35925034333433  0.97831868876888
 6 -6.28906209190919  4.80078651815182  1.07152364516452
 6 -7.59674877167717  4.94396323182318  0.61103763116312
 6 -8.05480642654265  3.65338383208321  0.09987014241424
 6 -5.38317883438344  5.86767228232823  1.48155942194219
 6 -8.28446572927293  6.29676368796880  0.35763426472647
 6 -9.07948584678468  6.74460418231823 -0.72938541734173
 7 -9.23485168576858  0.88398563156316 -0.48886135453545
 6 -9.85989985288529  2.07244974367437 -0.68313758295830
 6 -11.25403927042704  1.81519508050805 -1.04829866376638
 6 -11.38872282278228  0.45141248134813 -1.23597855255526
 6 -10.07450967666767 -0.11996194789479 -0.87032027452745
 6 -12.35926442734274  2.82721122272227 -1.37888097839784
 6 -12.59812755225523 -0.32563504300430 -1.64477543724372
 6 -12.52557268796880 -0.61165442984298 -3.18686685798580
 7 -7.53767272487249 -1.36163784898490 -0.14182271077108
 6 -8.57012860036004 -2.10567929472947 -0.63374673707371
 6 -8.23406584558456 -3.38633551575158 -0.66928949624962
 6 -6.84697960706071 -3.45375220352035 -0.19427705160516
 6 -6.45816692009201 -2.18030084868487  0.20070514671467
 6 -8.90719347694769 -4.62424317381738 -1.29937893229323
 6 -5.72210915611561 -4.31564659975998  0.12901384698470
 8 -5.59986947714772 -5.56986651675168 -0.01875914181418
 6 -4.56851448004801 -3.37127788938894  0.50851991409141
 6 -3.95730952885289 -3.84590868436844  1.87263378907891
 8 -4.20837591109111 -3.36795472937294  2.96862493059306
 8 -3.03666235383538 -4.86958193109311  1.65016544444444
 6 -2.53369807360736 -5.46305575167517  2.75093723332333
 6  2.66100826942694 -0.69566346394639 -1.11547557335734
 6  3.99729297609761 -0.44959546194619 -0.51652375247525
 6  5.04883714031403  0.40978203310331 -0.92278623522352
 6  4.80376957265727  1.25108584028403 -2.12208932573257
 6  6.36998874407441  0.46858459765977 -0.19946886108611
 6  7.48901014141414 -0.27153333623362 -1.04375124202420
 6  8.77842944404440 -0.36919090419042 -0.14967331483148
 6  10.12304323002300 -0.62066639323932 -0.93553090789079
 6  10.01380741934194 -2.23091689458946 -1.45725501040104
 6  11.31116496669667 -0.32256657135714  0.09415886018602
 6  12.75719739393939 -0.56495181238124 -0.62407693079308
 6  13.84916350575057 -0.05328255445545  0.22311436693669
 6  15.19247815961596 -0.20366124762476 -0.48766232413241
 6  15.53235280708071 -1.65820468586859 -0.92903167146715
 6  16.24069481378138  0.47988250555056  0.34059308160816
 6  17.68342323112311  0.50196311401140 -0.17069097049705
 6  18.65424634893489  1.58278260716072  0.53374419061906
 6  20.19658155975597  1.51797960256026  0.21739346684668
 6  20.46159685858586  1.78512508860886 -1.26017409520952
 6  20.95812833413342  2.44154549334933  1.23946573477348
 1 -4.14925258555856  3.38338957095710  1.73909879077908
 1 -10.06810466356636  4.17616485858586 -0.60993231593159
 1 -10.69857411381138 -2.15284243974398 -1.14963443654365
 1 -2.56003833083308 -1.26054528972897  2.08156903260326
 1 -2.13551486598660  1.58565878907891  1.66491940414041
 1 -1.72789304730473  0.85963233163316  3.53544264826483
 1 -3.07461295319532  2.13131818151815  3.62199239443945
 1 -3.70118971587159  0.42707789228923  4.26729190539054
 1 -2.17782329072907 -1.78669340244024 -0.30283473067307
 1 -2.38885222462246 -0.29146295529553 -0.70561725592559
 1 -0.52967878767877  0.55496935053505  0.90112047334734
 1 -0.30809114841484 -1.18453041164116  1.72612012041204
 1 -4.42007682418242  5.80533490159016  0.90376317611761
 1 -5.72408761516152  6.95816073077308  1.36914620922092
 1 -5.06897498429843  5.60211825582558  2.67152128612861
 1 -7.94189919931993  6.94696457095709  1.21455300920092
 1 -9.27585293719372  6.10982114261426 -1.48322990909091
 1 -9.47611235783578  7.69039776727673 -0.90692091499150
 1 -12.46918128012801  3.40220940814081 -0.57461527462746
 1 -11.94246809510951  3.57065102250225 -2.06248556535654
 1 -13.41922294509451  2.30941877757776 -1.63916827222722
 1 -12.83580595379538 -1.32530145684568 -1.27718246934693
 1 -13.48023504800480  0.37515166986699 -1.44278663746375
 1 -12.49440507040704  0.32225903900390 -3.97301464576458
 1 -11.53939890789079 -1.25390296389639 -3.39016796889689
 1 -13.19312606610661 -1.37936703150315 -3.65737327962796
 1 -10.01089763856386 -4.55016433623362 -0.91536383838384
 1 -9.04946892579258 -4.59140708670867 -2.51303820202020
 1 -8.42915809050905 -5.57872613961396 -0.75048300380038
 1 -3.76957880928093 -3.29911620182018 -0.20363171177118
 1 -1.85478587158716 -6.40181527722772  2.62476581068107
 1 -1.96563500990099 -4.84844832873287  3.47739218181818
 1 -3.38514153055305 -5.88782387398740  3.38516539213921
 1  2.66664057155716 -1.74628227172717 -1.76730789778978
 1  2.51160605510551  0.05939835903590 -1.96399416661666
 1  4.24583735543554 -1.20815312961296  0.48504640764076
 1  5.02071390059006  2.34907741674167 -1.88371309110911
 1  5.73092971017102  1.08453441594159 -2.75706710831083
 1  3.77495761396140  1.30286147294729 -2.62879370447045
 1  6.56053406960696  1.53838996399640 -0.04303449454945
 1  6.35013305800580 -0.14547443704370  0.83036074347435
 1  7.23081986688669 -1.29906663126313 -1.39343010261026
 1  7.67739728222822  0.51732375297530 -2.04210903990399
 1  8.80114560196020  0.77536637793779  0.41286143444344
 1  8.64388745154515 -0.93887803930393  0.73398621102110
 1  10.17934060266027  0.17688024472447 -1.84225880088009
 1  9.12770308650865 -2.22019071227123 -2.06118466626663
 1  10.85650068116812 -2.32014361416142 -2.26023662856286
 1  10.25036005610561 -2.77222890849085 -0.70759902920292
 1  11.17405270267027  0.51796057615762  0.58098668386839
 1  11.34211017451745 -0.95961119761976  0.91466139633963
 1  12.82635734633463 -1.71634320552055 -0.70849406240624
 1  12.73767191939194 -0.20329040804080 -1.47321885558556
 1  13.61273242814281  1.04951466226623  0.63389630053005
 1  13.96977120412041 -0.91740816861686  1.16862370827083
 1  15.31147349154915  0.51954316041604 -1.48836084938494
 1  14.72430798369837 -2.26268885068507 -1.51434076727673
 1  16.62020589408941 -1.78277231383138 -1.22423820772077
 1  15.37759303810381 -2.14645977857786  0.10239951135114
 1  15.93011328452845  1.39257582788279  0.39350980998100
 1  16.39413407020702 -0.08289766646665  1.45535895849585
 1  18.15011623332333 -0.47366157665767  0.18785891809181
 1  17.91041562716272  0.46398828712871 -1.27665609810981
 1  18.34233892339234  2.62943933983398  0.38894428412841
 1  18.43152540674068  1.47297310681068  1.59153630363036
 1  20.73840017241724  0.49235719671967  0.34744590079008
 1  19.99063642024203  2.87405567566757 -1.37512941534153
 1  21.46605384908491  1.63174124382438 -1.44437754435444
 1  19.85060003300330  0.99033465516552 -1.77873005450545
 1  20.55432066856686  2.20653212121212  2.29831086768677
 1  21.99798265546555  2.44307433483348  1.43630778787879
 1  20.58547817721772  3.56013921352135  1.07618635653565
 1 -7.05200703380338  1.74483335653565  0.24160600670067
 1 -7.59201074947495 -0.28451862786279  0.03735360776078

