%nproc=3
%Mem=2GB
# td=(NStates=1) B3LYP/SVP 

TD

0 1
 6 -5.11133883198320 -1.90828707080708  0.45578045394539
 6 -4.84795511451145  2.70488694039404  1.48904529042904
 6 -9.28249815951595  3.48259905910591 -0.45054352225222
 6 -9.72253030753075 -1.39903070647065 -0.95469802320232
 7 -5.21259042134213  0.45875749864987  0.93264170117012
 6 -4.53894251035103 -0.69106582758276  0.95269871327133
 6 -3.11282096859686 -0.52510894559456  1.42164716051605
 6 -3.13579854525453  0.81763065536554  2.02510161596160
 6 -4.48140733383338  1.44606442434243  1.47498109510951
 6 -3.15961452995300  0.79211672397240  3.53471133373337
 6 -2.05658772947295 -0.64651461316132  0.25717366296630
 6 -0.61750496269627 -0.71327954455446  0.73498595129513
 6  0.36088975037504 -1.18072494539454 -0.38158971657166
 8  0.01164293189319 -1.53926629322932 -1.47506111761176
 8  1.59193939103910 -0.94679145224522  0.06249380668067
 7 -7.06316091069107  2.82058933073307  0.41764127332733
 6 -5.94978655405541  3.35185960426043  1.04681553845385
 6 -6.24045723142314  4.74887132663266  1.06284277707771
 6 -7.46065516231623  4.95304413991399  0.53793032043204
 6 -8.05784673057306  3.76167466116612  0.16935709110911
 6 -5.31445196169617  5.81432694779478  1.60400166616662
 6 -8.13415069776978  6.28421243284328  0.41904040534053
 6 -8.86602450065006  6.72997271917192 -0.62667514631463
 7 -9.07165536613661  1.05169240224022 -0.54881735013501
 6 -9.81228509140914  2.09752225092509 -0.64872414161416
 6 -11.24325819231923  1.86793035403540 -1.04161799569957
 6 -11.30454440494049  0.58508584868487 -1.30959591429143
 6 -10.04186641234123 -0.00402035373537 -0.95959920242024
 6 -12.17465596649665  2.95895439703970 -1.27363045334533
 6 -12.54719245874587 -0.16886936643664 -1.81710266996700
 6 -12.38180831153115 -0.47509077347735 -3.34278244954495
 7 -7.39729868746875 -1.22885457065707 -0.27947647614761
 6 -8.55316690419042 -1.94631335813581 -0.65296865926593
 6 -8.11690412941294 -3.41700858305831 -0.75359792709271
 6 -6.81820672977298 -3.43309013731373 -0.37619524342434
 6 -6.39818092149215 -2.06312913151315  0.01650672687269
 6 -8.98790154775477 -4.46106685618562 -1.05987498189819
 6 -5.82716966216622 -4.37219225432543  0.09470041564156
 8 -5.72325181538154 -5.51505103520352  0.02119485358536
 6 -4.49293692229223 -3.46184694629463  0.56420548264826
 6 -3.78448224612461 -3.86909100260026  1.76081260696070
 8 -4.07307238073807 -3.42237017091709  2.82136020412041
 8 -3.06811549914991 -4.88845381828183  1.49290971887189
 6 -2.54131883568357 -5.51615106120612  2.51268340794079
 6  2.67137930653065 -1.28420231783178 -1.00061408720872
 6  3.93941718851885 -0.86556705910591 -0.44905700580058
 6  4.87768002460246 -0.03736268136814 -0.99708366496650
 6  4.76016521222122  0.58438917061706 -2.50806792359236
 6  6.26758850405040  0.15214295349535 -0.35895480968097
 6  7.48950019041904 -0.61169735263526 -0.93917078397840
 6  8.73442504360436 -0.27082106720672 -0.25453380088009
 6  9.99896082178218 -0.86194052065207 -0.79213656845685
 6  10.05381141974197 -2.29041284418442 -0.93759304420442
 6  11.21077492769277 -0.31103541824182  0.00825026932693
 6  12.67340901510151 -0.48310362756276 -0.69613413651365
 6  13.75895448484849  0.10872364616462  0.26380843634363
 6  15.16641555335534 -0.11173205470547 -0.34056761466147
 6  15.51882145394539 -1.60903976937694 -0.51267003530353
 6  16.19377012131213  0.63093761106111  0.44959398169817
 6  17.66199108790879  0.79971288898890 -0.24475837723772
 6  18.60113103740374  1.66306063496350  0.62371318751875
 6  20.02396429802980  1.76784458905891 -0.09458773127313
 6  19.95380607950795  2.72434901100110 -1.44366244404440
 6  21.10255277657766  2.33789512831283  0.90202199039904
 1 -4.33924158445845  3.27118835083508  2.18045292619262
 1 -9.98709656275627  4.17246448854885 -0.68021934463446
 1 -10.43459771617162 -1.98525568106811 -1.35289476257626
 1 -2.67724005100510 -1.19333856905691  2.19422029772977
 1 -2.32999431393139  1.61997222042204  1.55535844804480
 1 -2.16903716171617  0.49750611901190  4.09743884788479
 1 -3.36496198809881  1.82791784148415  4.08314851005101
 1 -3.90161975887589  0.09043422792279  3.83551872807281
 1 -2.18827433583358 -1.59937467056706 -0.17380182738274
 1 -1.91091443084308  0.34052024302430 -0.59943663786379
 1 -0.37699351915192  0.25316917051705  0.99825018631863
 1 -0.26122646194619 -1.21779373797380  1.73592110051005
 1 -4.46416123262326  6.13864823292329  0.80289308910891
 1 -5.73003821022102  6.68476339103910  1.68925822042204
 1 -4.84289237603760  5.48725676967697  2.55195932993299
 1 -7.94449945934593  7.24092396689669  1.16899845374538
 1 -9.11673702560256  6.22019217971797 -1.65031661776178
 1 -9.14754950155016  7.73527225472547 -0.53346356925693
 1 -12.36854121612161  3.43718290549055 -0.31435924902490
 1 -11.90593444174417  3.38391234863486 -2.35863518031803
 1 -13.11935295809581  2.59008684438444 -1.67461181658166
 1 -12.88806117931793 -1.11190011671167 -1.24691944304431
 1 -13.44605162966297  0.55103925862586 -1.77160951975198
 1 -12.01400703060306  0.36077289038904 -3.88449579387939
 1 -11.42996796479648 -0.92667024062406 -3.50928988108811
 1 -13.19257601110111 -1.04629372417242 -3.72679022132213
 1 -9.76186273507351 -4.51733105290529 -0.18599090109011
 1 -9.35495947484748 -4.56264421042104 -2.11271817001700
 1 -8.40692586728673 -5.39484775177518 -1.06695465096510
 1 -3.99377122852285 -3.64949123932393 -0.42965431403140
 1 -2.00780117311731 -6.28483357905791  2.25371870597060
 1 -1.91139958635864 -4.90338382228223  3.23786822942294
 1 -3.51536455285529 -5.74452954455446  3.14054092969297
 1  2.58756266376638 -2.35287293079308 -1.12234340134013
 1  2.44352924742474 -0.94100168096810 -1.98720648784878
 1  4.09931270297030 -1.42210452475248  0.37345524852485
 1  5.19659148834883  1.67836034503450 -2.42189690949095
 1  5.48269488668867  0.25702166466647 -3.09021042264226
 1  3.82685280348035  0.48236942374237 -2.93541436653665
 1  6.43114113031303  1.24300042504250 -0.53306349744975
 1  5.93999204390439 -0.01161105070507  0.67269497689769
 1  7.29256604150415 -1.57158388298830 -0.86568732833283
 1  7.56422596509651 -0.54814279367937 -1.96592142114211
 1  8.92407789518952  0.84517335863586 -0.11180103180318
 1  8.45777884068407 -0.63882803430343  0.77466027842784
 1  10.01963463206321 -0.51758920222022 -1.76816139113911
 1  9.37019733593359 -2.60440913411341 -1.58382693049305
 1  10.93702873397340 -2.59732133193319 -1.60026063096310
 1  9.87869288938894 -2.80869255485549  0.21299303000300
 1  11.05663096049605  0.84523330343034  0.09154773997400
 1  11.20135609910991 -0.87227246374637  0.92766269646965
 1  12.79356406700670 -1.52089366056606 -0.77124033703370
 1  12.77433558575858 -0.12073215221522 -1.89324085778578
 1  13.48516967186719  1.06398610941094  0.36759967086709
 1  13.59714394139414 -0.34883131093109  1.12405925182518
 1  15.17029937413741  0.36539774587459 -1.34882689598960
 1  14.54403995689569 -2.19623220502050 -0.80326966016602
 1  16.57034090759076 -1.71793583018302 -0.97757354125413
 1  15.59028430723072 -2.04921005360536  0.53180245164516
 1  15.94468474167417  1.66492306260626  0.53895435443544
 1  16.28209286608661 -0.09778915561556  1.25059848244825
 1  18.18783000470047 -0.13055726622662 -0.29561942974297
 1  17.41657624322432  1.07673956225623 -1.32640107260726
 1  18.01933662316232  2.57233362926293  0.72127751745175
 1  18.78373062726273  1.03005881538154  1.45021217121712
 1  20.49097542994300  0.82445040604060 -0.26872571637164
 1  19.65923327992799  3.74707297739774 -1.19943184558456
 1  20.91247849154916  2.39794786448645 -2.09559266586659
 1  18.88740371337133  2.12701832353235 -1.87941012251225
 1  21.43495873237324  1.61027249524952  1.75215625222522
 1  22.14659751695170  2.72333236063606  0.37276143324332
 1  20.69487911731173  3.34577777737774  1.49785852375238
 1 -7.10768260136014  1.84899377257726  0.31533337943794
 1 -7.40881242964296 -0.12661283728373 -0.19357948554855

