%nproc=3
%Mem=2GB
# td=(NStates=1) B3LYP/SVP 

TD

0 1
 6 -5.14575227332733 -1.92283852595260  0.46933180908091
 6 -4.76603692269227  2.76559301100110  1.43396978287829
 6 -9.24524443414341  3.37203800300030 -0.26960542844284
 6 -9.90505856035604 -1.35290609400940 -0.85515806920692
 7 -5.10474963726373  0.47010863376338  0.73113155015502
 6 -4.52090070617062 -0.75625234623462  0.85403884728473
 6 -3.10092977947795 -0.63819025372537  1.32379737553755
 6 -3.00800576597660  0.90930982328233  1.82048115391539
 6 -4.40531972507251  1.39441925982598  1.34858845584558
 6 -2.84632320082008  1.02946045834583  3.39129699229923
 6 -2.01733380408041 -0.84663462516252  0.11956990259026
 6 -0.53557676987699 -0.76077429402940  0.60804325702570
 6  0.41102476387639 -1.02594946784678 -0.57672923052305
 8  0.09507127472747 -1.32737510411041 -1.69885349684969
 8  1.68856905400540 -0.83636040914091 -0.14748719141914
 7 -7.01725632023202  2.72010928272827  0.54115362456246
 6 -5.89628120352035  3.37838225652565  1.07489834673467
 6 -6.20943412911291  4.76570300980098  1.08483497629763
 6 -7.47396649344935  4.94028286378638  0.57252377977798
 6 -8.01879282518252  3.55800429412941  0.16426658205821
 6 -5.27372788928893  5.82963847894789  1.46112737873787
 6 -8.14077135983598  6.21477548914891  0.34285278657866
 6 -9.08276617481748  6.65525524742474 -0.52468494729473
 7 -9.23643184378438  0.90180741374137 -0.51834430283028
 6 -9.78211207410741  2.12739523822382 -0.64133340254025
 6 -11.19391325782578  1.96378993999400 -1.05145897979798
 6 -11.39279322982298  0.59047638773877 -1.30036499119912
 6 -10.19001122682268 -0.07459741144114 -0.86189943244324
 6 -12.22218071897190  3.07877637923792 -1.19243233353335
 6 -12.56064380388039 -0.17309978947895 -1.85713667336734
 6 -12.25466559725973 -0.52337560196020 -3.27904607590759
 7 -7.56647560516052 -1.26657834303430 -0.18226675517552
 6 -8.63215480298030 -2.06847557435744 -0.59231259365937
 6 -8.25721816081608 -3.41854873707371 -0.73344591189119
 6 -6.95320022912291 -3.46215304360436 -0.21881950585059
 6 -6.48781988538854 -2.06950976957696  0.15261033723372
 6 -9.11443420102010 -4.63031378087809 -1.17101609600960
 6 -5.81703864906491 -4.32314734983498  0.14427537313731
 8 -5.67021651185119 -5.52845237533753 -0.04040130603060
 6 -4.57173480208021 -3.32912367396740  0.47986704880488
 6 -3.92887668556856 -3.99277337083708  1.84885141084108
 8 -4.18757383088309 -3.43704163806381  2.89392746084608
 8 -3.20158884648465 -4.94919989288929  1.71364179207921
 6 -2.56338104190419 -5.52357180328033  2.78840097969797
 6  2.62744491309131 -1.09158305590559 -1.22367639343934
 6  3.98780202700270 -0.72175267766777 -0.65556765686569
 6  4.99717197379738  0.16208726362636 -1.09570352695270
 6  4.89860905660566  0.84637536923692 -2.33731084788479
 6  6.26328807400740  0.21156889608961 -0.26297521172117
 6  7.52824406480648 -0.37403358625863 -0.99721658855886
 6  8.75845744684469 -0.38487247234724 -0.14119246674667
 6  10.03735466116612 -0.78155248184818 -0.82943029782978
 6  9.94318035663566 -2.33839764266427 -1.06339562446245
 6  11.21578542874287 -0.42661697639764  0.12178162246225
 6  12.68525019921992 -0.58185350255026 -0.64026854995500
 6  13.80346893629363 -0.01347857405741  0.26188824432443
 6  15.26238515031503 -0.13940482198220 -0.39798335623562
 6  15.62061163296329 -1.67590645604560 -0.55058382668267
 6  16.22818356265627  0.72229674697470  0.46839586188619
 6  17.58219310811081  0.87346026372637 -0.13165706710671
 6  18.59367029132913  1.69776410531053  0.64338515471547
 6  20.07070897249725  1.71293909850985 -0.05185345784578
 6  20.07220791969197  2.38113468956896 -1.31246932473247
 6  21.01595411671167  2.44637597639764  1.02607439563956
 1 -4.06184384468447  3.31796302830283  2.00383526442644
 1 -9.94677253035304  4.18433567566757 -0.23276459915992
 1 -10.73265752215221 -1.95677283278328 -1.25802527562756
 1 -2.63102542954295 -1.20072930813081  2.15282615831583
 1 -2.23924523902390  1.35764598779878  1.48962187438744
 1 -1.94347460546055  0.69833620202020  3.69939904390439
 1 -3.02413790569057  1.96480152985299  3.63213340854085
 1 -3.56597619451945  0.67829301380138  4.05009018521852
 1 -2.27939344774477 -1.66799153225323 -0.46292073927393
 1 -2.14444778417842 -0.05736954595460 -0.48329502370237
 1 -0.25125094489449  0.14183803740374  1.02589295059506
 1 -0.28417875717572 -1.39292125072507  1.27748525692569
 1 -4.43133795029503  5.72945731383138  0.77233003280328
 1 -5.50617582398240  6.93090800550055  1.19502879747975
 1 -4.97508559535954  5.87627567156716  2.48408254225423
 1 -7.65264027342734  6.93972384688469  1.12260381428143
 1 -9.53330868276828  5.93606376687669 -1.11531311741174
 1 -9.56852159875988  7.65229395689569 -0.55574579747975
 1 -12.43858822082208  3.54204339153915 -0.25606341944194
 1 -12.06976082438244  3.78553251065107 -1.93339265606561
 1 -13.07874889768977  2.64699253495350 -1.46088044344434
 1 -12.81193356655666 -1.12325125182518 -1.23363811491149
 1 -13.36875389988999  0.53745790049005 -1.60982334113411
 1 -12.02708833873387  0.40564737783778 -3.88745608990899
 1 -11.24739970797080 -1.30873844744474 -3.16965591769177
 1 -13.16255300880088 -0.98580767556756 -3.76776431873187
 1 -10.00812736153615 -4.78154747454746 -0.39046134813481
 1 -9.34623860276028 -4.72120006600660 -2.18695559375938
 1 -8.61627680238024 -5.51174944194420 -0.87393534903490
 1 -3.85040689208921 -3.47606389658966 -0.23021437003700
 1 -2.06237663066307 -6.48380347604760  2.52944627872787
 1 -1.58333678007801 -4.72261574547455  3.14218866146615
 1 -3.27061007740774 -5.60367545914592  3.77933480908091
 1  2.76152005950595 -2.10246789028903 -1.41899306630663
 1  2.27376227072707 -0.52298987978798 -1.93527129432943
 1  4.15578835053505 -1.42908522282228  0.31817972097210
 1  5.25688751795180  1.92035454445445 -2.22834755455546
 1  5.50477709490949  0.25133109560956 -3.08060946254626
 1  3.71254137233723  0.88421960876088 -2.74520534563456
 1  6.46546456265626  1.22471859685969  0.27728753765377
 1  6.21744978967897 -0.47248713831383  0.74603231063106
 1  7.49826661156116 -1.42369909450945 -1.41285204480448
 1  7.60676021852185  0.43486550715071 -1.77387221622162
 1  8.82449793719372  0.54132297359736  0.42465261356136
 1  8.73263632643264 -1.17822197369737  0.79014182658266
 1  10.24772744134413 -0.24992243554355 -1.72614718971897
 1  9.24466478267827 -2.66440513371337 -2.08548709650965
 1  10.87734276537654 -2.60115171497150 -1.41836244114411
 1  9.69247426752675 -2.87884957055706 -0.08334660396040
 1  11.04302960036004  0.55135391549155  0.66725531073107
 1  11.38488445194520 -1.16355159165917  1.06165609580958
 1  12.92769748034804 -1.63719529072907 -0.72666587958796
 1  12.74671282348235 -0.19205928492849 -1.65223675737574
 1  13.61074222912291  1.09107881868187  0.45257816871687
 1  13.80587481448145 -0.69267569536954  1.15872271817182
 1  15.22571491569157  0.38026923302330 -1.33071508480848
 1  15.07221277417742 -2.34121670347035 -1.34776410961096
 1  16.54331820532053 -1.68883291989199 -1.03088887278728
 1  15.78085336413641 -2.19206433903390  0.34205347674767
 1  15.61869214241424  1.66279284958496  0.51451191019102
 1  16.13901855865587  0.17627825112511  1.46272969556956
 1  18.21877309900990 -0.10126433693369 -0.28056792459246
 1  17.53571815741574  1.26424831313131 -1.02099053155316
 1  18.29584427392739  2.79913630953095  1.04852024172417
 1  18.86777903210321  1.29731554105411  1.69354650465047
 1  20.41260759315931  0.63036099709971 -0.04744358815882
 1  19.84168152475248  3.52166043614361 -1.26702860526053
 1  21.05903314701470  2.09682775247525 -1.79982308890889
 1  19.43568854185418  1.82194781648165 -2.14032621412141
 1  20.91750698719872  1.90493196119612  2.03294433103310
 1  22.16031888908891  2.47502753015302  0.43320747784778
 1  20.61527115651565  3.61115431503150  1.07393613151315
 1 -7.14134596769677  1.77200607380738  0.37500934703470
 1 -7.82558410681068 -0.25656583258326  0.04506437883788

