%nproc=3
%Mem=2GB
# td=(NStates=1) B3LYP/SVP 

TD

0 1
 6 -5.10734843294329 -1.94979122122212  0.49920479637964
 6 -4.71359167816782  2.73067951965197  1.34874126002600
 6 -9.48057796749675  3.28438923812381 -0.13276174407441
 6 -9.80004805930593 -1.50571137453745 -0.89575212861286
 7 -5.14136329862986  0.44988661156116  0.86878531553155
 6 -4.42359097519752 -0.71831855285529  0.76191963536354
 6 -3.03198288478848 -0.67341377607761  1.19938493429343
 6 -3.07024198959896  0.84691358365837  1.82553165896590
 6 -4.33743293639364  1.40033985188519  1.25034863186319
 6 -3.18396696519652  0.78748626092609  3.44075193779378
 6 -1.98644071477148 -0.69085904760476  0.00377832343234
 6 -0.58052126432643 -0.55757397399740  0.44208666136614
 6  0.34980864226423 -0.65888276117612 -0.72225378297830
 8  0.09782154975498 -0.87003937053705 -1.91414502600260
 8  1.66059625672567 -0.53184995809581 -0.29737217991799
 7 -7.08187278187819  2.69712698449845  0.51223073227323
 6 -5.95169674507451  3.37910232853285  0.97219807670767
 6 -6.33340652635264  4.82371881138114  0.90372686548655
 6 -7.63409250605060  4.91846068156816  0.45265179257926
 6 -8.11034198009801  3.52527102080208  0.17292744814481
 6 -5.35509602610261  5.79037455255526  1.36376764276428
 6 -8.31423870657066  6.21998601020102  0.43627212851285
 6 -9.27963586178618  6.50670039193919 -0.44157663646365
 7 -9.26595479607961  0.76953418641864 -0.46358882728273
 6 -9.98135199809981  1.92722522122212 -0.45053432263226
 6 -11.40554442094209  1.64909847084708 -0.89730356425643
 6 -11.44734868536854  0.34181152125213 -1.18910386508651
 6 -10.10273249894989 -0.23174312601260 -0.96322956545655
 6 -12.51568006890689  2.66431493309331 -1.04939803010301
 6 -12.63990172967297 -0.25865834533453 -1.88869982968297
 6 -12.57961809250925 -0.28590185458546 -3.46965513681368
 7 -7.43321227882788 -1.24986667186719 -0.21845037353735
 6 -8.52379396689669 -2.11212993979398 -0.64198756115612
 6 -8.12061450045005 -3.47099398159816 -0.64481704900490
 6 -6.80491540064006 -3.47488431673167 -0.22992061596160
 6 -6.43409451285129 -2.09106192479248  0.08960403660366
 6 -8.97119987758776 -4.74157490699070 -0.90898989338934
 6 -5.64656160136014 -4.37896293139314  0.08676962256226
 8 -5.52630212041204 -5.57142667276728  0.15128786288629
 6 -4.41760938953895 -3.31848260986099  0.53738280038004
 6 -3.95253905180518 -3.77611170467047  1.93619014471447
 8 -4.16074114761476 -3.30716865076508  3.03328139623962
 8 -3.21384007160716 -4.85851082398240  1.71081150905090
 6 -2.69548425222522 -5.58625807190719  2.96156829642964
 6  2.73825599419942 -0.55258915651565 -1.22168619441944
 6  4.08725197199720 -0.29111961436144 -0.65442754285429
 6  5.09005126172617  0.47698875377538 -1.12739669626963
 6  5.10232942864286  1.17805853755376 -2.41795891269127
 6  6.40841258645865  0.41513925312531 -0.40520943514351
 6  7.58800004040404 -0.27083326622662 -1.04649151605161
 6  8.83476507760776  0.03757977287729 -0.32273062056206
 6  10.09004993069307 -0.69020334693469 -0.81533888868887
 6  9.88668470707071 -2.29284308720872 -0.66700598549855
 6  11.32046589678968 -0.23416773147315 -0.09897045274527
 6  12.72632430663066 -0.48897421462146 -0.69234375747575
 6  13.82506109550955 -0.16723394959496  0.20153220872087
 6  15.22469138093809 -0.40940182168217 -0.39893345124512
 6  15.50618018981898 -1.89773863926393 -0.43819258755876
 6  16.28617936223623  0.42634715201520  0.38917794009401
 6  17.70328521732173  0.47405032273227 -0.13278718011801
 6  18.66601752605261  1.32812714161416  0.68979979617962
 6  20.11402330393039  1.46370417501750  0.11014274177418
 6  20.26129682858286  2.15588216431643 -1.22000007780778
 6  21.00225274657466  2.22994433323332  1.09765155335534
 1 -4.01387904820482  3.59503073507351  1.93370825172517
 1 -10.32639049214921  3.93566080818082 -0.20440176287629
 1 -10.70868512491249 -1.99794695019502 -1.28368784188419
 1 -2.73140546754675 -1.48153738893889  1.96925780148015
 1 -1.99655096959696  1.43293351655166  1.70369328152815
 1 -2.18586884488449  0.60035640404040  3.94092319631963
 1 -3.61265675757576  1.68025307500750  4.20169036423642
 1 -3.95279487638764 -0.25661047654765  3.40039521572157
 1 -2.04041955035504 -1.57635236833683 -0.63762821002100
 1 -2.31698503790379  0.18623481448145 -0.63887058125813
 1 -0.29690551035103  0.45286914051405  0.83274363566357
 1 -0.28976931623162 -1.44008596719672  1.07493500190019
 1 -4.70731554805481  6.02291665976598  0.26513931373137
 1 -5.89060426682668  6.88481339603960  1.84782407700770
 1 -4.60658874567457  5.14140218421842  2.27165129912991
 1 -7.87405241464146  7.15047492199220  1.10635218911891
 1 -9.46210156205620  5.90703086358636 -1.23028461456146
 1 -9.80849559615961  7.33588231573157 -0.36453667656766
 1 -12.53867822982298  3.21691087828783  0.12512469936994
 1 -12.27929177747775  3.55331928932893 -1.90842015881588
 1 -13.52343336613661  2.23766160186019 -0.80492484788479
 1 -12.89941231443144 -1.18506743344334 -1.50087483858386
 1 -13.58339536403640  0.44834898959896 -1.58224058285829
 1 -12.70934656455645  0.83329014211421 -3.86401374567457
 1 -11.56331129912991 -0.65188276187619 -3.94668362046205
 1 -13.35621237473747 -1.14117321212121 -3.88653619591959
 1 -9.80713726252625 -4.88144746454645 -0.10223252525252
 1 -9.64117809670967 -4.55970391639164 -1.88949584778478
 1 -8.11557673237324 -5.46411467846785 -0.95907386288629
 1 -3.82286413781378 -3.43571986218622 -0.31730307890789
 1 -1.78987938093809 -6.36557165286529  2.80330366446645
 1 -2.15748419481948 -4.84167765166517  3.61066550915092
 1 -3.65309832623262 -5.97738282988299  3.43821069666967
 1  2.59901380888089 -1.59721736523652 -1.71063223022302
 1  2.69724461896190  0.12438485768577 -2.09990775797580
 1  4.34516728842884 -0.77798011231123  0.33948185118512
 1  5.54151598079808  2.27251976097610 -2.41522624242424
 1  5.81848846604661  0.62948891139114 -3.23193459505951
 1  4.10806092429243  1.28132931973197 -2.83094391949195
 1  6.72707072327233  1.60718684368437 -0.19638983008301
 1  6.13813185788579 -0.00320020962096  0.58272597999800
 1  7.44939172407241 -1.47777450205020 -0.99316007560756
 1  7.74189373187319 -0.10658863826383 -2.17839266826683
 1  8.89387487488749  1.16019486078608 -0.05371522322232
 1  8.61324438723872 -0.42248640014001  0.75511832423242
 1  10.34711738033803 -0.58184562786279 -1.87400197519752
 1  9.03061337753775 -2.54551324452445 -1.24708325612561
 1  10.76691172227223 -2.77720932073207 -1.21224182908291
 1  9.81749676977698 -2.62305399099910  0.37090882158216
 1  11.26720201760176  0.86216499659966  0.03266185138514
 1  11.40513647714772 -0.68541377787779  0.89770970117012
 1  12.80780549114912 -1.66125769696970 -0.72269548254825
 1  12.68644679687969 -0.30666074507451 -1.78380991469147
 1  13.71368252315231  1.00260997179718  0.35955886678668
 1  13.52853708070807 -0.79202563036304  1.11793863976398
 1  15.37473981818182 -0.01287008090809 -1.51386339963996
 1  14.95977153005300 -2.54967754955496 -0.99085841904190
 1  16.66413028652865 -2.04233827042704 -0.81064684858486
 1  15.54557983678368 -2.45258039063906  0.47599687108711
 1  15.98694896809681  1.33291986228623  0.54258471747175
 1  16.19406406320632 -0.00139951665167  1.54250767336734
 1  18.05346656835684 -0.71685589608961 -0.03135300310031
 1  17.60230481608161  0.70363225152515 -1.20532896539654
 1  18.21649633913391  2.28325472137214  0.62286767646765
 1  18.75406766096610  0.93691950145014  1.70466761676168
 1  20.61344767716772  0.27952591359136  0.09578073427343
 1  19.80361771837184  3.36158442854285 -1.12585448784878
 1  21.27860510421042  2.21967003670367 -1.54131723832383
 1  19.64146911991199  1.75582120382038 -1.94105628712871
 1  21.01378661516152  1.68956042404240  2.09548058465846
 1  22.09988284548455  2.43984401180118  0.70977513461346
 1  20.63167279667967  3.15702890249025  1.26501523942394
 1 -7.30405223832383  1.75944481768177  0.27160900700070
 1 -7.75675722412241 -0.18163833983398  0.22173204560456

