%nproc=3
%Mem=2GB
# td=(NStates=1) B3LYP/SVP 

TD

0 1
 6 -5.14585228332833 -1.95165140724072  0.39262413831383
 6 -4.68936925592559  2.74321077277728  1.32039842574257
 6 -9.17398730843084  3.37346814601460 -0.18776724462446
 6 -9.84611266576658 -1.45996680008001 -1.08519107250725
 7 -5.13338250055005  0.38738036093609  0.75430386738674
 6 -4.46422503860386 -0.83198991999200  0.84784822822282
 6 -2.98157784428443 -0.65381181588159  1.34320931673167
 6 -3.01490645604560  0.81437032933293  1.88619772557256
 6 -4.39310850395039  1.33456327422742  1.31124472147215
 6 -2.99118768726873  0.90388790109011  3.36352421502150
 6 -2.07702977367737 -0.89896985868587  0.19172711831183
 6 -0.54927814001400 -0.94194241084108  0.67378983168317
 6  0.29866352775278 -1.21535840874087 -0.46308786638664
 8  0.06151791939194 -1.56827919451945 -1.52272588408841
 8  1.66731692879288 -0.85557233033303 -0.04477692039204
 7 -6.89268386298630  2.76459373117312  0.45102461166117
 6 -5.80523209860986  3.38278269656966  0.99957081398140
 6 -6.06358954465446  4.75405184468447  1.04579107190719
 6 -7.44159325612561  4.95460429592959  0.54940146754675
 6 -7.91417236313631  3.66603509720972  0.15752590799080
 6 -5.16917743424342  5.80581609670967  1.45100636663666
 6 -8.10926820952095  6.27452146374637  0.43846234753475
 6 -8.89273717191719  6.62628235013501 -0.64399687848785
 7 -9.18058625922592  0.85385261826183 -0.55344781318132
 6 -9.80126398929893  2.03298579727973 -0.49214848404840
 6 -11.19375324182418  1.91859542054205 -0.89880371427143
 6 -11.44307825832583  0.54623196329633 -1.22107706240624
 6 -10.07766999269927 -0.02455240694069 -0.95723896639664
 6 -12.23337183808381  3.06410491209121 -0.99393248354835
 6 -12.62105984548455 -0.08402088158816 -1.73276423612361
 6 -12.65987611831183 -0.21384464886489 -3.27277544884488
 7 -7.52518147574757 -1.17193887908791 -0.21253978247825
 6 -8.59022060956096 -1.96085481228123 -0.72401576397640
 6 -8.21969440844084 -3.36864374657466 -0.74598716601660
 6 -6.83282819191919 -3.40600742904290 -0.31254887878788
 6 -6.49946104950495 -2.03710652925293  0.02025710191019
 6 -8.97256001360136 -4.53774452395240 -1.32765175957596
 6 -5.81092803800380 -4.33130816591659  0.07143808940894
 8 -5.86230572077208 -5.59812934303430  0.03788652275228
 6 -4.54204183278328 -3.40861162276228  0.40474953705371
 6 -3.88856265416542 -3.79492358585859  1.70544707040704
 8 -4.12835790929093 -3.29972790669067  2.78144621272127
 8 -3.12836152375238 -4.84600957385739  1.51693212111211
 6 -2.60889559335934 -5.40416986308631  2.64805694529453
 6  2.68030019861986 -1.24664856245625 -1.01554558035804
 6  3.95277852465246 -0.82281278367837 -0.42499459955996
 6  4.95636789338934 -0.01512045714571 -0.96147010361036
 6  4.98944814051405  0.55614634633463 -2.31169828662866
 6  6.23979572477248  0.19149688888889 -0.22251116531653
 6  7.59072031243124 -0.33771995489549 -0.93347021392139
 6  8.79630123122312 -0.11604558965897 -0.12655100260026
 6  10.04444537023702 -0.92875720232023 -0.70163751855186
 6  9.79710574917492 -2.35129893279328 -0.58457774267427
 6  11.14244809500950 -0.31059537423742  0.10528997329733
 6  12.62359403360336 -0.61366668386839 -0.57075159825983
 6  13.76727531693169 -0.07219444564456  0.16973902940294
 6  15.14708362016202 -0.20095097659766 -0.33425698359836
 6  15.64362393419342 -1.67788665406541 -0.47522629092909
 6  16.20957170147015  0.70424494179418  0.43066208850885
 6  17.68444333313331  0.80663358105811 -0.17030093149315
 6  18.55815673997400  1.85466979587959  0.50930174637464
 6  19.96575847744774  1.89704750935094 -0.13714198669867
 6  19.93091379027903  2.53490006610661 -1.48272635043504
 6  20.87569009030903  2.58939027782778  0.81004279247925
 1 -3.80531819211921  3.30931216321632  1.81065594649465
 1 -9.99013686678668  4.00105734783478 -0.14997632033203
 1 -10.69568382478248 -2.01407856335634 -1.24343381648165
 1 -2.83114544154415 -1.43940317551755  2.21322219791979
 1 -2.26456777127713  1.60591081428143  1.44739765196520
 1 -1.85729598759876  0.45277164556456  3.59424852885288
 1 -2.94503999589959  1.94574962466247  3.67923811901190
 1 -3.77338693559356  0.32318750325032  3.87784296049605
 1 -2.11522703110311 -1.96075080818082 -0.06881132833283
 1 -2.24491783118312 -0.24353816281628 -0.62949964416442
 1 -0.32996881668167  0.08936278987899  1.19608997029703
 1 -0.57925826512651 -1.70058201680168  1.42677018541854
 1 -4.13576839333933  5.51634600270027  1.15830863066307
 1 -5.34993019941994  6.88022293699370  0.93836313091309
 1 -5.22238032483248  5.95337338133813  2.61672580658066
 1 -7.94346935633563  6.93720359485949  1.19674122802280
 1 -8.96947229912991  6.06953711421142 -1.67779936603660
 1 -9.20003475007501  7.68033676117612 -0.48842906580658
 1 -12.46317067906791  3.37840702790279 -0.05128294139414
 1 -11.77121096939694  3.95315927332733 -1.51259057585759
 1 -13.08756977977798  2.58812664836484 -1.41238559395940
 1 -12.81979435263526 -1.05536446314631 -1.25401015211521
 1 -13.39180620512051  0.75304945964596 -1.41862422122212
 1 -12.44850047994799  0.77160397349735 -3.78875621992199
 1 -11.93902887088709 -0.78019559315932 -3.67011596369637
 1 -13.52888964246425 -0.67752684748475 -3.57643518581858
 1 -10.10185673447345 -4.84917423722372 -0.78857115911591
 1 -9.29707368626863 -4.39584753075308 -2.47803470167017
 1 -8.30042521722172 -5.35381364836484 -1.47683563906391
 1 -3.91147299869987 -3.71274756495650 -0.51999334793479
 1 -2.18176856985699 -6.31921701740174  2.37848118221822
 1 -1.94871331773177 -4.71612509640964  3.14106854945494
 1 -3.32267528392839 -5.81643673527353  3.41696857245725
 1  2.77915182268227 -2.48116576007601 -1.06823799079908
 1  2.55041993649365 -1.09757733853385 -2.04711247844784
 1  4.26662943464346 -1.18803111741174  0.53135103810381
 1  5.34413624282428  1.64506701570157 -2.22727744754475
 1  5.67259387658766  0.10102606510651 -3.11711311291129
 1  3.99211933013301  0.69916110291029 -2.71359218431843
 1  6.18277629382938  1.23719984498450 -0.04627481858186
 1  6.34587263196320 -0.22635252485249  0.57562526992699
 1  7.43412019691969 -1.50437716231623 -1.18117887748775
 1  7.82264180668067  0.34181620222022 -1.82873770277028
 1  8.89601508890889  0.94727356865686 -0.10934078577858
 1  8.55702876567657 -0.44358851035104  0.89598241064106
 1  9.93153582218222 -0.43343078637864 -1.72218679367937
 1  8.85183549974998 -2.78494718791879 -0.99983853165316
 1  10.48517354845485 -2.84268586838684 -1.23690429532953
 1  9.72591761186119 -2.86408809440944  0.44021575227523
 1  11.09509480688069  0.72916169626963  0.31069965516552
 1  11.08741470497050 -0.92724796129613  1.04303423362336
 1  12.75816052665266 -1.65996756795680 -0.48014122712271
 1  12.58585673787379 -0.24751483048305 -1.44916645034503
 1  13.53841499639964  1.14520423122312  0.52182509340934
 1  13.90124435143514 -0.44682110991099  1.31177802370237
 1  15.13558590279028  0.31666287238724 -1.53525553885389
 1  15.00043559645965 -2.23189577137714 -0.92537187038704
 1  16.61561543504351 -1.69016305290529 -1.02959874377438
 1  15.71256653545355 -2.05860099269927  0.61403067446745
 1  15.87258753195320  1.79771634193419  0.42729318831883
 1  16.40859551635164  0.39253987728773  1.48699212181218
 1  18.14378560026002 -0.18065227572757 -0.28190805860586
 1  17.51604619021902  0.98881076937694 -1.24338277077708
 1  17.94757944744475  2.81955835173517  0.39541493119312
 1  18.69101135533554  1.69987579707971  1.71142829282928
 1  20.17663399579958  0.79420738173817 -0.18754759855986
 1  19.73581093769377  3.68806707680768 -1.38142004440444
 1  20.96822406610661  2.45755382508251 -2.03726683328333
 1  19.19463443644364  2.10834645634563 -2.31754393589359
 1  21.14973020952095  2.01620308830883  1.71627266386639
 1  21.81703456065607  2.69225925332533  0.58523268036804
 1  20.64202383178318  3.73037623722372  1.02980171807181
 1 -7.02219405250525  1.85036390959096  0.17916976307631
 1 -7.53690523892389 -0.12877305330533 -0.18102823042304

