%nproc=3
%Mem=2GB
# td=(NStates=1) B3LYP/SVP 

TD

0 1
 6 -5.12979067716772 -1.95052129422942  0.47576245214521
 6 -4.78767908690869  2.74429088078808  1.26743312921292
 6 -9.35873578327833  3.30622142134213 -0.30088855675568
 6 -9.89431748624862 -1.54256505990599 -0.71135368876888
 7 -5.11271043334333  0.38479010191019  0.65644408140814
 6 -4.47383599969997 -0.79587630863086  0.73862730613061
 6 -3.07624731123112 -0.61252768746875  1.19400439623962
 6 -3.12197716311631  0.84541343364336  1.74018312411241
 6 -4.43045223832383  1.37637745564556  1.21861545854585
 6 -2.90597916641664  0.92496000830083  3.28768663126313
 6 -2.10637270797080 -0.82424238593859 -0.01787384178418
 6 -0.59298251045105 -0.71431964856486  0.47208966166617
 6  0.38952261366137 -0.88149502240224 -0.71219277687769
 8  0.23413518111811 -1.07802016861686 -1.88338194969497
 8  1.67587778487849 -0.65999277237724 -0.21653409610961
 7 -7.05892048664867  2.77611488328833  0.42925243444344
 6 -5.91036261166117  3.44882930123012  0.82171302820282
 6 -6.20810399609961  4.86037247674768  0.99124561736174
 6 -7.47874697149715  4.96324516001600  0.42194872227223
 6 -8.07136808270827  3.66504499819982  0.15227538293829
 6 -5.20453096959696  5.82985850095010  1.49006027202720
 6 -8.07890517321732  6.29557356895690  0.25113361466147
 6 -9.00297819601960  6.63262298419842 -0.68740121892189
 7 -9.15432363296330  0.80587782078208 -0.34238670707071
 6 -9.91361522442244  2.00093259195920 -0.40626989618962
 6 -11.27134100060006  1.77780134113411 -0.84486832073207
 6 -11.40521447194719  0.49404674477448 -1.01549650435044
 6 -10.07996022172217 -0.13933388508851 -0.79994323682368
 6 -12.23262176307631  2.91712021362136 -1.13606669696970
 6 -12.55751349084909 -0.27406988648865 -1.53726468616862
 6 -12.57710784148415 -0.52738600300030 -3.02945111641164
 7 -7.54004296189619 -1.34316600180018 -0.04046257475748
 6 -8.68919050655066 -2.04535326212621 -0.37481084348435
 6 -8.28814125312531 -3.42817970017002 -0.47025959325933
 6 -7.01208611771177 -3.52276910521052 -0.18448607250725
 6 -6.50682178557856 -2.17979079767977  0.18693376957696
 6 -9.18065082268227 -4.58511926142614 -0.88324731913191
 6 -5.78072501770177 -4.31878691379138  0.07721866746675
 8 -5.67631712191219 -5.51441097119712 -0.10811807770777
 6 -4.53692132073207 -3.42380314191419  0.49417847994799
 6 -4.04052785068507 -3.86393048654865  1.86697322302230
 8 -4.32116719021902 -3.39789772367237  2.88207627572757
 8 -3.08792748034803 -4.78619359225923  1.65830625852585
 6 -2.39432413621362 -5.36256570267027  2.71193333293329
 6  2.62857502610261 -0.90373427102710 -1.26451047684768
 6  3.97253049984998 -0.65212571497150 -0.63580568066807
 6  4.96982923952395  0.11596265116512 -1.04623858045805
 6  4.93491268696870  0.81047177887789 -2.42242935973597
 6  6.31376312151215  0.25712345154515 -0.31184009820982
 6  7.51155239563956 -0.21499768266827 -1.14448131503150
 6  8.82853445454545 -0.13528751385139 -0.24994334183418
 6  10.09365029072907 -0.70671499809981 -0.92566992179218
 6  10.08267430603060 -2.23748755165517 -1.09770905580558
 6  11.34059790999100 -0.21076539123912 -0.02608316401640
 6  12.68778045224522 -0.47254257145715 -0.76617114021402
 6  13.88986757615762 -0.09786701290129  0.15264732023202
 6  15.31541045284528 -0.22655353685369 -0.51655521342134
 6  15.55875544734473 -1.69218808420842 -0.99300806910691
 6  16.35743648794880  0.46925144244424  0.42948197049705
 6  17.68380326912691  0.66667958565857 -0.15384928632863
 6  18.54168509280928  1.59017334623462  0.80605142134213
 6  20.06568847044704  1.55279308390839  0.45294702220222
 6  20.32115281418142  2.23600017611761 -0.93572164996500
 6  20.77654017531753  2.31714305310531  1.60130191839184
 1 -3.99838749904990  3.41929316131613  1.80376525742574
 1 -10.11516937003700  4.10630787288729 -0.31142246494650
 1 -10.69640389678968 -2.16832398789879 -1.06707618071807
 1 -2.84784711171117 -1.14762399759976  2.11311218691869
 1 -2.38472978747875  1.42253247644764  1.29549246144614
 1 -2.01389164716472  0.32954932333233  3.64292339633963
 1 -3.02672816471647  2.11171622132213  3.56132632783278
 1 -3.86753635053505  0.30186537103710  3.66660183638364
 1 -2.04582009040904 -1.79175390849085 -0.66000044724472
 1 -2.36935027442744 -0.11977578657866 -0.85495218941894
 1 -0.28336415621562  0.31877573117312  0.77021738303830
 1 -0.42941328062806 -1.45514747334733  1.25359286768677
 1 -4.33557837433743  5.95003937203720  0.93974677447745
 1 -5.50628583498350  7.02518743344334  1.72852214681468
 1 -4.73230131693169  5.42554059805981  2.57361149514951
 1 -7.77863287268727  6.98816869136914  0.96237779167917
 1 -9.26532188408841  5.89901006150615 -1.53003458955896
 1 -9.64196894349435  7.59844857235724 -0.67854807770777
 1 -12.39640400240024  3.85149433663366 -0.45998381148115
 1 -11.93304715301530  3.46384034143414 -1.86546586338634
 1 -13.34356537933793  2.82948078377838 -1.46729108450845
 1 -12.87082945614561 -1.31032995969597 -1.06675142624262
 1 -13.46986401090109  0.31008516321632 -1.37496985578558
 1 -12.60048567846784  0.18875568866887 -3.67042438673867
 1 -11.80685565356536 -1.43475104870487 -3.22104105620562
 1 -13.49295604910491 -1.27348644344434 -3.36565410771077
 1 -10.11149769856986 -4.44496381618162 -0.36035833783378
 1 -9.55816979587959 -4.77570551655166 -1.91984888308831
 1 -8.77921309600960 -5.57892615961596 -0.38923687918792
 1 -3.90505235663566 -3.78570486068607 -0.43382473107311
 1 -1.64848524152415 -6.02712780848085  2.25744907900790
 1 -1.73535198159816 -4.61708519241924  3.26837127972797
 1 -3.03346636303630 -5.96401149274928  3.43240011561156
 1  2.46500040754075 -1.93784142764276 -1.63577474447445
 1  2.26338123262326 -0.39575715651565 -2.27142490969097
 1  4.20381315301530 -1.13355566986699  0.31224912791279
 1  5.77521935113511  1.81873438243824 -2.29210393019302
 1  5.15774239143914 -0.00424446194619 -3.31875327692769
 1  3.81469158735874  1.33490467726773 -2.73227405250525
 1  6.50426844304430  1.25768189318932  0.07252706160616
 1  6.23143118781878 -0.19315920552055  0.70515822322232
 1  7.26448323322332 -1.23266999159916 -1.52870362996300
 1  7.50588013051305  0.19259127972797 -2.15145997499750
 1  9.03626911431143  0.83902274357436  0.02079222752275
 1  8.46698976177618 -0.50853500500050  0.66603941634163
 1  10.20627329592959 -0.24369181248125 -1.95114968996900
 1  9.14030434663466 -2.52018071127113 -1.68095664346435
 1  10.98818384948495 -2.63373497329733 -1.55587619251925
 1  10.10875589568957 -2.65898758435844 -0.07616588588859
 1  11.30831612901290  0.94089286938694 -0.06470788558856
 1  11.34117008050805 -0.43450868736874  1.09569950015001
 1  12.82191690229023 -1.63514508570857 -1.00467368036804
 1  12.58152630483048  0.02601252225222 -1.76223775747575
 1  13.89244039893989  1.03766347714772  0.58251116201620
 1  13.85619984698470 -0.66808323612361  1.06645349124913
 1  15.28155049924992  0.53029423552355 -1.47897991129113
 1  14.77216276917692 -2.30308289008901 -1.57308664186419
 1  16.45375924942494 -1.67377141374137 -1.36884266816682
 1  15.60702598139814 -2.24009914251425 -0.01262199079908
 1  15.87087736093609  1.25299186948695  0.78626908590859
 1  16.20644530133013 -0.28934831153115  1.49617303990399
 1  18.21382260396039 -0.28970318081808 -0.48470833863386
 1  17.67442202780278  1.08946083438344 -1.16614504700470
 1  18.16868155765577  2.61043743964396  0.76877226692669
 1  18.40548280248025  1.29911572107211  1.82629977997800
 1  20.50883721612161  0.54363232423242  0.49912106830683
 1  20.05228258485849  3.34388265836584 -1.00395229762976
 1  21.40511775547555  2.24137220692069 -1.15389849644965
 1  19.92928790179018  1.65093071477148 -1.89829201070107
 1  20.72357759425943  1.92543401140114  2.54288532513251
 1  21.91594445164517  2.25370539793979  1.41631578867887
 1  20.33811344074407  3.09773297289729  1.86340507840784
 1 -7.05665749884988  1.74996386958696  0.20720256635664
 1 -7.56074762316232 -0.21359153515352  0.23953382578258

