%nproc=3
%Mem=2GB
# td=(NStates=1) B3LYP/SVP 

TD

0 1
 6 -5.07114481258126 -1.99895613771377  0.36913178907891
 6 -4.87070738973897  2.75298174987499  1.31851823772377
 6 -9.47395730543054  3.16975777497750 -0.16206467436744
 6 -9.83865191969197 -1.62917372077208 -0.95732828622862
 7 -5.22259142144214  0.44859648254825  0.72977141414141
 6 -4.53445206130613 -0.70004672567257  0.75678912231223
 6 -3.07338702520252 -0.48999543424342  1.33217821362136
 6 -3.17129209460946  0.98558745104510  1.93327243304330
 6 -4.46021521462146  1.38003782168217  1.25878947594760
 6 -3.02080064856486  1.15124263656366  3.43994185678568
 6 -2.09069113981398 -0.75295525722572  0.13671161676168
 6 -0.63686689888989 -0.51162937953795  0.62415486818682
 6  0.37676133753375 -0.64507138003800 -0.55181673927393
 8  0.10058182578258 -0.97845021162116 -1.72302591409141
 8  1.65439563666367 -0.43928070117012 -0.05825826852685
 7 -7.12523711831183  2.64734200600060  0.58372788198820
 6 -6.07413898929893  3.36744116241624  1.07142799969997
 6 -6.39268245394539  4.75685212471247  1.08161465426543
 6 -7.62978207500750  4.92892172767277  0.53079960736074
 6 -8.18907985388539  3.52517101080108  0.24174432983298
 6 -5.42538305480548  5.85080059515952  1.51881314731473
 6 -8.38375565826583  6.26178018961896  0.27856635793579
 6 -9.25770366856686  6.55799552145215 -0.66371885068507
 7 -9.26207440804080  0.71807904090409 -0.48744121252125
 6 -9.91852571547155  1.92175467416742 -0.48053732293229
 6 -11.24727859435944  1.70175373637364 -0.96381021492149
 6 -11.42595654615461  0.31915925602560 -1.17832278697870
 6 -10.20536276197620 -0.31048099979998 -0.92259550205020
 6 -12.42130063096310  2.72955145674567 -1.10049313961396
 6 -12.60650839033903 -0.33959643914391 -1.67945890559056
 6 -12.42408253895390 -0.67731099549955 -3.17924609590959
 7 -7.44704366196620 -1.33206489168917 -0.31392992149215
 6 -8.56940852835284 -2.11695042184218 -0.73435679807981
 6 -8.12313475247525 -3.49881676387639 -0.73464603190319
 6 -6.70356526562656 -3.41457828612861 -0.38138576247625
 6 -6.39314041744174 -2.07225004360436 -0.03164808860886
 6 -8.90249300690069 -4.77709845934593 -1.00836983138314
 6 -5.59439638483848 -4.30722575767577 -0.06593564796480
 8 -5.46314580478048 -5.48350788088809 -0.06148341424142
 6 -4.45320294889489 -3.31004176577658  0.34356341844184
 6 -3.88378217611761 -3.72123621712171  1.76665319101910
 8 -4.06350142364236 -3.17848578247825  2.84317238533853
 8 -3.03991267886789 -4.74617959085909  1.59100952885288
 6 -2.51601630543054 -5.31122056815682  2.82561470107011
 6  2.65517768636864 -0.63860775837584 -1.03696772257226
 6  3.99507275407541 -0.34107460986099 -0.42227432753275
 6  5.07447970457046  0.34149520442044 -0.90197415401540
 6  4.88346754245425  1.04080481218122 -2.22510962776278
 6  6.35525727092709  0.57083482268227 -0.04750366456646
 6  7.49372061246125 -0.23746992989299 -0.79876674357436
 6  8.82476407750775 -0.18027201230123 -0.07428577607761
 6  10.07485841154115 -0.71912623922392 -0.76527388218822
 6  9.88146418501850 -2.27966176907691 -1.00653993889389
 6  11.29313316351635 -0.30878519321932  0.02993243754375
 6  12.67484915911591 -0.60407572477248 -0.67300182328233
 6  13.87738632803280 -0.06673389958996  0.07618967446745
 6  15.22531144294429 -0.28616949844984 -0.59384294219422
 6  15.53991356315631 -1.84841370677068 -0.59995876417642
 6  16.30080082438244  0.51892640994099  0.21209023132313
 6  17.69864475327533  0.54428734643464 -0.31927582898290
 6  18.67653857815781  1.35142947184718  0.44392520872087
 6  20.22223412501250  1.24538234283428  0.21702342984298
 6  20.42960365926593  1.90782735883588 -1.20845892369237
 6  21.06120864216422  2.12422376117612  1.21693348154815
 1 -4.13598125842584  3.47672890489049  1.78927380828083
 1 -9.98622647574757  4.00566780888089 -0.28195951865186
 1 -10.57508176457646 -2.33189034453445 -1.31791126422642
 1 -2.82505483248325 -1.03162239743974  2.25140601630163
 1 -2.47609892439244  1.61667189038904  1.47581049324933
 1 -1.97675793379338  0.97050341874187  3.76659576357636
 1 -3.22325781768177  2.14843989368937  3.69103929912991
 1 -3.77841743864386  0.43700888538854  3.63982915911591
 1 -2.15681118951895 -1.69088382148215 -0.12461690889089
 1 -2.47991133053305 -0.13134694369437 -0.62479917411741
 1 -0.51956777657766  0.48918277187719  0.91975233653365
 1 -0.19046938623862 -1.23597555615562  1.52827033543354
 1 -4.58538335483548  5.94138850695070  0.82717551735173
 1 -5.87522272867287  6.86181109580958  1.53692298689869
 1 -5.08554664146415  5.73145118911891  2.52503663766377
 1 -7.93503851325133  7.06456633113311  0.96068762266227
 1 -9.62981833373337  5.84723488398840 -1.31864345044505
 1 -9.71904665126513  7.48965769326933 -0.69713993689369
 1 -12.40823518551855  3.25358454565457 -0.05199301240124
 1 -12.20912476077608  3.40068402580258 -1.84319363616362
 1 -13.23555457825782  2.41270910661066 -1.50990534593459
 1 -12.84323669686969 -1.24852377907791 -1.07019177027703
 1 -13.36979400390039  0.28798295299530 -1.54045640444044
 1 -12.44479010891089  0.23529034213421 -3.78334567886789
 1 -11.40013498149815 -1.11933950755076 -3.32160111221122
 1 -13.30065681918192 -1.37278637343734 -3.59888743104310
 1 -10.08594514331433 -4.67063638343834 -0.96104840684068
 1 -8.80253423232323 -5.02341028702870 -2.37530442864286
 1 -8.38980415511551 -5.64425269226923 -0.19068702420242
 1 -3.55492734413441 -3.47086337653765 -0.33055440404040
 1 -2.16328672167217 -6.23444854055406  2.46684001810181
 1 -2.08861730813081 -4.35348883278328  3.43702814541454
 1 -3.41247426382638 -5.37034212581258  3.50663753935394
 1  2.72103601110111 -1.50249789328933 -1.46758792579258
 1  2.46750164466447 -0.01630921172117 -1.89860762796280
 1  4.00683345504550 -0.52435474977498  0.62987089008901
 1  5.54342617181718  1.93885639463946 -2.30690541034103
 1  5.39515613281328  0.45052101460146 -3.16983838543854
 1  3.86852697089709  1.49822100890089 -2.71191201630163
 1  6.68392640884088  1.62712883788379 -0.02646283738374
 1  6.18951699639964  0.14803491389139  0.99554726212621
 1  7.14572135703570 -1.27056378097810 -1.27436819641964
 1  7.52331187368737  0.24656667726773 -1.87219204820482
 1  9.10122560996099  0.80827966926693  0.04763491179118
 1  8.75507857065707 -0.82530668216822  0.87312012441244
 1  10.11034370297030 -0.29738718201820 -1.77576215121512
 1  9.09348966516652 -2.35006369956996 -1.62099064686469
 1  10.58152318341834 -2.88456005580558 -1.43881448634864
 1  9.47066208630863 -2.81897358295830 -0.15869413871387
 1  11.35711100850085  0.64747352745275  0.36626521172117
 1  11.34278024152415 -0.92142737923792  1.05030496069607
 1  12.68444315491549 -1.83243481468147 -0.94072728572857
 1  12.48119627182718 -0.07859793879388 -1.73642517621762
 1  13.68131928682868  0.97348705950595  0.29723263416342
 1  13.94416864386439 -0.46536296409641  1.15546239213921
 1  15.22961530573057  0.11489269536954 -1.54214622792279
 1  14.86212176507651 -2.41955453725373 -0.99916925012501
 1  16.49429330283028 -1.90365440204020 -1.09709549344935
 1  15.41406668546855 -2.26715184778478  0.46534580598060
 1  15.83926419961996  1.71949852015202  0.29876033503350
 1  16.37887254405441  0.05165578887889  1.21913533613361
 1  18.29241046274628 -0.39656386688669 -0.30413028082808
 1  17.86446103170317  0.80614250255026 -1.40022845534553
 1  18.40825551505150  2.45781217711771  0.36064145384538
 1  18.66633888808881  1.03163897339734  1.60515766576658
 1  20.41234756715671 -0.10897293629363  0.24242539873987
 1  20.42487984458446  3.02868113821382 -1.18378028042804
 1  21.53748099179918  1.67206527622762 -1.32788589518952
 1  19.98164313731373  1.48677429912991 -2.16588877037704
 1  21.07617285378538  1.57334880288029  2.25400643724372
 1  22.20247310451045  2.02396242364236  0.85624978207821
 1  20.72300192959296  3.17823102270227  1.06801553945395
 1 -7.31342317541754  1.58281715491549  0.51435328142814
 1 -7.71994354275428 -0.32287246324632 -0.01468159575958

