%nproc=3
%Mem=2GB
# td=(NStates=1) B3LYP/SVP 

TD

0 1
 6 -5.14068176627663 -1.95691193329333  0.54382925882588
 6 -4.65343566256626  2.75391184288429  1.49276566246625
 6 -9.20694060376038  3.33346414561456 -0.24719318721872
 6 -9.75673372787279 -1.32241304470447 -1.17764031743174
 7 -5.09166832913291  0.35800742364236  0.83350178717872
 6 -4.45747436353635 -0.73386010701070  0.83139658305831
 6 -2.97198688518852 -0.65809224392439  1.27245224102410
 6 -2.99302426782678  0.88378727102710  1.85359446524652
 6 -4.30673986708671  1.40991080898090  1.28410200720072
 6 -2.89698826732673  0.86353386568657  3.29039690229023
 6 -2.01242331303130 -0.86305626732673  0.15659360496050
 6 -0.57992120432043 -0.86266448304831  0.56241869456946
 6  0.40316397779778 -1.14522139503950 -0.55353691129113
 8  0.06774854245425 -1.19078144474447 -1.80234384588459
 8  1.61799199629963 -0.95792256535654 -0.22273471617162
 7 -6.96919151375138  2.79547681948195  0.51959146834683
 6 -5.86527810321032  3.37417183548355  1.05663652055206
 6 -6.11149433513351  4.84529096859686  1.15555204800480
 6 -7.51566066286629  4.92910174567457  0.63928045544554
 6 -7.95372631853185  3.64618311201120  0.24439459485949
 6 -5.05571608810881  5.75596111121112  1.53708497449745
 6 -8.12239952265226  6.25906991859186  0.47270577187719
 6 -9.04570246844684  6.67978770067007 -0.41863434223422
 7 -9.15321352195219  0.85425265826583 -0.58962143054305
 6 -9.73044690759076  2.12640513921392 -0.50937020622062
 6 -11.16159002550255  1.90785434643464 -0.99684351825183
 6 -11.36320027052705  0.60083742384238 -1.28994394909491
 6 -10.14472669836984 -0.01678162986299 -1.01692493499350
 6 -12.15905440634063  3.02655115671567 -1.29628271857186
 6 -12.52017975747575 -0.13672615211521 -1.89006996669667
 6 -12.48273840454045 -0.53994725912591 -3.36656482778278
 7 -7.56139509710971 -1.23140482568257 -0.18955748424842
 6 -8.58953054055405 -2.00499922672267 -0.66132949534954
 6 -8.19029146814682 -3.29209609180918 -0.70168273557356
 6 -6.88040294939494 -3.32370919921992 -0.26995461936194
 6 -6.46065716911691 -2.07012983158316  0.04578965516552
 6 -9.10046280388039 -4.41323207270727 -1.05736473087309
 6 -5.82084903010301 -4.28632366746675  0.13623456905691
 8 -5.68749824002400 -5.48178770887089  0.04968770287029
 6 -4.61588921752175 -3.35572633423342  0.58660772287229
 6 -3.99710350825083 -3.86526061956196  1.86442296799680
 8 -4.40541561506151 -3.40396833073307  2.97789585768577
 8 -3.02893158075808 -4.78570354325433  1.67546797469747
 6 -2.70972567636764 -5.48465791189119  2.88061020062006
 6  2.59138130673067 -1.10602450005000 -1.20003402920292
 6  3.94225747254725 -0.79129963236324 -0.48618071817182
 6  5.01544380098010 -0.15584452955296 -0.98369232583258
 6  4.89850904660466  0.46227695939594 -2.45355247204720
 6  6.19571131633163  0.00557829702970 -0.33371228542854
 6  7.45759700010001 -0.51285746864686 -0.98554542144214
 6  8.72853445454546 -0.16530051515152 -0.17617596509651
 6  10.07511843754375 -0.86563088968897 -0.86392374717472
 6  9.88583462206221 -2.37719152205221 -1.04232351725173
 6  11.24376822702270 -0.51278559325933  0.06434587888789
 6  12.61520319451945 -0.68846416361636 -0.62716723982398
 6  13.72319090849085 -0.04779200540054  0.14903695919592
 6  15.27616652845284 -0.29445032653265 -0.40061361926193
 6  15.60388996079608 -1.68643750915092 -0.43898266656666
 6  16.13516426072608  0.71605612291229  0.31761078337834
 6  17.65208009680968  0.70507342504250 -0.13658756015602
 6  18.44863578787879  1.76140046894689  0.54050486668667
 6  20.04012591419142  1.97747555215522  0.06125785328533
 6  20.01923262216222  2.64125070117012 -1.35705378317832
 6  20.76612913421342  2.88630996979698  1.15516730493049
 1 -3.85736339663966  3.41200243224322  1.72460734163416
 1 -9.82792064516452  4.22018926102610 -0.34591591429143
 1 -10.54634889128913 -2.14243139863986 -1.48862833593359
 1 -2.95395772277228 -1.19657889308931  2.20188106380638
 1 -2.41044235873587  1.50161038423842  1.36261917411741
 1 -1.98442870087009  0.27325369376938  3.63968307230723
 1 -2.78971446334634  1.84028907860786  3.62928312351235
 1 -3.68109770667067  0.52194737923792  3.89380455665566
 1 -2.22585809420942 -1.81265599869987 -0.53396784398440
 1 -2.35497883728373 -0.21270507950795 -0.73111980618062
 1 -0.37860368016802 -0.04892103850385  1.15036539783978
 1 -0.41239157845785 -1.73884584318432  1.29926743514351
 1 -4.13727854435444  5.66842121022102  0.91627442724272
 1 -5.30609581598160  6.72805772047205  1.71074036863686
 1 -4.99766785358536  5.57096514051405  2.55751988598860
 1 -7.89678468786879  7.00642051655165  1.30646220012001
 1 -9.26775212711271  6.14010417091709 -1.26426801290129
 1 -9.33852859945994  7.78788751625163 -0.34863508640864
 1 -12.29764412641264  4.02992217941794 -0.47005481858186
 1 -11.98037188548855  3.56899085648565 -2.14074339113911
 1 -13.35974699749975  2.69574741044104 -1.25915027042704
 1 -12.71470384358436 -1.14692361906191 -1.24385913701370
 1 -13.24663168766877  0.42161631633163 -1.72361472027203
 1 -12.43570920082008  0.41812862596260 -3.70505785008501
 1 -11.55710067806781 -1.20334790839084 -3.62176112821282
 1 -13.53767052055206 -0.82003109790979 -3.51645918821882
 1 -10.10913746254626 -4.46179549934993 -0.67678998099810
 1 -9.02090606950695 -4.43719166516652 -2.29017591579158
 1 -8.68625380008001 -5.37865613261326 -0.86130408590859
 1 -3.70935278667867 -3.54630092029203 -0.09139048764877
 1 -1.56433682668267 -5.70332542824282  2.50250358445845
 1 -2.50179862626263 -4.74049753365336  3.84766920952095
 1 -3.47357037343734 -6.27616270787079  3.33812068766877
 1  2.55574948244824 -2.13147079057906 -1.76380754775478
 1  2.31255615011501 -0.41451903270327 -2.01500926812681
 1  3.89817258895890 -1.22559487378738  0.41926982998300
 1  5.52508433763376  1.54206671567157 -2.49238395819582
 1  5.37972458965897 -0.20171420892089 -3.09978137973797
 1  3.89804992319232  0.51973316011601 -2.67369819491949
 1  6.50096811301130  1.14601072607261  0.01624143304330
 1  6.23717176187619 -0.71629151875188  0.58536624402440
 1  7.35448223312331 -1.61245797039704 -1.06599735933593
 1  7.78136767926793 -0.40962894229423 -2.08982381138114
 1  9.00286577397740  0.92478131943194 -0.27784763646365
 1  8.72461552435244 -0.55908005950595  0.97575038743874
 1  10.16194886348635 -0.47572501580158 -1.95032960796080
 1  9.36736705290529 -2.47310600380038 -2.01036958475848
 1  10.88124315541554 -2.84838643844384 -1.22575318021802
 1  9.30308532863286 -3.01520320592059 -0.18745701500150
 1  11.04256955435544  0.52142092219222  0.33152173737374
 1  11.33808977247725 -1.21520675717572  0.90007993819382
 1  12.91441615221522 -1.80454202540254 -0.80856406940694
 1  12.51860001220122 -0.06712679167917 -1.73072460616062
 1  13.55427658255826  1.14957466826683  0.48971188208821
 1  13.70827505450545 -0.69545597339734  1.16049289518952
 1  15.35590793499350  0.09291049714972 -1.45279729302930
 1  14.62024757765776 -2.21085366716672 -0.99741907510751
 1  16.59834370787079 -1.68331236783678 -0.98997478137814
 1  15.72487776657666 -2.08537366996700  0.58157742914291
 1  15.82273254645465  1.72699927022702  0.44320477947795
 1  16.25886054285429  0.38977960126013  1.41058448104810
 1  18.19191041274127 -0.32238644914491 -0.09343921172117
 1  17.82315690129013  1.14801668996900 -1.14277270977098
 1  17.91237592709271  2.69849624552455  0.60319570927093
 1  18.51244349854986  1.47531334083408  1.67890504050405
 1  20.56182251465146  1.02833079407941 -0.06343518731873
 1  19.42154951155116  3.46227449754976 -1.21388329072907
 1  20.97617486118612  2.92972104180418 -1.75977908450845
 1  19.58669364236424  1.88378400010001 -2.19787196869687
 1  20.81405664216422  2.25602707070707  2.12554359095910
 1  21.77480033723372  3.04847487488749  0.68946310341034
 1  20.37194682408241  3.94965816541654  1.44184292219222
 1 -6.81087292039204  1.70957983118312  0.29290113621362
 1 -7.58754030243024 -0.22031220722072 -0.06946707430743

