%nproc=3
%Mem=2GB
# td=(NStates=1) B3LYP/SVP 

TD

0 1
 6 -5.13832153025303 -1.95717195929593  0.46772164806481
 6 -4.78951927092709  2.83229968166817  1.31897828372837
 6 -9.35172508220822  3.35151595079508 -0.31601006890689
 6 -9.91381943644364 -1.48715951935194 -0.78366091949195
 7 -5.18736789908991  0.49050067296730  0.76948538553855
 6 -4.53510212631263 -0.68235495649565  0.72684612801280
 6 -3.11598128462846 -0.51916835153515  1.19802479827983
 6 -3.07201216661666  0.91863075537554  1.69972907870787
 6 -4.43325251835183  1.45193501140114  1.15879947694770
 6 -2.95706427492749  1.04574208650865  3.20979884248425
 6 -2.09144121482148 -0.77664762646265  0.02463040864086
 6 -0.57831104330433 -0.68843706030603  0.46545899859986
 6  0.38784244564456 -1.00032690559056 -0.61249280688069
 8  0.06255802340234 -1.53810617721772 -1.67823143464346
 8  1.64424462156216 -0.71400817391739 -0.33597604030403
 7 -6.98684327892789  2.73613088488849  0.32696220542054
 6 -5.94306588198820  3.38804322262226  0.85933679057906
 6 -6.22264545024502  4.80901734123412  0.98381487428743
 6 -7.52573166996700  5.02375121062106  0.40410693809381
 6 -8.07412835873587  3.75662415611561  0.06990714611461
 6 -5.25607612411241  5.82298781388139  1.39298056405641
 6 -8.17949523222322  6.30457446904690  0.27966646794679
 6 -9.11806970517052  6.60189991189119 -0.63544602340234
 7 -9.26907510811081  0.87798503150315 -0.34180664906491
 6 -9.93098696159616  1.98018051675168 -0.46925619481948
 6 -11.35878974547455  1.82501606260626 -0.74719855375538
 6 -11.47488143864386  0.52481982208221 -0.97526248094810
 6 -10.15712793849385 -0.06839679137914 -0.75253849634964
 6 -12.25293379427943  3.03155165676568 -1.05497858815882
 6 -12.77247498699870 -0.29058153765377 -1.32826378607861
 6 -12.93928405910591 -0.41426469086909 -2.88446661796180
 7 -7.53868282588259 -1.33912559775978 -0.16015454395440
 6 -8.60377196469647 -2.11025975277528 -0.54378774117412
 6 -8.25891833083308 -3.40851773397340 -0.55229779707971
 6 -6.85814072317232 -3.45885271357136 -0.16643426732673
 6 -6.50114121752175 -2.10117293589359  0.00400547674767
 6 -9.17626038363836 -4.53076382588259 -0.90580957535754
 6 -5.78029497469747 -4.36829186428643  0.01328227382738
 8 -5.65188467866787 -5.58674820492049  0.07783051715172
 6 -4.53148077667767 -3.38872963456346  0.38428749084909
 6 -3.84278807670767 -3.92335642914291  1.71363788948895
 8 -4.19848492199220 -3.51918985288529  2.82026009410941
 8 -2.82502118971897 -4.74003897679768  1.46041646954695
 6 -2.32963766756676 -5.47684713081308  2.61208334793479
 6  2.69182135073507 -1.01160505810581 -1.28902292809281
 6  4.03589683648365 -0.87006750915092 -0.71243334343434
 6  4.98890114671467 -0.04053299839984 -1.12346630323032
 6  4.86106530223022  1.06740747244724 -2.29751686848685
 6  6.29193093829383  0.14293203240324 -0.39865878007801
 6  7.56866810721072 -0.47107329022902 -1.10772763966397
 6  8.83132473357336 -0.31278526362636 -0.13698204570457
 6  10.15448637433743 -0.74465879247925 -0.83996135093509
 6  10.17736377497750 -2.14828863176318 -1.41916120102010
 6  11.39801365156516 -0.35126944164416  0.05693513781378
 6  12.69221089528953 -0.47005232243224 -0.60260478357836
 6  13.85441403080308 -0.12188941514151  0.32994505000500
 6  15.29566847864786 -0.20229111061106 -0.21783534143414
 6  15.71455102690269 -1.75004386978698 -0.44846361466147
 6  16.23295403970397  0.52529704700470  0.72613163546355
 6  17.68221311011101  0.91133405110511  0.04250034863486
 6  18.63645456975697  1.71803613251325  0.78931974817482
 6  20.13746564816482  1.57270507510751  0.18358008550855
 6  20.30884158305831  2.27049362546255 -1.17317539533953
 6  21.15280780208021  2.30516185498550  1.19065085328533
 1 -4.03784144444444  3.54612584458446  1.85874075497550
 1 -10.23786163926393  4.07363460556056 -0.50125144784478
 1 -10.85872012841284 -2.13560071557156 -1.01270074317432
 1 -2.98205053205321 -1.16835607080708  1.95867674337434
 1 -2.41950326482648  1.52657288048805  1.19032194439444
 1 -2.09322958095810  0.64569093749375  3.61328043204320
 1 -2.97701319321932  2.19676472617262  3.71750194539454
 1 -3.75725532243224  0.29936512101210  3.69915509170917
 1 -2.22342785118512 -1.63141787488749 -0.61108555575558
 1 -2.29849318871887 -0.00781459045905 -0.77017371157116
 1 -0.53239905970597  0.36778063166317  0.89044940624062
 1 -0.45385572487249 -1.58714067266727  1.31907941634163
 1 -4.38297311381138  5.64209857795780  0.73019581938194
 1 -5.71784699109911  6.83726864156416  0.90149944454445
 1 -4.89422750955096  5.85342338633863  2.45986012001200
 1 -7.83146815621562  7.25152502700270  0.90165171907191
 1 -9.52805815771577  5.78092825332533 -1.22329391549155
 1 -9.69373412001200  7.60272900040004 -0.56121634453445
 1 -12.41934629662966  3.70353954115412 -0.12768058115812
 1 -11.73985783408341  3.52188614601460 -1.95619493629363
 1 -13.12974399719972  2.71618945464546 -1.15451980738074
 1 -12.72249462266227 -1.33998292499250 -0.96311106220622
 1 -13.79521654615461  0.09013316801680 -0.92773513231323
 1 -13.06010164006400  0.56621343444344 -3.17459480378038
 1 -11.86528149614962 -0.83058063166317 -3.48899785188519
 1 -13.68751550505051 -1.00285938073807 -3.32008955125513
 1 -10.14589113791379 -4.63809312911291 -0.32890519251925
 1 -9.57320129902990 -4.27954590059006 -1.83876077427743
 1 -8.50608578327833 -5.43874214121412 -0.93183113861386
 1 -3.88598044944494 -3.56534282448245 -0.62874422302230
 1 -1.54514490749075 -6.08413350905090  2.29334266836684
 1 -2.02867131353135 -4.78301178507851  3.53088753135314
 1 -3.23426644304430 -6.02102719431943  3.20722759835984
 1  2.41198510601060 -1.98434607810781 -1.84759592659266
 1  2.53473836833683 -0.30195777657766 -2.13899166636664
 1  4.26878965066507 -1.34536685098510  0.18004590759076
 1  4.84697652685269  2.13893640264026 -1.78075279507951
 1  5.62655927312731  0.95408137063706 -3.08295969756976
 1  4.04852497069707  0.70860204700470 -2.71918274337434
 1  6.40265828202820  1.15790191519152 -0.15075526662666
 1  6.31413945864587 -0.29522941254125  0.43665137253725
 1  7.37652443734373 -1.37826455105511 -1.49249000860086
 1  7.73983352585259  0.12165418601860 -1.93238806780678
 1  8.92496798419842  0.76250509180918  0.02100224852485
 1  8.58466152895289 -0.92797694919492  0.80767357975798
 1  10.13750641924192  0.13747630433043 -1.69943451845185
 1  9.33746406260626 -2.61555024822482 -2.22080062786279
 1  11.09532456355636 -2.26077767756776 -1.93753435833583
 1  10.07125214531453 -2.89413109870987 -0.51496976627663
 1  11.32375767316732  0.78199697979798  0.45616420162016
 1  11.35645160866087 -1.05215045154515  1.07829775997600
 1  13.06055076567657 -1.62302387358736 -1.03676688968897
 1  12.69341749394940  0.32359228022802 -1.60551208490849
 1  13.62747390229023  0.93581329212921  0.81662457335734
 1  13.91397562456246 -0.91789821762176  1.27379422532253
 1  15.34048639283928  0.38375958205821 -1.34110612391239
 1  14.99338489138914 -2.25875845764576 -1.56597593079308
 1  16.70479435293529 -1.55869990659066 -0.83541932583258
 1  15.77463274207421 -2.26653178577858  0.38806807820782
 1  15.76387666086609  1.45059162946295  0.94052451145115
 1  16.23724838163816  0.00573119641964  1.76124954755476
 1  18.28460968266826 -0.05094930543054 -0.03021288908891
 1  17.15835042064207  1.30371225952595 -0.93117154965497
 1  18.17973266276628  2.82194859075908  0.88165355505551
 1  18.58889114331433  1.49140494999500  1.93360051005101
 1  20.43622995539554  0.53911187218722  0.06353750995100
 1  19.88015537213721  3.39358762886289 -0.99639154155415
 1  21.42829007270727  2.38673674337434 -1.84625773237324
 1  19.51899687268727  2.05164078577858 -1.85266744824483
 1  21.42874811131113  1.72370383838384  2.02062309890989
 1  22.07392024922492  2.35737576497650  0.55218937603760
 1  20.87357698709871  3.40167336693669  1.45189392729273
 1 -7.14397623072307  1.82466133933393  0.34008585468547
 1 -7.76561811021102 -0.18704888088809 -0.14511463906391

