%nproc=3
%Mem=2GB
# td=(NStates=1) B3LYP/SVP 

TD

0 1
 6 -5.14292199029903 -1.94267050915092  0.41999687558756
 6 -4.79208952795280  2.81890834253425  1.48961534743474
 6 -9.35994590429043  3.25955675487549 -0.21614008190819
 6 -9.76246430093009 -1.58638944234423 -1.01425397879788
 7 -5.27533669596960  0.54126574947495  0.79327776477648
 6 -4.62962157825783 -0.69348606960696  0.71373481688169
 6 -3.03321300780078 -0.41339777447745  1.05878087388739
 6 -3.12703766916692  0.98054694699470  1.84496360216022
 6 -4.44177337043704  1.43397321522152  1.29545314231423
 6 -3.11144971347135  0.97085459775978  3.34792265486549
 6 -2.03250532123212 -0.51206116781678 -0.04405646004600
 6 -0.61460467266727 -0.62840105670567  0.40597305000500
 6  0.46075973737374 -0.90697757065707 -0.81545310291029
 8  0.05550731833183 -1.16514888148815 -1.95229884138414
 8  1.62684288138814 -0.52808958205821 -0.42056449914992
 7 -7.06534112871287  2.74593186498650  0.54591410061006
 6 -6.00246182158216  3.46782120042004  1.07007786468647
 6 -6.25680886658666  4.83428986848685  1.10565705850585
 6 -7.61494059085909  4.88602743824382  0.60930745814581
 6 -8.04783572947295  3.54443293699370  0.17672782818282
 6 -5.38648916541654  5.94233974907491  1.61671293729373
 6 -8.38669595229523  6.22186619821982  0.46262476377638
 6 -9.29370726892689  6.66006572847285 -0.33648612741274
 7 -9.14390259085908  0.76999423242324 -0.42372484088409
 6 -9.80058392129213  1.97214971367137 -0.55156442564256
 6 -11.25809967646765  1.79396295729573 -0.92992682658266
 6 -11.24316826732673  0.43185052515252 -1.15028998369837
 6 -10.02454468016802 -0.23463341504150 -0.80695393789379
 6 -12.32113061396140  2.80099860146015 -1.10536362666267
 6 -12.58026576607661 -0.42942542204220 -1.56653761346135
 6 -12.68473860456046 -0.52675593999400 -3.05829400070007
 7 -7.49487844544454 -1.34062574777478 -0.20479900840084
 6 -8.56638822632263 -2.16993572037204 -0.70465382778278
 6 -8.08255069406941 -3.50441732393239 -0.76566913421342
 6 -6.76061097019702 -3.45643247154715 -0.39081670557056
 6 -6.46071717511751 -2.06126894549455  0.00362543874387
 6 -8.91251400900090 -4.68577932743274 -1.08196719111911
 6 -5.63888083328333 -4.29713474857486 -0.00308936333633
 8 -5.39193868406841 -5.51923145324532  0.14301703580358
 6 -4.42090971957196 -3.22302306390639  0.45628469056906
 6 -3.91381517941794 -3.68364245774577  1.78965549124912
 8 -4.28499357285729 -3.28785671957196  2.91009907800780
 8 -2.92658134573457 -4.60239521242124  1.59936036393639
 6 -2.39165386918692 -5.22174162026203  2.78747088668867
 6  2.68165033363336 -0.93982788038804 -1.35142916871687
 6  3.96756000280028 -0.62059256165617 -0.58276037613761
 6  5.01182343894389  0.10380143504350 -1.22491644824482
 6  4.98814801050105  0.61831256295630 -2.64753186998700
 6  6.21856360156016  0.34248198739874 -0.37205611981198
 6  7.55095633603360 -0.41142732563256 -0.99481634853485
 6  8.78004960606061 -0.35033901900190 -0.13515186268627
 6  10.10628155385539 -0.71630595719572 -0.66228358315832
 6  10.15157119571957 -2.22592639553955 -1.05188447334733
 6  11.36400025022502 -0.34485880058006  0.27339678397840
 6  12.62660433463346 -0.51336665386539 -0.36738126122612
 6  13.77504609400940 -0.05961318751875  0.50146220172017
 6  15.19378829062906 -0.32938381988199 -0.25481903980398
 6  15.63249282108211 -1.87161602700270 -0.06364513281328
 6  16.22429317361736  0.49219373667367  0.47565658795880
 6  17.53811870067007  0.55460837853785 -0.17886178757876
 6  18.58884980928093  1.47539186808681  0.53153396959696
 6  19.99594149574957  1.61393919851985 -0.08586685918592
 6  20.11061176007601  2.19107568366837 -1.43049112691269
 6  20.94793731503151  2.29872121092109  1.01563335153515
 1 -4.11966962726273  3.56736796879688  1.91158603950395
 1 -10.03856170927093  4.11953919601960 -0.29514083678368
 1 -10.68097235363536 -2.19430658615862 -1.38833830693069
 1 -2.70803313031303 -1.18348758395840  1.58275915161516
 1 -2.22993430793079  1.53358358155816  1.39732264446445
 1 -2.10072033003300  0.72148851725172  3.69694879887989
 1 -3.27784327622762  1.99148419811981  3.96350654585459
 1 -3.59373897079708  0.07286247074707  3.80378555475548
 1 -2.34437994639464 -1.42167690079008 -0.55443989118912
 1 -2.17626096549655  0.34230042104210 -0.69554624882488
 1 -0.41241706150615  0.31623547714771  0.96133649494949
 1 -0.47549788908891 -1.35406736533653  1.23667117551755
 1 -4.62529734623462  6.30636500460046  0.84530733053305
 1 -6.09459466586659  6.69682459715972  1.84481377597760
 1 -4.74191227802780  5.58144618861886  2.56562069606961
 1 -8.19452446184619  6.95634550905090  1.35291684558456
 1 -9.53012836473647  6.07479764026403 -1.33230481658166
 1 -9.58857360396040  7.65446417391739 -0.47911813471347
 1 -12.51155551755176  3.69359854705471 -0.25867368046805
 1 -11.89094294259426  3.30808476587659 -1.85913523032303
 1 -13.25414643744374  2.22712054775478 -1.34683903930393
 1 -12.49704207740774 -1.62691161786179 -0.87933268436844
 1 -13.46547357185718 -0.11373721902190 -1.28119047784778
 1 -12.71023665356536  0.61594840794079 -3.38673601790179
 1 -11.87401236923692 -0.98053562716272 -3.45282423452345
 1 -13.46027278077808 -0.86892598739874 -3.26169371167117
 1 -9.83755030383038 -4.68086740654065 -0.42557485948595
 1 -9.07763174207420 -4.84237218321832 -2.20482738093809
 1 -8.46644181888189 -5.74541280828083 -0.83610156565657
 1 -3.58177002840284 -3.50596688688869 -0.21808315691569
 1 -1.93228362136214 -6.26574166986699  2.36806014011401
 1 -1.68736718311831 -4.49823330723072  3.05603004560456
 1 -3.17751076747675 -5.50503559515952  3.65197207280728
 1  2.55053896139614 -2.03391103460346 -1.64385555255526
 1  2.66564145864587 -0.36135371617162 -2.43059082628263
 1  4.03162593429343 -0.93467578187819  0.53401130413041
 1  5.47291912111211  1.50580308930893 -2.60118483828383
 1  5.56076269346935 -0.15052909040904 -3.35616701830183
 1  3.99070918911891  0.66897808460846 -2.94085491059106
 1  6.77216523272327  1.40759688468847  0.07937774667467
 1  6.21114915961596 -0.28465835543554  0.62392009940994
 1  7.26522330723072 -1.43811053565357 -1.04025478507851
 1  7.69217876037604 -0.13649162856286 -1.87807263626363
 1  8.77699318671867  0.63621246254625  0.23357350565056
 1  8.80399346214621 -0.86811096259626  0.84479729212921
 1  10.60168283688369 -0.26041348464846 -1.44827940294029
 1  9.53207352355236 -2.58068676187619 -1.70802935073507
 1  11.03397842894289 -2.61633323312331 -1.55440604550455
 1  10.06187120722072 -2.89629131473147 -0.11839010831083
 1  11.04393969136914  0.59163794389439  0.66505509070907
 1  11.35808177167717 -0.88912414891489  1.12284221442144
 1  12.85731044164416 -1.52016358755876 -0.70976418941894
 1  12.55096324852485  0.22255217621762 -1.35398693239324
 1  13.69957111201120  1.06619633043304  0.68451136203620
 1  13.73581780878088 -0.40748717651765  1.63674051995200
 1  15.08030037423742  0.13468467456746 -1.11720373367337
 1  14.78747430033003 -2.70214279607961 -0.48774810801080
 1  16.51552542604260 -1.81414545114511 -0.67670345424542
 1  15.96721200000000 -2.15302043464346  1.02868213961396
 1  15.62828310151015  1.49810638093809  0.75573603260326
 1  16.60829548634863 -0.05147452415242  1.42423584618462
 1  17.98906012771277 -0.38347255775578 -0.26939680748075
 1  17.41956654225423  1.13821570987099 -1.25121355385539
 1  18.31797648714872  2.44230062596260  0.63099848954896
 1  18.79429168336834  1.17539334883488  1.60893804380438
 1  20.19071540394039  0.49828778977898 -0.13875271907191
 1  19.52191954855486  3.12295056515652 -1.34220612301230
 1  21.09830707440744  2.25395346504650 -1.63093620022002
 1  19.55323029602960  1.36708232993299 -2.18244042554255
 1  20.88853408990899  1.90136160416042  1.97132816941694
 1  22.09044190139014  2.42145217261726  0.43640779787979
 1  20.54701433083308  3.33380658025803  0.89885862376238
 1 -7.14194602770277  1.80533940714071  0.51490333643364
 1 -7.83046459485948 -0.35945612161216 -0.17142727032703

