%nproc=3
%Mem=2GB
# td=(NStates=1) B3LYP/SVP 

TD

0 1
 6 -5.01885958405841 -1.88642488458846  0.36810168606861
 6 -4.82231255025503  2.80609706140614  1.55603198909891
 6 -9.33720363006301  3.30748154735473 -0.19864833273327
 6 -9.75380343484348 -1.62423322672267 -0.97665021842184
 7 -5.14931409370937  0.53119474237424  0.80018845584558
 6 -4.54322293839384 -0.69501622262226  0.82527597099710
 6 -3.05300498699870 -0.53048948364836  1.20722571837184
 6 -3.03223818921892  0.94211310361036  1.90117922372237
 6 -4.42409160226023  1.43519333723372  1.40288388538854
 6 -3.01612018051805  1.02108962126213  3.43179104170417
 6 -2.01131320202020 -0.58404836653665  0.11941988758876
 6 -0.58327153935394 -0.44272248884888  0.56446889958996
 6  0.41197485888589 -0.74905177807781 -0.52724428202820
 8  0.16582835043504 -1.23390575717572 -1.62161577307731
 8  1.66408660576058 -0.48787556065607 -0.23037548024802
 7 -7.13363795839584  2.69489676147615  0.45732524172417
 6 -6.08147972337234  3.34458887718772  1.10051090799080
 6 -6.45149833553355  4.81092753225323  1.15443193599360
 6 -7.66209530633063  4.92530136563656  0.67715424282428
 6 -8.16909785568557  3.49437793149315  0.31045120052005
 6 -5.46239675617562  5.86925244034403  1.56042730873087
 6 -8.34796207890789  6.21185519711971  0.40770927222722
 6 -9.25819371757176  6.49771949384938 -0.52956543534353
 7 -9.33412161276128  0.73779101210121 -0.48947141554155
 6 -9.83505736863686  1.94660715941594 -0.52873214241424
 6 -11.25963983048305  1.77395095609561 -1.04254808870887
 6 -11.38674262476247  0.36385372547255 -1.21684663936394
 6 -10.21923414911491 -0.20732068376838 -0.89012225472547
 6 -12.34933343424342  2.82146064766477 -1.07819090939094
 6 -12.57718545804580 -0.44967744724472 -1.83430439013901
 6 -12.63496362706271 -0.53442670707071 -3.32295046634663
 7 -7.48453741134113 -1.24638632383238 -0.11817034553455
 6 -8.61022260976098 -2.17683641044104 -0.55634899729973
 6 -8.10752319131913 -3.43413029522952 -0.71800436773677
 6 -6.75699060816082 -3.39957678597860 -0.27944556845685
 6 -6.37006811021102 -2.06837965656566 -0.04755967976798
 6 -8.99375213281328 -4.66023677317732 -1.00898989338934
 6 -5.54187113231323 -4.30011504660466 -0.07363641804180
 8 -5.44507399759976 -5.53785331543154 -0.10750801670167
 6 -4.46494412301230 -3.29567032863286  0.36427548964896
 6 -3.85171896979698 -3.76288038153815  1.67033355905591
 8 -4.23832890639064 -3.38638657255726  2.71020908900890
 8 -2.95012369997000 -4.74208918181818  1.40595102300230
 6 -2.36163086688669 -5.26749619571957  2.64987712731273
 6  2.67318948754875 -0.82157605520552 -1.16244026982698
 6  4.01863511031103 -0.48816931933193 -0.59781188128813
 6  4.99089134573457  0.30365142004200 -1.12800675727573
 6  5.07668686438644  1.04543527522752 -2.52031914871487
 6  6.31637338253825  0.48885662486249 -0.29403831803180
 6  7.48212945334533 -0.47350353325333 -0.93884075097510
 6  8.79257085818582 -0.08945293039304 -0.07575592309231
 6  10.01627255295530 -0.70440476707671 -0.75503285808581
 6  9.97049308790879 -2.30493429632963 -0.79396868176818
 6  11.29463331353135 -0.25048936363636  0.10598004230423
 6  12.61482315651565 -0.55221053825383 -0.47021154425443
 6  13.78028661806181 -0.08983620982098  0.37979003450345
 6  15.13990290209021 -0.47086796829683 -0.13256681458146
 6  15.66190576237624 -1.95649451485149  0.12150338203820
 6  16.20738148244824  0.60907542484248  0.38633765606561
 6  17.62315720452045  0.36542946064606 -0.12888679007901
 6  18.74330525482548  1.57114144304430  0.41288210441044
 6  20.06478838043804  1.40386819141914 -0.05424369686969
 6  20.15974667356735  1.68811538763876 -1.61741981978198
 6  21.00980350165017  2.52960429922992  0.64753654185418
 1 -4.19118677897790  3.30885211721172  2.27299218011801
 1 -10.18165601870187  4.10829807190719 -0.27314863756376
 1 -10.45454971137114 -2.25193234873487 -1.29792926602660
 1 -2.68870119711971 -1.12106134133413  2.01769264496450
 1 -2.08391970647065  1.31734195739574  1.41568448064806
 1 -2.08335859385939  0.64803117151715  3.80329943394339
 1 -2.94108960086009  1.92789783948395  3.68863905910591
 1 -3.74915451235124  0.41923710821082  4.04664984118412
 1 -2.05715122352235 -1.33808854195420 -0.41308575577558
 1 -2.38398173757376  0.14374056505651 -0.64011070527053
 1 -0.28200402020202  0.53422727632763  0.84627498879888
 1 -0.25012535183518 -1.10757271587159  1.43712122052205
 1 -4.48845366186619  5.90473484158416  0.79858265806581
 1 -6.04604981138114  6.82224713941394  1.51077037163716
 1 -5.11488957575758  5.71427947194719  2.58284241824182
 1 -8.13146815621562  6.89166904140414  1.10627218111811
 1 -9.34562991489149  5.89313947444744 -1.40224181028103
 1 -9.68386313291329  7.67394612211221 -0.50851107400740
 1 -12.35882024402440  3.40457964516452 -0.07030484358436
 1 -12.14934878317832  3.55062902030203 -1.77273659045905
 1 -13.25161618441844  2.26065390109011 -1.55600995639564
 1 -12.64316668986899 -1.53034196089609 -1.52831758285829
 1 -13.38839586408641 -0.00989683498350 -1.39154151295130
 1 -12.70485611551155  0.44412122522252 -3.85692303660366
 1 -11.70987595559556 -1.19492706630663 -3.55146409850985
 1 -13.77963471697170 -0.94907400220022 -3.67702524482448
 1 -9.95239178797880 -4.70419973977398 -0.56878918091809
 1 -9.38923290219022 -4.51803974997500 -2.00603750195020
 1 -8.48680385508551 -5.63665193219322 -1.23746170167017
 1 -3.61428327972797 -3.49640593079308 -0.29777112571257
 1 -1.66090648364837 -6.12717781348135  2.43196653075308
 1 -1.84379282568257 -4.48708219211921  3.18707314991499
 1 -3.20172318871887 -5.41386647824782  3.17413428902890
 1  2.77603151065107 -2.03559120262026 -1.36412757975798
 1  2.47214210871087 -0.38052563336334 -2.28529629682968
 1  4.26906967866787 -0.71400371467147  0.42754065706571
 1  5.26190802000200  2.14831734073407 -2.09726444624463
 1  5.74621123832383  0.65303126562656 -3.12628403000300
 1  4.03017313551355  0.89604079087909 -3.21384220932093
 1  6.82572058825883  1.58917504250425 -0.24513470457046
 1  6.02105014971497  0.22634274467447  0.60112782018202
 1  7.27591437633763 -1.56720344494449 -0.70527128672867
 1  7.50290983348335 -0.32253023242324 -2.01475630463046
 1  9.21930741814181  0.90092893419342  0.06752690099010
 1  8.94067713051305 -0.64853900540054  0.91881469386939
 1  10.12412508110811 -0.15022246554655 -1.73524809980998
 1  9.27936825302530 -2.72503119631963 -1.62052059985999
 1  11.04132916401640 -2.63124472427243 -1.14227483238324
 1  9.92588760886089 -2.66651833743374  0.21760349104911
 1  11.23230852825283  0.79883866396640  0.59157774297430
 1  11.21642760626063 -0.78470370687069  1.23542347254726
 1  12.76487119771977 -1.65521709290929 -0.69330254325433
 1  12.55869402160216  0.01353127412741 -1.33928546224622
 1  13.61945310021002  1.05650536133613  0.43470638153815
 1  13.65119934693469 -0.33236966476648  1.45655250115012
 1  15.01267361156115 -0.32014080798080 -1.28559057235723
 1  14.91976752965297 -2.70566314811481 -0.24112344554455
 1  16.66312018551855 -2.16324036063606 -0.36614239813981
 1  15.90443572237224 -2.00060519311931  1.41391066246625
 1  15.92411268446845  1.72095866616662  0.42233269226923
 1  16.18266292309231  0.41526214951495  1.50414383698370
 1  18.16881810351035 -0.58810302080208  0.44304443664366
 1  17.72540712631263  0.40533242154215 -1.35774420692069
 1  18.35104979447945  2.65364176007601 -0.02739735003500
 1  18.60974322852285  1.67575338483848  1.63680083008301
 1  20.29224555695570  0.32371033203320  0.17232838903890
 1  19.67006436303631  2.70624889498950 -1.77007891029103
 1  21.20530777447745  1.69718778847885 -1.73662676927693
 1  19.83152812581258  0.91602722442244 -2.40762294379438
 1  20.99780501700170  2.13968543654365  1.66755779237924
 1  22.02905576277628  2.67119714711471  0.42620677777778
 1  20.49789941934193  3.52545574517452  0.43805254315432
 1 -7.10403223632363  1.64814368756876  0.42403424952495
 1 -7.77307885628563 -0.34055423142314 -0.15296542414241

