%nproc=3
%Mem=2GB
# td=(NStates=1) B3LYP/SVP 

TD

0 1
 6 -5.15995369346935 -1.96530277237724  0.46469134503450
 6 -4.71141146014601  2.76916336803680  1.44310069596960
 6 -9.27259716941694  3.40545134433443 -0.23861232913291
 6 -9.87641569606961 -1.43617442084208 -0.98568112151215
 7 -5.20012917521752  0.50160178307831  0.92103054005401
 6 -4.50641925802580 -0.78033475447545  0.86038948234823
 6 -3.09298898539854 -0.66061249594959  1.27830282608261
 6 -3.09095406080608  0.76742563486349  1.86198530433043
 6 -4.36698589168917  1.38027784568457  1.41500509750975
 6 -3.01501006950695  0.83194070637064  3.38235609820982
 6 -2.04520659135914 -0.80221018271827  0.17741568716872
 6 -0.53830704290429 -0.81377959455946  0.65313776647665
 6  0.39207286868687 -1.21205807870787 -0.42002355995600
 8  0.17545931353135 -1.63160552715272 -1.57616122762276
 8  1.67869806690669 -0.86382315541554 -0.01064350705071
 7 -7.07318191279128  2.76648392019202  0.58381789098910
 6 -5.95177675307531  3.36221063936394  1.08795965286529
 6 -6.24655784148415  4.80114655415542  1.01213770657066
 6 -7.48756785358536  5.01311014651465  0.52102863026303
 6 -7.98099904580458  3.72808130183018  0.30090024542454
 6 -5.29886040254025  5.82336785188519  1.51760302630263
 6 -8.07479476217622  6.36714072567257  0.39364786608661
 6 -9.07919581778178  6.56568629052905 -0.53955643444344
 7 -9.16352455305531  0.92633986698670 -0.52641510991099
 6 -9.78537240014001  2.12635513421342 -0.65313458265827
 6 -11.16281014751475  1.97679124012401 -1.10051388528853
 6 -11.35727967846785  0.57686502660266 -1.29369432413241
 6 -10.04218644434443 -0.03740369206921 -0.98181142364236
 6 -12.10418891979198  3.02340084168417 -1.30023311361136
 6 -12.58976671617162 -0.14930741024102 -1.67704866456646
 6 -12.65129526022602 -0.36294955935594 -3.22448061936194
 7 -7.51551050865087 -1.32625431063106 -0.28094662316232
 6 -8.63627521502150 -2.07700642744274 -0.74610797319732
 6 -8.17385982498250 -3.42401928412841 -0.78496106340634
 6 -6.84329923902390 -3.44225105340534 -0.36450407430743
 6 -6.50194129752975 -2.06564938353835 -0.01902682648265
 6 -8.99388214581458 -4.62578332783278 -1.01974096849685
 6 -5.79390633583358 -4.23213824892489  0.06451739733973
 8 -5.79341883208321 -5.50913044314431 -0.07210447634763
 6 -4.65167279587959 -3.41452221382138  0.39854891699170
 6 -3.95336913481348 -3.81131522502250  1.72352887858786
 8 -4.25143021652165 -3.45402333623362  2.84736280438044
 8 -2.98096678427843 -4.80366533943394  1.49688011591159
 6 -2.74681938573857 -5.55801524762476  2.74649678927893
 6  2.70723289188919 -1.13234713231323 -1.06405043084308
 6  4.07193043984398 -0.71824232663266 -0.49727182728273
 6  4.94135639223922  0.09718077297730 -0.98902285888589
 6  4.82439163486349  0.64782551425142 -2.39449656645665
 6  6.17262900810081  0.40927866706671 -0.27935684988499
 6  7.50682192259226 -0.31137732063206 -0.76943381028103
 6  8.92731433253325 -0.08822280738074 -0.03018136563656
 6  10.02424335003500 -0.67577190379038 -0.84494184898490
 6  9.99110514911491 -2.28656245914592 -1.03482276717672
 6  11.33712756295630 -0.37041135583558  0.11513095739574
 6  12.62414408860886 -0.73001831903190 -0.53880840394039
 6  13.77656624602460 -0.07253447964796  0.32041409690969
 6  15.20293920572057 -0.22308318981898 -0.33621717961796
 6  15.64672424422442 -1.77159602500250 -0.42426119441944
 6  16.23920466476648  0.67254177147715  0.39062808510851
 6  17.75969085788579  0.71823474117412 -0.26832073347335
 6  18.53846477077708  1.77010133903390  0.46510732693269
 6  20.03225512711271  1.81923972857286 -0.04020229272927
 6  20.32838353725372  2.19046562266227 -1.50250832863286
 6  20.88044056535654  2.78975031383138  0.88990077827783
 1 -3.94833249354935  3.42246347834783  1.71988686958696
 1 -9.85317317041704  4.29046628872887 -0.62199352205221
 1 -10.78451270767077 -1.99266642214221 -1.00916038913891
 1 -2.97837016401640 -1.33346258145815  2.11394226992699
 1 -2.11813312781278  1.23023324652465  1.39178209040904
 1 -2.07507776577658  0.26161252965297  3.70783988798880
 1 -2.96224171607161  1.66516156585659  3.76466666186619
 1 -3.91019061596160  0.06821200570057  3.88174335053505
 1 -2.37196270467047 -1.65957069016902 -0.30124457165717
 1 -2.23643698309831 -0.06084989398940 -0.48703539773977
 1 -0.41674749454946  0.15306916051605  1.16188654995500
 1 -0.47748808810881 -1.57165912451245  1.34709221762176
 1 -4.48574339083908  5.79537390549055  0.84967776757676
 1 -5.70610581698170  6.86339125382538  1.75383467806781
 1 -4.75362344914491  5.71000904490449  2.42296643064306
 1 -7.62266727612761  7.29997987248725  0.99760131403140
 1 -9.44547989988999  5.77486764726473 -1.34590617671767
 1 -9.45790053665366  7.64336306380638 -0.68344856775677
 1 -12.38399276127613  3.55321450865086 -0.44843265636564
 1 -11.93635748404841  3.65424938233823 -2.02268158495850
 1 -13.15576659945995  2.54137197289729 -1.37551190659066
 1 -12.64952732593259 -1.20357928462846 -1.14061881298130
 1 -13.48588561306130  0.48777293199320 -1.28528088688869
 1 -12.59625525542554  0.44151096419642 -3.89850719501950
 1 -11.83971893989399 -0.97197477107711 -3.37910686278628
 1 -13.64053080658066 -0.93663275807581 -3.21086862916292
 1 -9.69495604440444 -4.72938225802580 -0.15165746774677
 1 -9.43733771267127 -4.47831577757776 -2.18185508370837
 1 -8.41282645734573 -5.58574684168417 -1.24028198369837
 1 -4.04693654505451 -3.58607489768977 -0.38707005560556
 1 -2.10485087808781 -6.49064416011601  2.46891022512251
 1 -2.02288073447345 -4.96069955385539  3.37681212381238
 1 -3.72143515991599 -5.80188528012801  3.30893776937694
 1  2.63353726122612 -2.25746338983898 -1.13023419041904
 1  2.55602049654966 -0.55715329612961 -1.94550231743174
 1  4.27463023472347 -1.34687700200020  0.45924382738274
 1  5.31236306550655  1.58679118811881 -2.32992771257126
 1  5.49426604380438  0.03306926942694 -3.02001340294029
 1  3.96103622182218  0.78998018481848 -2.85488631373137
 1  6.36568458465847  1.55761188618862 -0.28294848594859
 1  5.81863990869087  0.17055716611661  0.85485319271927
 1  7.21521830673067 -1.53695041964196 -0.90499125872587
 1  7.60098964146415  0.13436545714571 -1.72357718671867
 1  9.17746323372337  0.85924476577658  0.06905705400540
 1  8.87197025982598 -0.22363651515152  1.02352516491649
 1  10.27277994659466 -0.38683612691269 -1.86186076107611
 1  9.31210152635263 -2.52453114631463 -1.84654320212021
 1  10.97564259535953 -2.49403100290029 -1.28803940884088
 1  9.66362138223822 -2.94711639723972 -0.21753002230223
 1  11.18098339573957  0.82683146324632  0.07976656185619
 1  11.09793575707571 -0.73264850135013  0.91377130733073
 1  12.71838654925493 -1.90147171837184 -0.60151336433643
 1  12.68768692089209 -0.42623270227023 -1.61045257895790
 1  13.53563471837184  1.01342105290529  0.18220113101310
 1  13.56520074707471 -0.65814224202420  1.24558140404040
 1  15.15064740894089  0.18365957205721 -1.35223723702370
 1  15.04249980288029 -2.41290387218722 -0.97840717391739
 1  16.73317719121912 -1.69778381498150 -0.97364314821482
 1  15.81718699749975 -2.36313144574457  0.56549582098210
 1  15.79931020422042  1.62187875817582  0.51875233423342
 1  16.47193184998500  0.11310193349335  1.32818624122412
 1  18.21636285798580 -0.23750796129613  0.06697682988299
 1  17.47246183178318  0.88098998729873 -1.26634506700670
 1  18.05286997649765  2.80171656755676  0.35201059075908
 1  18.73620587478748  1.56220202970297  1.51915906590659
 1  20.44762109450945  0.78388634963496  0.18731988818882
 1  19.99961731833183  3.43187145724572 -1.86322822522252
 1  21.39848709240924  2.08909697939794 -1.68444155075508
 1  19.82920789378938  1.42113773547355 -2.12443462496250
 1  20.88457369386939  2.76822829082908  1.98380941754175
 1  21.62009486668667  2.90550057745775  0.56476063316332
 1  20.48631826122612  3.86473967356736  0.97973671157116
 1 -7.24542637573757  1.77667654085409  0.50763260936094
 1 -7.56360790919092 -0.43468364436444 -0.04364449204920

