%nproc=3
%Mem=2GB
# td=(NStates=1) B3LYP/SVP 

TD

0 1
 6 -5.11679937803780 -1.94124036613661  0.47761263716372
 6 -4.74757507650765  2.84950140184018  1.38611499739974
 6 -9.41987189688969  3.30344114331433 -0.22904137203720
 6 -9.77727578207821 -1.52673347674767 -0.91056360976098
 7 -5.15901506380638  0.39761138403840  0.76569500650065
 6 -4.52230084618462 -0.77590431143114  0.81746518991899
 6 -3.05853554005401 -0.58696513121312  1.28749374517452
 6 -3.13978894429443  0.93836272857286  1.73374248004800
 6 -4.46175536863686  1.40893071097110  1.25599919691969
 6 -2.96435500400040  1.04700221252125  3.27659552215222
 6 -2.06518858955896 -0.82458241994199  0.20058800440044
 6 -0.55637885008501 -0.92525074167417  0.69096154885489
 6  0.41653531493149 -1.06527340024002 -0.61347290489049
 8  0.05402717031703 -1.26943931053105 -1.76220983248325
 8  1.66956715381538 -0.72098887198720 -0.22615505820582
 7 -7.07843243784378  2.81309858165817  0.35765527472747
 6 -5.92602417781778  3.39755417371737  0.98086894379438
 6 -6.31957514321432  4.78925536503650  1.06255274807481
 6 -7.62184128092809  4.93630246574658  0.73070959835984
 6 -8.12477342324233  3.62859135283528  0.24256441184118
 6 -5.41385190169017  5.85386090119012  1.63559482548255
 6 -8.30912819551955  6.25593960556056  0.65661416271627
 6 -9.18789668786879  6.66794651655166 -0.30223270207021
 7 -9.25378357895790  0.88476570957096 -0.51423389178918
 6 -9.93796765966597  2.03439593829383 -0.58880815001500
 6 -11.32810667716772  1.81404496549655 -1.13400723462346
 6 -11.42743669416942  0.46979431953195 -1.33066802150215
 6 -10.05292751845185 -0.07926787848785 -0.96860010251025
 6 -12.33244174507451  2.97762626422642 -1.32036512681268
 6 -12.64801254075408 -0.25052753225323 -1.73871483118312
 6 -12.54088421912191 -0.57749101350135 -3.30199837113711
 7 -7.57978693629363 -1.27875956115612 -0.08650717921792
 6 -8.59023061056106 -2.06521524832483 -0.56464982738274
 6 -8.18065050405040 -3.42967985018502 -0.57081964926493
 6 -6.77745265436544 -3.44145097339734 -0.26388401230123
 6 -6.44182528592859 -2.12931575017502 -0.04534945874587
 6 -9.03698645624562 -4.70043079257926 -0.86040503490349
 6 -5.63137008220822 -4.24598963406341 -0.04932398679868
 8 -5.45028451865187 -5.48975850595059 -0.10104737063706
 6 -4.49279690829083 -3.31049181078108  0.40639970207021
 6 -3.94002780068007 -3.80110420392039  1.72075860156016
 8 -4.27922299579958 -3.44116205010501  2.80565863396340
 8 -2.87425611321132 -4.71372634553455  1.56918734663466
 6 -2.37302200600060 -5.34723416951695  2.72438457805781
 6  2.60015218381838 -0.77807170477048 -1.26447047284728
 6  3.92066531333133 -0.56892739513951 -0.58150025012501
 6  4.98396065266527  0.07946900180018 -1.05083904050405
 6  5.09413860956096  0.75728646034603 -2.46321343814381
 6  6.26563830903090  0.21600934013401 -0.20099901410141
 6  7.58460970137014 -0.24190037293729 -0.88352521942194
 6  8.71683328442844 -0.07247123222322 -0.07681602910291
 6  10.10731165686569 -0.67296162276228 -0.73877123192319
 6  9.99382542114211 -2.14292809570957 -0.94428371327133
 6  11.30540439063907 -0.30397471217122  0.10966041034103
 6  12.62548422262226 -0.66240155735574 -0.52093661676168
 6  13.83058164756476 -0.10901812801280  0.41123317881788
 6  15.21001991379138 -0.25425630713071 -0.30993455135514
 6  15.71484105590559 -1.79495836123612 -0.25848461676168
 6  16.26973771807181  0.65074959225923  0.39630865316532
 6  17.64935982478248  0.59565248294829 -0.14407830923092
 6  18.53051397569757  1.70838516741674  0.39915073127313
 6  20.10793269486949  1.53097090169017  0.01566329382938
 6  20.34840553945395  1.81422799889989 -1.41774985278528
 6  20.96347886918692  2.49144048284828  0.90128191639164
 1 -4.12420008030803  3.57844907690769  1.79754463536354
 1 -10.05083293639364  4.11099834193419 -0.38405972867287
 1 -10.42339659605961 -2.20673782928293 -1.19980945404540
 1 -2.68832115911591 -1.21968120332033  2.25073594929493
 1 -2.43944525902590  1.50480070327033  1.20636354855486
 1 -2.05109536753675  0.67598396679668  3.82046115011501
 1 -3.16570206210621  2.21849689938994  3.27750794599460
 1 -3.86302589948995  0.60307549204920  3.78319349554955
 1 -2.18077358575858 -1.84530926402640 -0.29917436463646
 1 -2.39559289868987 -0.10730453945395 -0.85879257345735
 1 -0.41118693849385  0.10489434303430  1.07029739103910
 1 -0.68230857015702 -1.70732269086909  1.42513002140214
 1 -4.65070988748875  6.30747511561156  0.71978477827783
 1 -5.96652185858586  6.78858377307731  2.13378267286729
 1 -4.93330141694169  5.47977602160216  2.70102423642364
 1 -8.21702671207121  7.01299117361736  1.59183073697370
 1 -9.53330868276828  6.07530769126913 -1.17191877797780
 1 -9.45432017861786  7.61219994749475 -0.43955417831783
 1 -12.83652801480148  3.52897208440844 -0.40629844294429
 1 -11.86746059435944  3.72960691809181 -2.09269858665867
 1 -13.28344936773677  2.45022285798580 -1.76298065346535
 1 -12.48552092529253 -1.30566949364936 -1.25491024212421
 1 -13.53107013151315  0.02228638333833 -1.45364772357236
 1 -12.73604923482348  0.42862967606761 -3.72429977427743
 1 -11.73029799779978 -1.04158173177318 -3.67958691079108
 1 -13.58448520202020 -1.21835092989299 -3.30096763906391
 1 -9.71271782058206 -4.75727504730473 -0.05755805780578
 1 -9.46116009490949 -4.92908085408541 -1.79445634383438
 1 -8.19700487518752 -5.62528079507951 -0.64589254475448
 1 -3.73146499789979 -3.22830912111211 -0.43494484308431
 1 -1.54120451345134 -5.96320141584158  2.28077141124112
 1 -2.00996944334433 -4.62071555545555  3.44590903350335
 1 -3.10189320572057 -5.92074716631663  3.24052092769277
 1  2.63831773927393 -1.75984362786279 -1.67711887888789
 1  2.42242713721372 -0.16771435223522 -2.12695046224622
 1  3.93596636833683 -1.19987230153015  0.36483438643864
 1  5.59949177837784  1.71967447644764 -2.53807852765277
 1  5.39236585378538 -0.14665870337034 -3.16585798739874
 1  4.06897701590159  1.11466265306531 -2.68462928802880
 1  6.57327534373437  1.08637476247625  0.00221002990299
 1  6.43993203790379 -0.36150604020402  0.69960766816682
 1  7.55639242414241 -1.26987371197120 -1.32732349194920
 1  7.91861140364036  0.19699171977198 -1.76848167716772
 1  8.82724821222122  1.06219506080608  0.08813896219622
 1  8.63115617841784 -0.58599275077508  0.97002981538154
 1  10.09293196179618 -0.19266670997100 -1.74983955895590
 1  9.14264458065807 -2.66473516671667 -1.42697124492449
 1  10.84426945804580 -2.58097969776978 -1.45492609750975
 1  9.92200722082208 -2.74848653425343 -0.05614388368837
 1  11.10227552495250  0.87649642974297  0.27469605480548
 1  11.14798076157616 -0.68558379487949  1.04641457165717
 1  12.59371408200820 -1.83433500470047 -0.78708192119212
 1  12.87441559375938 -0.35652573157316 -1.58141967566757
 1  13.43771492639264  1.02152186298630  0.55289820072007
 1  13.83091731873187 -0.57311373917392  1.23789063496350
 1  15.19726207040704  0.15816702280228 -1.33553556685669
 1  14.96091164406441 -2.50623320512051 -0.72449178237824
 1  16.53513738723872 -2.10628466506651 -0.95209099299930
 1  15.77816309510951 -2.09895502810281  0.90782005340534
 1  15.80111038423843  1.71848841914191  0.44478493749375
 1  16.12767742454245  0.24732535583558  1.30687411001100
 1  18.16731795349535 -0.37791200170017 -0.18873874167417
 1  17.39423400900090  0.84656654495450 -1.31240967346735
 1  18.30404509400940  2.69078547444744  0.03098848854885
 1  18.12267452165216  1.56474228372837  1.46576372637264
 1  20.38460479287929  0.38007596859686  0.30387154335434
 1  20.07682503910391  2.90709897999800 -1.63501540394039
 1  21.39533677737774  1.76595466516652 -1.43357646424642
 1  20.09057403040304  1.08884450615061 -2.13869605110511
 1  20.80219545604561  2.01675314331433  1.96258729532953
 1  22.09794265146515  2.53054308170817  0.56309046614661
 1  20.84755438483849  3.49277247684769  0.88683742164216
 1 -7.21039287238724  1.75638451165117  0.10401224732473
 1 -7.66760830923092 -0.20353052905291  0.26600647304731

