%nproc=3
%Mem=2GB
# td=(NStates=1) B3LYP/SVP 

TD

0 1
 6 -5.12805050315032 -1.89496573867387  0.33811868776878
 6 -4.77309762876288  2.80425687738774  1.23565995189519
 6 -9.48092800250025  3.29364016321632 -0.10532900080008
 6 -9.84427248174817 -1.51970277367737 -0.76297885128513
 7 -5.11873103540354  0.46086770967097  0.68407684468447
 6 -4.45515413151315 -0.68146486748675  0.76109955335534
 6 -2.97321700820082 -0.54652108680868  1.19219421522152
 6 -3.06028099349935  0.92168106040604  1.68054716051605
 6 -4.39311850495049  1.43590340824082  1.24099769676968
 6 -2.94150271877188  1.02614012631263  3.23361122372237
 6 -2.08774084478448 -0.81182114381438  0.00812875847585
 6 -0.56842005420542 -0.91448966556656  0.63280573327333
 6  0.43996765816582 -1.06539341224122 -0.55634719231923
 8  0.03169493709371 -1.16943931053105 -1.74427803930393
 8  1.77864806190619 -1.06120289338934 -0.11476391909191
 7 -7.07851244584458  2.84202147394739  0.50732024122412
 6 -5.94508608400840  3.42348676697670  0.96641749864986
 6 -6.29998318401840  4.87439387888789  0.99246573937394
 6 -7.68587768456846  5.02772160766077  0.46441296869687
 6 -8.20080102600260  3.73750224392439  0.23656381178118
 6 -5.30828134463446  5.88816433153315  1.40864213021302
 6 -8.22759004170417  6.33679769136914  0.31224972627263
 6 -9.29885778397840  6.56729645154515 -0.52412489128913
 7 -9.24870307090709  0.82003923692369 -0.29328179657966
 6 -9.97042090499050  1.98160065876588 -0.47675694489449
 6 -11.28621248774878  1.81152471347135 -1.00927476137614
 6 -11.34777872837284  0.47213455355536 -1.12188714341434
 6 -10.19943216891689 -0.15557550925093 -0.62237548004800
 6 -12.32793129402940  2.98388689028903 -1.17621071137114
 6 -12.70261800130013 -0.16131861136114 -1.63145410511051
 6 -12.66564669536954 -0.51702496689669 -3.14131230253025
 7 -7.55303426102610 -1.25006669186919 -0.30358888738874
 6 -8.63773536103610 -2.03165189198920 -0.56300966336634
 6 -8.24117655665567 -3.37080396259626 -0.55920848814881
 6 -6.94053896299630 -3.47582441074107 -0.08749637353735
 6 -6.41359246264626 -2.05542836143614 -0.05639056285629
 6 -9.10232298989899 -4.57384813431343 -0.73751274567457
 6 -5.72961990719072 -4.31932696779678  0.07141808740874
 8 -5.58327781798180 -5.53056258635864  0.05912864696470
 6 -4.58201583018302 -3.18715947754775  0.35468453055306
 6 -3.85321911981198 -3.75693978747875  1.68889541524152
 8 -4.03035810931093 -3.08131606550655  2.71525959405941
 8 -3.02230091769177 -4.65745071797180  1.50542096999700
 6 -2.55119982378238 -5.38475792189219  2.59317145674567
 6  2.71772394099410 -1.21326522412241 -1.22857688348835
 6  4.07786103290329 -0.94735523792379 -0.52211431153115
 6  5.06978923552355 -0.15547449254925 -0.98183213981398
 6  4.95415461116112  0.54140487218722 -2.31694881168117
 6  6.38829057425743  0.07257499669967 -0.19053796799680
 6  7.56211745214521 -0.39919610251025 -0.88070493739374
 6  8.89778137923792 -0.25635962106211 -0.13355170267027
 6  10.08396932263226 -0.73146747334733 -0.91079843464346
 6  9.98903494209421 -2.21274507740774 -1.25916520142014
 6  11.30615446564657 -0.43017733243324  0.01437088138814
 6  12.62366404060406 -0.47837315451545 -0.77993251635163
 6  13.81499008840884 -0.15022224842484  0.20355241074107
 6  15.17953686548655 -0.11028190969097 -0.43896745464546
 6  15.76812638443844 -1.61505037043704 -0.86058482678268
 6  16.35438618291829  0.39370388768877  0.60275929822982
 6  17.74794968376838  0.77964088178818 -0.03410731213121
 6  18.66950787508751  1.59158348724872  0.76037685388539
 6  20.11040294189419  1.69051685628563  0.23875560306031
 6  20.04767546644664  2.69737631373137 -1.09325740354035
 6  21.06670919221922  2.24138547734773  1.28242003020302
 1 -4.03018067836784  3.63141437343734  1.67059194009401
 1 -10.22308016111611  4.16972421452145 -0.33177450015001
 1 -10.77209146554655 -2.08977613311331 -1.05662513561356
 1 -2.71235356235624 -1.28719795499550  1.91963283898390
 1 -2.06329764426443  1.27589781298130  1.11112402460246
 1 -1.95058531653165  0.43550991939194  3.61197030103010
 1 -2.97021251315131  2.14358940864086  3.66107630283028
 1 -3.73696329322932  0.53557874237424  3.69697487368737
 1 -2.51518702710271 -1.74343907700770 -0.58212265946595
 1 -2.05043838323832  0.02117830883088 -0.70117681188119
 1 -0.17080290009001 -0.08698484488449  1.56344670597060
 1 -0.45058539783978 -1.89853181178118  1.21569907830783
 1 -4.48081289778978  5.74895926402640  0.73079587938794
 1 -5.67189239563956  6.97833274797480  1.51103039763976
 1 -4.98386647344734  5.56012405640564  2.42543667766777
 1 -7.84739974937494  7.06425630013001  0.91644319821982
 1 -9.64843019491949  5.78937909840984 -1.32354394049405
 1 -9.82352709930993  7.45594432193219 -0.63535375827583
 1 -12.57701206320632  3.32372155935594 -0.15221303440344
 1 -11.75666951525153  3.81483544094409 -1.74550386718672
 1 -13.28728975177518  2.61720955665567 -1.69922427782778
 1 -12.86173854705470 -1.08897782448245 -0.94530928202820
 1 -13.56133315781578  0.42751690639064 -1.57304966376638
 1 -12.58003363326333  0.32578939203920 -3.59736708100810
 1 -11.71925689368937 -1.11825939953995 -3.38625757785779
 1 -13.53069982348235 -0.99860895569557 -3.37982552485248
 1 -9.75542209100910 -4.67889720952095 -0.09771207320732
 1 -9.70089406830683 -4.52497044304430 -1.58413531173117
 1 -8.52518769346935 -5.46664493149315 -0.69732768826883
 1 -3.79710156155616 -3.53579987018702 -0.49246059465947
 1 -2.06934732773277 -6.34520961666167  2.11622495659566
 1 -1.79381782818282 -4.81145462936294  3.28826326892689
 1 -3.46633965036504 -5.69343443504350  3.23879075467547
 1  2.66255016251625 -2.19523716721672 -1.66724789178918
 1  2.27207210171017 -0.67232481328133 -2.11293906110611
 1  4.09933270497050 -1.27580989528953  0.55150305330533
 1  5.69172100130013  1.65609811881188 -2.11756647644764
 1  5.62512913011301  0.11460742324232 -3.17868927052705
 1  3.87705782398240  0.92665385218522 -2.66740756585659
 1  6.29383739993999  1.33413953895389 -0.06652684378438
 1  6.33395143984398 -0.49820971057106  0.68858656605661
 1  7.44602138703870 -1.44276100070007 -1.27955871547155
 1  7.67362690519052  0.07348936953695 -1.89096392539254
 1  8.91369685708571  0.69461830313031  0.27061721002100
 1  8.80952401520152 -0.78812296379638  0.77054986738674
 1  10.22603527212721 -0.12917036033603 -1.94393896889689
 1  9.24073438963896 -2.46523521672167 -2.01022957075708
 1  10.89532456355636 -2.55220682048205 -1.83963456835684
 1  9.97833285338534 -2.96829851545155 -0.25152342164216
 1  11.16577187458746  0.53759253935394  0.32849143434343
 1  11.36028199169917 -1.13280851735174  0.87726765696570
 1  12.77117182778278 -1.50258182938294 -1.20003321632163
 1  12.61524967716772  0.20455037603760 -1.67265879957996
 1  13.67237839273927  0.94400411121112  0.59404231513151
 1  13.92116634363436 -0.86675310311031  1.04490133603360
 1  15.25487783198320  0.45291649774978 -1.24749676297630
 1  15.11330688358836 -2.28612119391939 -1.73359269246925
 1  16.86053992749275 -1.29171320792079 -1.43380916481648
 1  15.84947022582258 -2.30164529712971 -0.02518324692469
 1  15.89738001120112  1.41459803010301  0.98893935293529
 1  16.44177883468347 -0.24023340004000  1.66037946054605
 1  18.13335455715572 -0.23467767826783 -0.24957482528253
 1  17.83802838843884  1.23252514081408 -1.20980941344134
 1  18.36259094859486  2.65774217011701  0.81739712941294
 1  18.77591984618462  1.30078588808881  1.83279042904290
 1  20.46710304270427  0.70624858585859 -0.21184002780278
 1  19.80392774937494  3.81229950005001 -0.82628453085308
 1  21.07377462116212  2.63320138983898 -1.57372047864786
 1  19.36177115011501  2.50873649534954 -1.97163934543454
 1  21.07063229972997  1.72759422742274  2.38254929152915
 1  22.08418127532753  2.36843687108711  0.82719687678768
 1  20.53742337173718  3.24314751435144  1.54016275417542
 1 -7.02784461756176  1.76732560576058  0.12770461656166
 1 -7.60131167956796 -0.26901707770777 -0.10145027262726

