%nproc=3
%Mem=2GB
# td=(NStates=1) B3LYP/SVP 

TD

0 1
 6 -5.11391909000900 -1.87878412051205  0.53297817371737
 6 -4.62924324332433  2.78246469816982  1.38011439733973
 6 -9.24342425212521  3.34860565976598 -0.18585705360536
 6 -9.92825087958796 -1.43239404280428 -0.93169572297230
 7 -5.18559772207221  0.43565518841884  0.86887532453245
 6 -4.49940855695570 -0.73645036603660  0.90910435383538
 6 -3.07809749624963 -0.58661509620962  1.25556055185519
 6 -3.05573053845385  0.82388128042804  1.90803990979098
 6 -4.40995018811881  1.45447526542654  1.31454505150515
 6 -3.09417798629863  0.90382789508951  3.51003886648665
 6 -2.07563963466347 -0.85061502320232  0.09447739333933
 6 -0.61613482568257 -0.80975919251925  0.52535498819882
 6  0.32841650305031 -1.03396026892689 -0.62758431603160
 8  0.05198696629663 -1.42929529612961 -1.74605821732173
 8  1.59864006110611 -0.66564333743374 -0.26799924262426
 7 -6.97438203280328  2.81698897069707  0.43297280648065
 6 -5.93279485488549  3.39770418871887  0.96527738463846
 6 -6.21466465216522  4.78085452495250  1.04182067486749
 6 -7.42260135693569  4.96222505800580  0.50302683008301
 6 -7.95039598549855  3.71887038073807  0.17155731113111
 6 -5.16623714021402  5.79431494659466  1.64582584858486
 6 -8.16703398609861  6.25707971957196  0.39440794209421
 6 -8.86445434363436  6.59215893779378 -0.60919339813981
 7 -9.17844604520452  0.86886411941194 -0.49736220462046
 6 -9.80047391029103  2.06207870657066 -0.58386765596560
 6 -11.28486235273527  1.88355191619162 -0.93855768966897
 6 -11.32889684018402  0.56031337143714 -1.19846480118012
 6 -10.03910613631363 -0.02893284498450 -0.85989923242324
 6 -12.21180968186819  3.05304380598060 -1.13855694599460
 6 -12.50775851535153 -0.21043352285229 -1.70134109380938
 6 -12.52908303900390 -0.38495175957596 -3.29157732903290
 7 -7.55092405000500 -1.23461514671467 -0.20426895539554
 6 -8.63052463996400 -2.00527925472547 -0.57602096449645
 6 -8.17343978297830 -3.43668055025503 -0.66152872017202
 6 -6.82277718681868 -3.43496032433243 -0.19952757665767
 6 -6.49744084748475 -2.01988480708071  0.01227630383038
 6 -8.96987974557456 -4.64764551405140 -0.97171616601660
 6 -5.74804174937494 -4.32274730983098  0.02535348094809
 8 -5.58754824502450 -5.41773130323032 -0.01055832173217
 6 -4.56251387998800 -3.32975373697370  0.48725778787879
 6 -3.83733753165317 -3.77959205270527  1.70255678137814
 8 -4.05499057255726 -3.36602453635364  2.82946101420142
 8 -3.18830751835183 -4.95745071797180  1.60967139503950
 6 -2.75421012481248 -5.64409385548555  2.68217035663566
 6  2.70618278687869 -1.05157905550555 -1.15442946874687
 6  4.04853810061006 -0.76415691809181 -0.49517161726173
 6  4.97659991659166 -0.03851279637964 -1.19515347194719
 6  4.86517571327133  0.69965069676968 -2.47623474027403
 6  6.24219596479648  0.07119485868587 -0.40728964316432
 6  7.46608784918492 -0.64217039993999 -1.02812967986799
 6  8.71850345144514 -0.25591957705771 -0.22332067956796
 6  10.01760268596860 -0.78679300590059 -0.77470482528253
 6  10.19570560916092 -2.38001180408041 -0.81684096899690
 6  11.15447929812981 -0.25618993369337  0.02066151045105
 6  12.66316799099910 -0.64991030823082 -0.52543706680668
 6  13.80196878627863  0.09033180698070  0.19260131563156
 6  15.20148906070607 -0.11376225772577 -0.36101965986599
 6  15.57149672147215 -1.63309217461746 -0.51061983028303
 6  16.24576532083208  0.61124564186419  0.49977900020002
 6  17.60537542634264  0.71365428312831 -0.18138203960396
 6  18.52817374167417  1.71327565646565  0.56190700690069
 6  19.93946584818482  1.82821062566257  0.09753148064806
 6  20.06866756565656  2.34649122522252 -1.31456953475348
 6  20.88036055735574  2.62550388918892  1.10666245444544
 1 -3.86799445974597  3.39621085308531  1.69433431433143
 1 -10.00589844294429  4.03070031213121 -0.25383670637064
 1 -10.77278153455345 -2.11074823032303 -1.29937941104110
 1 -2.90807313431343 -1.33993322852285  2.13327420312031
 1 -2.21011232573257  1.42143236643664  1.45563847604761
 1 -2.28481873987399  0.32393876227623  3.79500860486049
 1 -3.08214370627063  2.05171022072207  3.66123631883188
 1 -3.87532712961296  0.43121830633063  4.20748592479248
 1 -2.49524503290329 -1.81790652375238 -0.30707515471547
 1 -2.24292763216322 -0.14092790179018 -0.71454814901490
 1 -0.49815563536354  0.31375522912291  0.92982334363436
 1 -0.65157549684968 -1.65976793539354  1.37254476287629
 1 -4.29513432993299  5.64291865996600  0.99148194799480
 1 -5.59072427882788  6.75286020072007  1.64484377897790
 1 -4.91689977677768  5.56403444744474  2.67979211321132
 1 -7.96328133753375  7.04595446994699  1.13546510041004
 1 -9.00944629652965  5.97563772427243 -1.51947353345335
 1 -9.11821656825683  7.71460018751875 -0.67686790969097
 1 -12.43176753875388  3.74728391559156 -0.26860467356736
 1 -11.70194404270427  3.49490344774477 -2.08482779957996
 1 -13.23521454425443  2.77994583028303 -1.41823617901790
 1 -12.22269464266427 -1.16249517621762 -1.01869662076208
 1 -13.48092511701170  0.38882303700370 -1.14941730053005
 1 -12.47536316621662  0.70719753285329 -3.76785412971297
 1 -11.90342531053105 -1.22281985558556 -3.83702265436544
 1 -13.59938669216922 -0.71233032783278 -3.65284282658266
 1 -9.87331388018802 -4.73587290709071 -0.02576487848785
 1 -9.44499847874787 -4.32880082608261 -1.98452535073507
 1 -8.18253342804280 -5.40139840684068 -0.92626058155816
 1 -3.75003685508551 -3.27254354455446 -0.34801615021502
 1 -2.05562595559556 -6.50544564026403  2.39323265736574
 1 -2.28316676307631 -5.12336582048205  3.53901834443444
 1 -3.52837585398540 -6.16171126272627  3.26466334193419
 1  2.58862276977698 -2.07218486198620 -1.45704687168717
 1  2.57988288278828 -0.48808638943894 -2.09884765196520
 1  4.29997276897690 -1.44769708400840  0.28992689568957
 1  5.47656948614861  1.67855036403640 -2.28772349214922
 1  5.03582019921992  0.09147511001100 -3.37030843244324
 1  3.79638975717572  0.85737692449245 -2.77945877097710
 1  6.46035405160516  1.12421854685469 -0.21825201630163
 1  5.92592063676368 -0.24995488508851  0.60320802820282
 1  7.29382616751675 -1.67082380698070 -1.13057381698170
 1  7.68951849434943 -0.36564454385439 -2.15736056505651
 1  8.74253974137414  0.78514735603560  0.06686683498350
 1  8.73195625842584 -0.73412756425643  0.87578039043904
 1  10.02295496409641 -0.50242768606861 -1.91252582758276
 1  9.47808812501250 -2.88455714891489 -1.47041558935894
 1  11.12805783688369 -2.71540314011401 -1.30650125502550
 1  10.05890091019102 -2.90566225182518  0.03825555625563
 1  11.09977527492749  0.97817659775978 -0.09280069486949
 1  10.97487345084509 -0.35551078757876  1.08400833103310
 1  12.75232994359436 -1.73353492469247 -0.44464767776778
 1  12.64888304050405 -0.45407548654866 -1.67661919561956
 1  13.62125328022802  1.11590130093009  0.31370428132813
 1  13.65868009500950 -0.01381780958096  1.22676952285229
 1  15.21407375157516  0.32475368146815 -1.37042905620562
 1  14.93937949084908 -1.97690027182718 -1.31772110531053
 1  16.50207408090809 -1.76345038163816 -1.13565934983498
 1  15.37637291609161 -2.05957108970897  0.54983425482548
 1  15.86161643484349  1.57649421972197  1.07785824482448
 1  16.32263692049205 -0.06339571627163  1.54827825042504
 1  18.23701492319232 -0.17785199569957 -0.17145701350135
 1  17.69840442604260  1.05263715201520 -1.15336376887689
 1  18.09676436593659  2.64661105700570  0.45391078077808
 1  18.49093134733473  1.34402021152115  1.66281343134313
 1  20.35634196659666  0.87658561956196  0.12171332753275
 1  19.57606496309631  3.31035930603060 -1.37235913831383
 1  21.19289653335334  2.40478854855486 -1.62093520012001
 1  19.70649562256225  1.50857647934793 -2.20379256075608
 1  20.78256349284928  2.21575304330433  2.20792182878288
 1  21.94578743594359  2.61624165156516  0.80587474457446
 1  20.57008663806381  3.77902110171017  0.96003474137414
 1 -6.98530036313631  1.78644751795179  0.18556040214021
 1 -7.62521406980698 -0.18899907590759 -0.17247737533753

