%nproc=3
%Mem=2GB
# td=(NStates=1) B3LYP/SVP 

TD

0 1
 6 -5.03452115021502 -1.72467870997100  0.33290816671667
 6 -4.82070238923892  2.93754020572057  1.44464084998500
 6 -9.42338224792479  3.17242804200420 -0.10017848574857
 6 -9.83626168066807 -1.60548135153515 -0.85627818121812
 7 -5.29873903620362  0.56504812771277  0.79687812481248
 6 -4.54733334943494 -0.57420414141414  0.70961440484048
 6 -2.98134782128213 -0.46046248094809  1.21684668046805
 6 -3.11094606000600  1.08407730003000  1.76459556535654
 6 -4.46010520362036  1.59741955985599  1.26327992499250
 6 -2.87565613411341  1.29433694599460  3.25410327292729
 6 -2.03110518121812 -0.75382534423442  0.08499644524452
 6 -0.55123833603360 -0.47551576817682  0.47375982868287
 6  0.41160482188219 -0.92582945584558 -0.66298785638564
 8  0.01731349894989 -1.09472183878388 -1.79833344484448
 8  1.68217841494149 -0.83621039413941 -0.17873031573157
 7 -7.00482507710771  2.77481475327533  0.41139064826483
 6 -6.02990456585659  3.50583500180018  1.00753161006101
 6 -6.52227541324132  4.86721316081608  1.04621111391139
 6 -7.81135023182318  4.88767760326033  0.52701922932293
 6 -8.16291723762376  3.52528102180218  0.20980113551355
 6 -5.65354587108711  5.91109662476248  1.40469173517352
 6 -8.49821710441044  6.05979999159916  0.39899840114011
 6 -9.27394529272927  6.48890861276128 -0.61324380318032
 7 -9.27279548014801  0.75327256025603 -0.37818028642864
 6 -9.92758662156216  1.87935043374337 -0.36243551275128
 6 -11.36225009150915  1.74632819381938 -0.84919875377538
 6 -11.50268421892189  0.42241958205821 -1.04982993769377
 6 -10.15901812751275 -0.19002895459546 -0.85538878137814
 6 -12.53397189808981  2.79362786438644 -0.60539362966297
 6 -12.70904864436444 -0.39097157665767 -1.50513147284729
 6 -12.64459459015902 -0.60432369676968 -3.06831500280028
 7 -7.54735369296930 -1.24741642684268 -0.17623615211521
 6 -8.62505409290929 -2.09271799859986 -0.68829219161916
 6 -8.14023646264627 -3.37883476567657 -0.64391695899590
 6 -6.68857376647665 -3.34688151645165 -0.26845446934693
 6 -6.39798090149015 -1.93889670827083 -0.03872879667967
 6 -8.86125888348835 -4.77364811431143 -0.85453444784478
 6 -5.61738868406841 -4.20162519761976 -0.01778083248325
 8 -5.45337482768277 -5.39656918701870 -0.03674093999400
 6 -4.42351998059806 -3.23367412901290  0.27260632273227
 6 -3.85881967986799 -3.66217031053105  1.65208173387339
 8 -4.12493756725673 -3.29840777467747  2.77375544364436
 8 -2.91598028562856 -4.61566653955396  1.48502893079308
 6 -2.16997170097010 -5.20903034913491  2.55047718731873
 6  2.69648181678168 -1.13937783538354 -1.16998102390239
 6  4.10048329512951 -0.84101460386039 -0.67744984508451
 6  5.03673593019302 -0.04215316041604 -1.26774073067307
 6  4.95879507520752  0.74633536523652 -2.50442755955596
 6  6.30305205040504  0.14655239443944 -0.38622753695370
 6  7.53585482588259 -0.43130931383138 -1.02967983488349
 6  8.81219282038204 -0.25092907800780 -0.29401774927493
 6  10.10105103080308 -0.76518084468447 -0.98551590639064
 6  10.07216325492549 -2.27558136103610 -1.32037132203220
 6  11.34252810301030 -0.40086440114011 -0.09024958065807
 6  12.67007868206821 -0.71147646484648 -0.57520204330433
 6  13.83395198459846  0.08836160996100  0.12819487498750
 6  15.36911582338234 -0.21625250675068 -0.33286684458446
 6  15.70834040584058 -1.75945481088109 -0.28281705000500
 6  16.26488723302330  0.63721823912391  0.40883990629063
 6  17.75907079587959  0.50979389708971  0.00035613421342
 6  18.64509543384338  1.52744707360736  0.77452826902690
 6  20.16810871247124  1.47869567416742  0.40549227672767
 6  20.32857355625563  1.93449002510251 -1.11868994679468
 6  20.95501802310231  2.25982732153215  1.37146893509351
 1 -4.05948360866086  3.65773700570057  1.64545942684268
 1 -10.18977683078308  4.05876311841184 -0.28189951265127
 1 -10.80215447184719 -2.11610876637664 -1.14601407450745
 1 -2.68121044804480 -1.01551078627863  2.13491436713671
 1 -2.33637495199520  1.44841506470647  1.20854376657666
 1 -1.86831708970897  1.00845721412141  3.50905000900090
 1 -3.07935342724272  2.42359740944094  3.55102529772977
 1 -3.58602819971997  0.70450563506351  3.92633780998100
 1 -2.00894640304030 -1.68862359545955 -0.33723817101710
 1 -2.26802014141414 -0.06780058905891 -0.82725942014201
 1 -0.17152297209721  0.53423727732773  0.71205156645665
 1 -0.17281762106211 -0.87923988258826  1.61653916231623
 1 -4.73858867536754  6.02635700380038  0.62195499529953
 1 -6.17045225162516  6.79498441314131  1.14420371497150
 1 -5.28022610941094  5.62229027302730  2.43764789878988
 1 -8.42673768316832  6.76806668116812  1.24265581948195
 1 -9.40128548044804  5.73746390689069 -1.45689727582758
 1 -9.94188893549355  7.53038176567657 -0.47311753465347
 1 -12.43259762176218  3.41066025322532  0.29722190909091
 1 -12.79275312361236  3.33490744814481 -1.47874719151915
 1 -13.64494551735173  2.28205604130413 -0.68540289568957
 1 -12.68648102130213 -1.41850077677768 -1.00810556165617
 1 -13.66155317981798  0.15759991469147 -1.27114947374737
 1 -12.72074770467047  0.39843665676568 -3.55928327262726
 1 -11.62934790279028 -0.90979855345535 -3.33413236533653
 1 -13.47388414191419 -1.40336943174317 -3.36950449274927
 1 -9.68553510231023 -4.70459977977798 -0.15166746874687
 1 -9.27879185808581 -4.79667761376138 -1.91460835903590
 1 -8.27813298799880 -5.62663093009301 -0.70760871637164
 1 -3.54936678807881 -3.28521481168117 -0.43609495809581
 1 -1.54587498049805 -6.12675777147715  2.07967130123012
 1 -1.56422486888689 -4.35521900580058  2.99979442204220
 1 -2.80510352675268 -5.53507859945995  3.31783865946595
 1  2.84094800230023 -2.05315295879588 -1.39445061206121
 1  2.51104599909991 -0.65094267506751 -2.21057882508251
 1  4.10672344404440 -1.26996931123112  0.35311321432143
 1  5.39845167436744  1.62661517051705 -2.34293901370137
 1  5.43090970817082  0.23240920342034 -3.22615401700170
 1  4.05475559375938  0.81995318211821 -3.00345117021702
 1  6.44703271947195  1.18196432143214 -0.17246743784378
 1  6.22672071677168 -0.03311320092009  0.68686639403940
 1  7.41618840374037 -1.49052577717772 -1.23500426002600
 1  7.87447699019902 -0.08187616701670 -2.03091792079208
 1  8.92282777017702  0.75259410071007  0.07294744304430
 1  8.60034309710971 -0.76261041254125  0.61319413181318
 1  10.14113678227823 -0.01845928922892 -1.96502107710771
 1  9.40405072127213 -2.55340403360336 -2.31862040984098
 1  11.05652068316832 -2.76343794359436 -1.71244184908491
 1  9.69270429052905 -2.84537622322232 -0.43316158545855
 1  11.22002730013002  0.71970075017502  0.26271485668567
 1  11.08825478897890 -1.03346858335834  0.89626955715572
 1  13.10849556015602 -1.75625719691969 -0.52392560556056
 1  12.79852800500050 -0.66526660566057 -1.73932546624662
 1  13.73656481138114  1.22308201900190  0.00082299319932
 1  13.88503273027303 -0.13988041584158  1.17584443034303
 1  15.58198054225423  0.03783498959896 -1.44652666596660
 1  14.88592414531453 -2.47627020882088 -0.70541987518752
 1  16.55061893539354 -2.01889592619262 -0.84724050795079
 1  15.70115539433943 -1.97019215181518  0.79822909430943
 1  15.96733700690069  1.83694026432643  0.30389084808481
 1  16.07884254105411  0.51889251255125  1.63117654025402
 1  18.16512773447345 -0.39134334483448  0.41495162736274
 1  17.86384096969697  0.45968785708571 -1.12198063056306
 1  18.21213590309031  2.48712510841084  0.58585397509751
 1  18.46972922712271  1.24975078457846  1.88458560856086
 1  20.43591992439244  0.46023398439844  0.56326748294829
 1  19.75281263786379  2.94337260736074 -1.19868177057706
 1  21.49584682838284  2.18373644334433 -1.12786589318932
 1  20.03692866586659  1.04061968366837 -1.75321750325032
 1  20.64416965346535  1.79320078807881  2.33376441304130
 1  22.13095595279528  2.26837686508651  1.36925108220822
 1  20.60770039943995  3.38089128872887  1.42215095299530
 1 -6.81525335843584  1.80781965516552  0.11715356145615
 1 -7.83536508490849 -0.22792296829683  0.03591346374637

