%nproc=3
%Mem=2GB
# td=(NStates=1) B3LYP/SVP 

TD

0 1
 6 -5.10574827292729 -1.97377361946195  0.57250212611261
 6 -4.78896921592159  2.66985343704370  1.40466685258526
 6 -9.35189509920992  3.42100289948995 -0.11442991089109
 6 -9.73135118961896 -1.27314811821182 -1.10114266766677
 7 -5.13384254655466  0.43635525842584  0.85677411441144
 6 -4.47550616671667 -0.78987570857086  0.88439188258826
 6 -3.03300298679868 -0.59942637733773  1.35936093189319
 6 -3.04616958235824  0.89762865516552  1.83862296809681
 6 -4.42147134023402  1.41136095399540  1.35570916791679
 6 -2.84273284178418  0.99372688498850  3.30923878647865
 6 -2.00914298499850 -0.77768773047305  0.22649059465947
 6 -0.50982419461946 -0.79475769236924  0.62909536223622
 6  0.44432809420942 -1.11626849974997 -0.48183974157416
 8  0.08569033663366 -1.69423178977898 -1.39981359285929
 8  1.62409260636064 -0.69842661576158 -0.24844728742874
 7 -7.10160475507551  2.76876414821482  0.52464197339734
 6 -5.93455503090309  3.32064648294830  1.00243110001000
 6 -6.26152933863386  4.74034047354735  1.01354784758476
 6 -7.52144124092409  4.97325616111611  0.56623315071507
 6 -8.02885383128313  3.65111360506051  0.19270942634263
 6 -5.22930344684468  5.74444996009601  1.37647891389139
 6 -8.11490877357736  6.29355336693669  0.46932543384338
 6 -9.12145004320432  6.64126384828483 -0.37245972477248
 7 -9.21437963856386  1.00342757575758 -0.55563803220322
 6 -9.91610547344735  2.17105960466047 -0.56645591479148
 6 -11.34677854435444  1.96156971797180 -0.98452228612861
 6 -11.34815876637664  0.53666100620062 -1.24784973967397
 6 -10.05369759545954  0.06315636393639 -0.97991123362336
 6 -12.45889439033903  2.97700620222022 -1.03923701400140
 6 -12.54185192469247 -0.17639011851185 -1.71912287198720
 6 -12.60630076077608 -0.34386765116512 -3.30188836013601
 7 -7.41908086568657 -1.27298898409841 -0.23118164666467
 6 -8.51930351785179 -1.98929765656566 -0.69453281568157
 6 -8.17662010101010 -3.37570445264526 -0.72991555885589
 6 -6.77485239433943 -3.34390121842184 -0.22364998889889
 6 -6.41999310271027 -2.03018583718372  0.11712678887889
 6 -8.98086084368437 -4.53334408390839 -1.15620461486149
 6 -5.67015396059606 -4.24735977107711  0.01885283088309
 8 -5.57767725792579 -5.47437696779678 -0.05457272317232
 6 -4.51385901450145 -3.35123588518852  0.47587664976498
 6 -3.90891468936894 -3.82648674217422  1.72360888658866
 8 -4.28772384588459 -3.50533846774677  2.82562063016302
 8 -2.98300698829883 -4.85179015191519  1.61683211111111
 6 -2.53011771557156 -5.38515796189619  2.89857199679968
 6  2.62772494109411 -1.10057395499550 -1.10303432923292
 6  3.99051229802980 -0.63873437583758 -0.63825592569257
 6  5.02924518111811 -0.06424536963696 -1.29191314791479
 6  4.94710390609061  0.50853158485849 -2.71745886268627
 6  6.30534227942794  0.18533627282728 -0.46381529572957
 6  7.54809605000500 -0.55529171207121 -1.13311017791779
 6  8.79867146824683 -0.23389737483748 -0.31997034453445
 6  10.07961888758876 -0.96063038963896 -0.93558091289129
 6  9.94324036263626 -2.40322412531253 -0.98646793169317
 6  11.24281813201320 -0.48057237193719 -0.00285084078408
 6  12.58495016921692 -0.62650796799680 -0.59167369046905
 6  13.76343493289329 -0.16815404160416  0.30574262976298
 6  15.19087799959996 -0.24966584808481 -0.26101965986599
 6  15.59703927572757 -1.68132699809981 -0.45927469576958
 6  16.22129287358736  0.55641015831583  0.50982000430043
 6  17.65178006680668  0.61737465516552 -0.03473737513751
 6  18.49489041334133  1.82653698259826  0.61043185938594
 6  19.90711261286129  1.86708451305130  0.09882160966097
 6  19.91590228912891  2.39907648374838 -1.29609768756876
 6  20.83426594789479  2.87891923072307  1.05173696189619
 1 -4.24080174047405  3.38054928692869  2.14481936283628
 1 -9.95306315941594  4.22941018311831 -0.31829315201520
 1 -10.55944020042004 -1.74848200370037 -1.36537601070107
 1 -2.82544487148715 -1.59593882908291  2.14138501420142
 1 -2.40394170867087  1.30880110331033  1.25080799299930
 1 -1.84083434143414  0.84003037143714  3.54910401440144
 1 -2.82574806670667  2.10006505620562  3.57460765596560
 1 -3.34452404930493  0.16263144764476  3.89712488868887
 1 -2.11622713111311 -1.89223395649565 -0.23194764196420
 1 -2.13895723512351 -0.07554136313631 -0.71996869106911
 1 -0.22219803960396  0.13113696729673  1.14298465976598
 1 -0.34202454175418 -1.51057301590159  1.51229873827383
 1 -4.63203802030203  5.74023839193919  0.48695149494949
 1 -5.60873608000800  6.78102301700170  1.51924121872187
 1 -4.36534462126213  5.69136718071807  2.29268340234023
 1 -7.71966697609761  7.11662153665366  1.10905245914591
 1 -9.36500185208521  5.92366252675267 -1.12444403050305
 1 -9.56793153975397  7.54513324082408 -0.06404662756276
 1 -12.67981234323432  3.49838902610261  0.01031321822182
 1 -12.19304315261526  3.81751570897090 -1.72750206700670
 1 -13.54933595639564  2.55351318701870 -1.22539689508951
 1 -12.83200557375737 -1.21930085678568 -1.10592534363436
 1 -13.51282830733073  0.40707486218622 -1.30484284308431
 1 -12.93245887578758  0.66170298339834 -3.87180452475248
 1 -11.65773074107411 -0.87783535713571 -3.56713566566657
 1 -13.44353110661066 -0.87339643444344 -3.60561810411041
 1 -10.22245879467947 -4.51637095689569 -0.92098440044004
 1 -8.92371635053505 -4.73835178117812 -2.50395729392939
 1 -8.51035621032103 -5.49096736373637 -0.67075503100310
 1 -3.80989284068407 -3.37650394059406 -0.30886223482348
 1 -1.64714510751075 -6.03916901260126  2.88426176027603
 1 -2.20968941534153 -4.75252873677368  3.65333977657766
 1 -3.30456347274727 -6.09574466606661  3.40168704430443
 1  2.65993990149015 -2.08318596209621 -1.32747391439144
 1  2.32498739323932 -0.50794837563756 -2.11336910411041
 1  4.27438020972097 -1.02280459475948  0.46063396639664
 1  5.01481331053105  1.71202371137114 -2.76461118091809
 1  5.81503812101210  0.35565152765277 -3.28343974557456
 1  4.08257837603760  0.09843102990299 -3.04596542164216
 1  6.61197921412141  1.15691181618162 -0.26831702280228
 1  6.33601164586459 -0.19965985558556  0.46612431983198
 1  7.36168295319532 -1.67978470307031 -1.12222298189819
 1  7.69622916541654 -0.26570454985499 -2.23299812881288
 1  8.87059254665466  0.92171101240124 -0.16112596429643
 1  8.77158022082208 -0.35994014551455  0.69340215261526
 1  10.41867453605360 -0.61080852415242 -1.99639421442144
 1  8.96067638383838 -2.61446013921392 -1.53371191899190
 1  10.91974700580058 -2.85203680348035 -1.54133473837384
 1  9.56556157625763 -2.83881556715672 -0.07464573387339
 1  11.32591788918892  0.58993777387739  0.34994357955796
 1  11.15799176267627 -1.18269350585059  0.92518244844484
 1  12.80069478007801 -1.89581115231523 -0.63820703370337
 1  12.83378153035304 -0.28837891689169 -1.55452698639864
 1  13.44624577947795  1.13952366316632  0.37635054595459
 1  13.62919714671467 -0.59242567036704  1.46863370927093
 1  15.16714905910591  0.25058626472647 -1.10634264756476
 1  14.84864041694169 -2.19509209100910 -1.10091942514251
 1  16.49939381288129 -1.71132516911691 -0.98532431633163
 1  15.67523280208021 -2.12529766236624  0.59522879427943
 1  15.78595886908691  1.64024059435944  0.74979543854385
 1  16.43688834563456  0.23491411471147  1.73758718131813
 1  18.45740696239624 -0.21811602210221  0.24353448564856
 1  17.67913249884989  0.76944883318332 -1.01056948944894
 1  17.87182187168717  2.79382577847785  0.48511390109011
 1  18.39602185638564  1.81380719021902  1.68629577957796
 1  20.44835116751675  0.95204316531653  0.39834099029903
 1  19.47914527112711  3.43766203630363 -1.33392529492949
 1  21.06039328302830  2.30870894059406 -1.60585369196920
 1  19.37692266526653  1.62118774047405 -2.00255243674367
 1  20.77196243274328  2.73073454145415  2.07391842844284
 1  21.96650950815081  2.51529155655566  0.84244840194019
 1  20.83216284568457  3.99192239183918  1.04012275017502
 1 -7.25734756785679  1.78632750595060  0.40683252935293
 1 -7.22726427482748 -0.38489866586659 -0.24434456205621

