%nproc=3
%Mem=2GB
# td=(NStates=1) B3LYP/SVP 

TD

0 1
 6 -5.12649034713471 -1.88499474157416  0.40285516141614
 6 -4.74943526252625  2.74691114281428  1.39115550145014
 6 -9.36710662036204  3.38618941814181 -0.14041250915091
 6 -9.87112516701670 -1.45832663606361 -0.94802735613561
 7 -5.22686184848485  0.43000462336234  0.71386982398240
 6 -4.47427604370437 -0.72812953395340  0.75659910331033
 6 -3.05321500800080 -0.60343677837784  1.18875387118712
 6 -3.02964793019302  0.76169506180618  1.78740784658466
 6 -4.41694088718872  1.47584740264026  1.22170576757676
 6 -3.19674824332433  0.80488800110011  3.34624248684868
 6 -2.02919499019902 -0.79150911261126  0.01358930453045
 6 -0.59755296749675 -0.69353757035704  0.47340979367937
 6  0.43232689408941 -1.00000687358736 -0.51601315891589
 8  0.14427619521952 -1.41713408000800 -1.50810442194219
 8  1.69697989508951 -0.73377015011501 -0.11880432313231
 7 -7.11857645224522  2.71358863066307  0.49830934013401
 6 -5.95728730413041  3.33683810211021  1.01013187008701
 6 -6.24290747644764  4.72077851735174  1.06176266906691
 6 -7.56306540334033  4.94742357785779  0.55510203760376
 6 -8.04014496039604  3.63027152085209  0.18592874827483
 6 -5.23185370187019  5.75171068616862  1.65469673567357
 6 -8.17312459515952  6.25986999859986  0.31302980428043
 6 -9.01729962816282  6.60658037993799 -0.63476595539554
 7 -9.15661386198620  0.91427866086609 -0.52962543094309
 6 -9.87946180908091  2.08435093379338 -0.61225049424942
 6 -11.15040890739074  1.89858341934193 -0.92736657055706
 6 -11.39344329482948  0.62140948104810 -1.10624557925793
 6 -10.04005623132313 -0.13322327402740 -0.94056729922992
 6 -12.21558005890589  2.95517401900190 -1.01289437973797
 6 -12.67273501300130 -0.21654413391339 -1.60484144384438
 6 -12.70813094379438 -0.22758602300230 -3.21385955725573
 7 -7.47252621022102 -1.30415210041004 -0.27990651915192
 6 -8.61185277277728 -1.94593332013201 -0.68656201860186
 6 -8.21168360736074 -3.40009689188919 -0.65501806910691
 6 -6.84204911401140 -3.46779360766077 -0.23275089898990
 6 -6.42483358675868 -2.16710952955296  0.07270234643464
 6 -8.97390014761476 -4.55111586108611 -1.00410940534053
 6 -5.67750469566957 -4.35878091319132 -0.02687174157416
 8 -5.51751124132413 -5.54710424052405 -0.17553481938194
 6 -4.45213284188419 -3.34796555815582  0.36106516861686
 6 -3.93282708060806 -3.80369446294629  1.71329785548555
 8 -4.34229930343034 -3.48183611751175  2.86047411551155
 8 -3.09300798839884 -4.82379735263526  1.60510093799380
 6 -2.61628633243324 -5.44845429152915  2.80537267686769
 6  2.67453962256226 -1.11941583918392 -1.10575460126013
 6  4.02496574337434 -0.80403090549055 -0.50640274037404
 6  4.94338659525953 -0.03991293639364 -1.07827178377838
 6  4.88861805750575  0.67243797549755 -2.39251636843684
 6  6.23036478167817  0.16530426962696 -0.27604651885189
 6  7.53882512291229 -0.43636981988199 -0.83364023092309
 6  8.75360696179618 -0.19919390449045  0.02128378087809
 6  10.05840676637664 -0.65886021262126 -0.78251560636064
 6  9.97469350795080 -2.22431623452345 -1.00662994789479
 6  11.31994584478448 -0.15933024772477  0.00600004430443
 6  12.71233290749075 -0.67136245344534 -0.46731125422542
 6  13.81250984038404  0.15337811161116  0.32182423792379
 6  15.19475838763876 -0.06718760026003 -0.26133969186919
 6  15.58761833363336 -1.55795466086609 -0.19114788308831
 6  16.22501324562456  0.77396191349135  0.46578560086009
 6  17.66802169096910  0.73839675737574 -0.21397529892989
 6  18.65440636493650  1.74163849274927  0.50904172037204
 6  20.07290919251925  1.61180898549855 -0.02274054655466
 6  20.21424212311231  1.90383695979598 -1.54454253205320
 6  21.01994451575158  2.53556489528953  0.86812860106011
 1 -3.99610727102710  3.51093232523252  1.91749663056306
 1 -10.04075192829283  4.24869211131113 -0.22478380108011
 1 -10.64634889128913 -2.20767792329233 -1.00849032213221
 1 -2.92595492249225 -1.42679191439144  1.95300617631763
 1 -2.20715202970297  1.21064128732873  1.36614952715272
 1 -2.33520377837784  0.53419978837884  3.87618672267227
 1 -3.46533202510251  1.78531358105811  3.66252644784478
 1 -4.00182977987799  0.15810099459946  3.64337951415142
 1 -2.11922743114311 -1.85008974207421 -0.49960440764076
 1 -2.10869420882088 -0.07767157615762 -0.81849854405441
 1 -0.51866768656866  0.35448930253025  0.94893525482548
 1 -0.54218455775578 -1.30834279287929  1.43681118951895
 1 -4.25919073557356  5.87342171027103  0.88014081388139
 1 -5.73003821022102  6.75636055075508  1.62488178277828
 1 -4.76111419821982  5.59777782178218  2.50990512451245
 1 -7.66171118051805  7.05954582908291  0.83493504740474
 1 -9.29306465836584  6.04115427592759 -1.56123770987099
 1 -9.30669541614161  7.72840156765677 -0.78622884578458
 1 -12.17169153115312  3.66362554975498 -0.11456927002700
 1 -12.05338918721872  3.60783474087409 -1.76000531733173
 1 -13.18151917471747  2.53871170687069 -1.29865422082208
 1 -12.54763713691369 -1.09552847954795 -1.17893264436444
 1 -13.62285931043104  0.39180333503350 -1.26561892069207
 1 -12.22293792369237  0.92899971307131 -3.34958230253025
 1 -11.89755472347235 -0.95260283388339 -3.51238019011901
 1 -13.75164191769177 -0.42188128292829 -3.74967250955095
 1 -9.85872242104210 -4.41964128392839 -0.49940224222422
 1 -9.01021500040004 -4.65918386438644 -2.24828172637264
 1 -8.49531470617062 -5.67906617361736 -0.64346230173017
 1 -3.76318817021702 -3.29401569176918 -0.35636698529853
 1 -2.20933132613261 -6.49353444914491  2.43077641174117
 1 -1.95961440784078 -4.87443092699270  3.18779322192219
 1 -3.45605862226223 -5.81397648924893  3.54321119671967
 1  2.63220712821282 -2.18523616711671 -1.44411557855786
 1  2.60036493099310 -0.43140072087209 -2.11064883208321
 1  4.20598337003700 -0.98943125742574  0.43404130713071
 1  5.36952878207821  1.76230873987399 -2.11193591339134
 1  5.57996461366137  0.21435739823982 -3.19291069266927
 1  3.84803492169217  0.66030721752175 -2.92945377047705
 1  6.48861687788779  1.11464758975898 -0.21713190429043
 1  5.96133417811781 -0.19875976557656  0.69327703510351
 1  7.28476526142614 -1.48214493909391 -1.07053781338134
 1  7.43321286378638  0.03716573717372 -1.84280910991099
 1  8.73012850025002  0.78161700300030  0.35738588688869
 1  8.65511857465747 -0.75022917441744  0.96459927232723
 1  10.03336600520052 -0.37793523682368 -1.80018459345935
 1  9.21064138033803 -2.53281197439744 -1.71943049084908
 1  10.94741977307731 -2.33974557435744 -1.35428603350335
 1  9.73704872497250 -2.71779346494649 -0.10608887818782
 1  11.15824112151215  0.94179295939594 -0.08296971177118
 1  11.04168013151315 -0.52272750925093  1.11597152735274
 1  12.75993070367037 -1.81589316051605 -0.27869108210821
 1  12.86710486268627 -0.61459153815381 -1.72644417811781
 1  13.70576173107311  1.29939965076508  0.26843975487549
 1  13.76896112311231 -0.13062949074907  1.31391823772377
 1  15.13305564976497  0.09634084018402 -1.34136614991499
 1  14.93706925982598 -2.28494107590759 -0.67954728792879
 1  16.60124399789979 -1.76569060566057 -0.69730551445145
 1  15.83134841364136 -1.95641077367737  0.74653392479248
 1  15.82393266646665  1.89932650295030  0.72191265026503
 1  16.41227588438844  0.33857448074807  1.63725714831483
 1  18.07771899359936 -0.24434864536454 -0.20024989278928
 1  17.57211179677968  1.00977286558656 -1.33610204270427
 1  17.98974366386639  2.75914231013101  0.33020841054105
 1  18.86881913611361  1.38008381788179  1.61659880988099
 1  20.42013834623462  0.49121708270827 -0.05642448624862
 1  20.07100445704571  2.99039730983098 -1.70147204960496
 1  21.28086533023302  1.61751982168217 -1.77989109570957
 1  19.82237721072107  1.19280490219022 -2.23092527402740
 1  21.02497773427343  2.12552402040204  1.92490352695269
 1  22.06039889708971  2.41983201060106  0.50716487358736
 1  20.71684131353135  3.68447164676468  0.80851958985899
 1 -7.13685551865187  1.75462433563356  0.31422326842684
 1 -7.43683523192319 -0.33338351435144 -0.29555968356836

