%nproc=3
%Mem=2GB
# td=(NStates=1) B3LYP/SVP 

TD

0 1
 6 -5.05104280238024 -2.00807704980498  0.51413628952895
 6 -4.77815813481348  2.74177062876288  1.22489887578758
 6 -9.37859776947695  3.28045884508451 -0.20186865476548
 6 -9.79724777927793 -1.46621742514251 -0.92878543194319
 7 -5.09721888418842  0.39650127302730  0.69191762876288
 6 -4.42331094719472 -0.73297001800180  0.82542598599860
 6 -2.89882956945695 -0.57015345004500  1.33271826762676
 6 -2.96141110651065  0.94893378567857  1.67829693549355
 6 -4.32868206130613  1.40281009890989  1.18052164916492
 6 -2.82726129462946  1.17139465176518  3.22723058565857
 6 -1.98712078277828 -0.83941390309031  0.05272321792179
 6 -0.58555176737674 -0.74481269786979  0.53601605430543
 6  0.49769343074307 -0.98859573247325 -0.64901645924592
 8  0.14131589918992 -1.26579894649465 -1.72783639513951
 8  1.73026322342234 -0.79637641074107 -0.23455589828983
 7 -7.04088868346835  2.79731700350035  0.36278578777878
 6 -5.93924549994999  3.40005442374237  0.93907476437644
 6 -6.18137132283228  4.80947738723872  0.93410990379038
 6 -7.58834793159316  4.95122395789579  0.51593812121212
 6 -8.01168211411141  3.68261675537554  0.11762191759176
 6 -5.34376489298930  5.90963647874788  1.37948921492149
 6 -8.33508079077908  6.31196520812081  0.34504300560056
 6 -9.25331322952295  6.50558027992799 -0.67455993479348
 7 -9.23772197279728  0.82254948794879 -0.49491195959596
 6 -9.96317017991799  2.02787528622862 -0.51637090629063
 6 -11.28088195469547  1.83836739773977 -0.83878771267127
 6 -11.44046799729973  0.44886222632263 -0.99345430013001
 6 -10.06222844854485 -0.11614156585659 -0.79487272977298
 6 -12.25279378027803  2.88468697029703 -1.00981407170717
 6 -12.61752949244925 -0.32469494899490 -1.62144310401040
 6 -12.60883101380138 -0.61110437483748 -3.07101527282728
 7 -7.46343530113011 -1.31142282748275 -0.21920044854485
 6 -8.54229581708171 -2.13665239203920 -0.63248661106111
 6 -8.24934737373737 -3.51966884908491 -0.55935850315031
 6 -6.78627353645365 -3.41448827712771 -0.24911253515352
 6 -6.40509161256126 -2.10675349394940  0.06734181038104
 6 -9.07312006960696 -4.57039778927893 -1.01348034243424
 6 -5.65010195539554 -4.31439647474747  0.02576352195220
 8 -5.59114860506051 -5.50927045714571 -0.11863912981298
 6 -4.40355798439844 -3.42388314991499  0.43599266136614
 6 -3.99805360326033 -3.78294238773877  1.77189371507151
 8 -4.42853792729273 -3.37338527242724  2.80328839693969
 8 -3.16012470007001 -4.79692466536654  1.71370179807981
 6 -2.66900160396040 -5.43125257135714  2.99874201380138
 6  2.77472964156416 -0.96790068766877 -1.24917894369437
 6  4.08591183798380 -0.65616611901190 -0.61629372947295
 6  4.93089534613461  0.28822987788779 -0.97257121372137
 6  4.81530072577258  1.25974670637064 -2.05983310011001
 6  6.27969971517152  0.36866460566057 -0.13037195139514
 6  7.48050929132913 -0.16041222412241 -0.90032689958996
 6  8.79876147724772 -0.15981996709671 -0.10627897539754
 6  10.02583350905090 -0.70436476307631 -0.67643499829983
 6  10.07983402200220 -2.25511931483148 -0.86042532743274
 6  11.25316916711671 -0.21941625632563  0.05806525082508
 6  12.61723339753975 -0.46797211441144 -0.65925044814481
 6  13.78116670607061 -0.08812603880388  0.26406846234623
 6  15.14092300410041 -0.11435231673167 -0.61623518141814
 6  15.53487305910591 -1.62100096549655 -1.11679044734473
 6  16.22003274757476  0.45598011531153  0.40954997729773
 6  17.60858574737474  0.55907882558256 -0.09908380978098
 6  18.64361528582858  1.22584691359136  0.73999481568157
 6  20.13641554315431  1.43201100570057  0.04505623312331
 6  20.16809750865086  2.55661223732373 -1.19164724252425
 6  21.00075259655966  1.96138747754775  1.30833262146215
 1 -4.06293395369537  3.42327355935594  1.72257713861386
 1 -10.14715256835684  4.08264550665066 -0.51460278297830
 1 -10.70516477287729 -2.24841199669967 -1.14936440954095
 1 -2.75537786478648 -1.04299353455346  2.22996387208721
 1 -2.14548586308631  1.57301752495250  1.06357927012701
 1 -1.78616887488749  0.73850021842184  3.50947005100510
 1 -2.85292078397840  2.20057510721072  3.56467666286629
 1 -3.59964956185619  0.73064824932493  3.55943111931193
 1 -2.09598510691069 -2.07304203730373 -0.17303175037504
 1 -2.01354469386939 -0.13058686768677 -0.65365205940594
 1 -0.05457127692769  0.40978483208321  0.76035639693969
 1 -0.29007934723472 -1.38051000960096  1.36306381478148
 1 -4.77639245574558  6.42472684078408  0.47358015781578
 1 -6.12691789818982  6.80856577127713  1.86305560016002
 1 -4.41870995779578  5.25021306530653  1.97981211521152
 1 -8.29576458585858  7.22817269176918  0.97032858675868
 1 -9.50188554045405  5.90303046354635 -1.45020660676068
 1 -9.62539728632863  7.45970469796980 -0.51069129202920
 1 -12.52190655265527  3.59383857105711 -0.13248106120612
 1 -11.84904875317532  3.46391034843484 -1.82041135793579
 1 -13.30636165896590  2.31968980468047 -1.42020637603760
 1 -12.62603497669767 -1.32161108780878 -1.21139589068907
 1 -13.60048707320732  0.18463261796180 -1.30707306610661
 1 -12.38037366726673  0.48066487958796 -3.69704704900490
 1 -11.98910387838784 -1.38745631923192 -3.56262521462146
 1 -13.70693744724472 -0.95014410921092 -3.28227576987699
 1 -10.18332488128813 -4.59291861166117 -0.57198950095009
 1 -9.23646762566257 -4.66473441944194 -2.10838773697370
 1 -8.51940711541154 -5.53674194119412 -0.62980093559356
 1 -3.78379023042304 -3.62838912911291 -0.37728907750775
 1 -1.71450184318432 -6.01977707340734  2.54246758085809
 1 -2.37865631203120 -4.77686117001700  3.87387182978298
 1 -3.54624764116412 -6.25928101970197  3.16203307890789
 1  2.39084299179918 -1.94927257075708 -1.67100826782678
 1  2.46794168866887 -0.18949653045305 -2.24276204340434
 1  4.21418419011901 -1.14445675997600  0.36209411241124
 1  4.88048987818782  2.36103861286129 -1.72958767856786
 1  5.85854247144715  1.24553051555156 -2.85524692629263
 1  3.75751586978698  1.12606379317932 -2.71865269036904
 1  6.44630264646465  1.33696982198220  0.13708351725173
 1  6.22139018371837 -0.36879676927693  0.74788249564957
 1  7.06616340124012 -1.13365008960896 -1.20603136273627
 1  7.74620416291629  0.30039205980598 -1.81227605660566
 1  8.85985147254725  0.98944778607861  0.32055220352035
 1  8.59113217601760 -0.88171232273227  0.91661447384739
 1  10.21605427402740 -0.37177462076208 -1.62164673967397
 1  9.18830914711471 -2.68762745594560 -1.38249679747975
 1  10.87297232833283 -2.73619521932193 -1.26370697559756
 1  10.05581060116012 -2.51356304190419  0.08895062576258
 1  11.05760105750575  0.76317509760976  0.29332791799180
 1  11.11413737723772 -0.94853008950895  1.06916684688469
 1  12.68220293089309 -1.54868643984398 -0.94913812681268
 1  12.40939909210921  0.08765868686869 -1.67070860456046
 1  13.58312946784678  1.00335004580458  0.43068597949795
 1  14.36840106710671 -0.63099952775277  1.08322516841684
 1  14.99343168736874  0.53478468456846 -1.57660967426743
 1  14.79694524742474 -1.90696327812781 -1.94224355755576
 1  16.55437931143114 -1.77079111571157 -1.55353113701370
 1  15.29750502930293 -2.33995912851285 -0.30711143974397
 1  15.80654092729273  1.56642321262126  0.82311277027703
 1  16.22057671447145 -0.20259963666367  1.37988141074107
 1  17.73241446314631 -0.46053026352635 -0.49698956675668
 1  17.65576016161616  1.12400428872887 -0.96384481698170
 1  18.27601229072907  2.31605800170017  0.80631602130213
 1  18.92669492369237  0.81110692019202  1.67756490649065
 1  20.31630796319632  0.22457041804180 -0.16835567936794
 1  20.19814717131713  3.89026729682968 -0.53296519891989
 1  21.07702494619462  2.51681975167517 -1.69694280088009
 1  19.35136010901090  2.37268288998900 -1.90793297479748
 1  21.23091832833283  0.84458592659266  2.06621765836584
 1  21.81713457065707  2.21934196159616  0.76646080318032
 1  20.28082771217122  2.94428762836284  1.98209694759476
 1 -7.09403123622362  1.73601247444744  0.34712655875588
 1 -7.62367391579158 -0.33537371337134 -0.44088421602160

