%nproc=3
%Mem=2GB
# td=(NStates=1) B3LYP/SVP 

TD

0 1
 6 -5.09341703980398 -1.94858110021002  0.41934681058106
 6 -4.88941926092609  2.74069052075208  1.47550393629363
 6 -9.34813472317232  3.35202600180018 -0.20340880878088
 6 -9.86161421592159 -1.41951275467547 -0.91449400280028
 7 -5.19801896419642  0.37530915381538  0.81320975797580
 6 -4.47766638273827 -0.78118483948395  0.77198064146415
 6 -3.12418210471047 -0.57370380508051  1.28571356715672
 6 -3.10051501690169  0.89148804110411  1.88854796059606
 6 -4.53294248734873  1.36343616151615  1.44806840384038
 6 -2.99984855335534  0.89153666596660  3.35795365796580
 6 -1.98016008670867 -0.98259822152215  0.18194614021402
 6 -0.54493770597060 -0.83030124672467  0.59149160186019
 6  0.46126978837884 -1.06310318321832 -0.58793035063506
 8  0.15391715931593 -1.29855222182218 -1.67441105260526
 8  1.71213141024102 -0.77156392949295 -0.16948939163916
 7 -7.02555715031503  2.68595586738674  0.61676118531853
 6 -6.03514508990899  3.35771018931893  1.12937379427943
 6 -6.21342452815281  4.76658309780978  1.10857735053505
 6 -7.51104020082008  4.96471530703070  0.49515604300430
 6 -8.06413735963596  3.63771226492649  0.27041719711971
 6 -5.27869838633863  5.77968348344834  1.62957422342234
 6 -8.10753803650365  6.21845585718572  0.22207070837084
 6 -8.75209310751075  6.72038176007601 -0.90105258405841
 7 -9.25148334893489  0.84912214521452 -0.37337980638064
 6 -9.91834569746975  2.08561105980598 -0.45886515571557
 6 -11.24419828632863  1.81775533653365 -0.98939277317732
 6 -11.40461441194119  0.48773611371137 -1.21660661536154
 6 -10.11124335003500 -0.08508846054605 -0.83727697019702
 6 -12.26134463536354  3.03568206980698 -1.22212530283028
 6 -12.61764950445045 -0.18387086658666 -1.70676163586359
 6 -12.72599272997300 -0.25200846524652 -3.28133630493049
 7 -7.51445040264026 -1.31242292749275 -0.16872540104010
 6 -8.66359794729473 -2.07097582438244 -0.55942930533053
 6 -8.21000343934394 -3.36424330653065 -0.58118068536854
 6 -6.84460937003700 -3.46928375667567 -0.17654527842784
 6 -6.55695679907991 -2.07478029662966  0.09230430663066
 6 -8.98568132573257 -4.46553730323032 -1.23127212161216
 6 -5.75242218741874 -4.32227726282628  0.06539748534853
 8 -5.67860735093509 -5.51149067916792 -0.06337360326033
 6 -4.56397402600260 -3.40869163076308  0.38209727182718
 6 -3.97117091499150 -3.78862295579558  1.80379690539054
 8 -4.25653072657266 -3.42842077597760  2.96574464256426
 8 -3.24194288188819 -4.81003597649765  1.67085751365137
 6 -2.52225692949295 -5.58242768886889  2.86396853645365
 6  2.74754692329233 -1.03813771137114 -1.16032005780578
 6  4.06789003580358 -0.68392889528953 -0.68789088918892
 6  5.05751800840084  0.09023007790779 -1.23251720832083
 6  4.90431962766277  0.56201693339334 -2.66056317311731
 6  6.25344708990899  0.37695543474347 -0.43482239643964
 6  7.54253549394939 -0.48805498839884 -0.89897676457646
 6  8.76096769786979 -0.03689767486749 -0.20270861836184
 6  10.06529745544555 -0.57027135373537 -0.90369772457246
 6  10.05103114171417 -2.06916071897190 -1.08398768366837
 6  11.23984783498350 -0.11421573627363 -0.08712926862686
 6  12.66195786998700 -0.57214253145315 -0.58337286038604
 6  13.91395998539854 -0.06012323852385  0.24183623912391
 6  15.28989790159016 -0.18876975847585 -0.32344590249025
 6  15.66919649144914 -1.79535840124012 -0.54712348064807
 6  16.42169291359136  0.46807132443244  0.53265228752875
 6  17.70423531233124  0.71839475717572 -0.10661456285629
 6  18.61033195749575  1.66149047794779  0.67765858205821
 6  20.00390229182918  1.71842964756476  0.13843557105711
 6  20.15168586748675  2.17231380748075 -1.33412148994899
 6  20.92065458675868  2.58939027782778  1.08086987518752
 1 -4.00325798609861  3.46048728072807  1.95295017591759
 1 -10.03567142024202  4.28329557165717 -0.27406872957296
 1 -10.71424568096810 -1.99849700520052 -1.40229970307031
 1 -2.82328465546555 -1.23770300550055  2.19952082778278
 1 -2.26094740924092  1.54536475967597  1.26117903010301
 1 -1.90605086308631  0.58086445484548  3.66721582558256
 1 -3.12803829572957  1.90907595729573  3.66109630483048
 1 -3.77469706660666  0.00265545004501  3.64633981018102
 1 -2.21370687908791 -2.09316404950495 -0.20949539673967
 1 -2.25885922532253 -0.51150495949595 -0.82278897309731
 1 -0.26079189898990  0.10474432803280  0.86645700700070
 1 -0.18360870017002 -1.45983794239424  1.46747425582558
 1 -4.13459827632763  5.53515788388839  1.25966876667667
 1 -5.69004421082108  6.65841075577558  1.36625592019202
 1 -5.19450753755376  5.55361340534053  2.71375550955096
 1 -7.83703871327133  7.00359023352335  1.08164971887189
 1 -8.91422677457746  5.97446760726073 -1.77528911501150
 1 -9.31170591719172  7.63291201870187 -1.18566878977898
 1 -12.32067642964296  3.43336252345234 -0.22051986508651
 1 -11.69787363566357  3.44513847124712 -1.95706502330233
 1 -13.36712773557356  2.76902473817382 -1.47955231063106
 1 -12.69920229342934 -1.07357628432843 -1.21344609570957
 1 -13.46919394389439  0.38587274197420 -1.33300565936594
 1 -12.65799142904290  0.80570738383838 -3.80062740704070
 1 -11.98130309830983 -0.74690226382638 -3.63158211031103
 1 -13.63266001950195 -0.90609970477048 -3.42813035533553
 1 -9.95773232203220 -4.75668498829883 -0.74960726272627
 1 -9.32783676257626 -4.12410035603560 -2.26786368456846
 1 -8.57996317101710 -5.60865913291329 -1.25760371587159
 1 -3.85422727412741 -3.57371366156616 -0.30692204080408
 1 -2.24896528952895 -6.49372446814681  2.17811114521452
 1 -1.38359680608061 -4.81522500640064  3.13838828142814
 1 -3.22359537593759 -5.58532362396240  3.79751662726273
 1  2.42312622012201 -2.07307495099510 -1.25388655565557
 1  2.59674456895690 -0.54754233503350 -2.03778154535454
 1  4.21821459315932 -1.00522283658366  0.39122702570257
 1  5.49858168736874  1.46664917391739 -2.71114583438344
 1  5.52237885508551 -0.24792883038304 -3.21633303490349
 1  3.93817393559356  0.64438562536254 -2.99280010511051
 1  6.40639865606561  1.46334245924592 -0.58771896299630
 1  6.07705575027503  0.33618372877288  0.67310501790179
 1  7.17977476237624 -1.52396912151215 -0.64548530813081
 1  7.83618316081608 -0.25087306670667 -1.87772260126013
 1  8.73198868626863  0.95132397369737 -0.31318116981698
 1  8.66340940374037 -0.37647179867987  0.98338115051505
 1  9.94529719831983 -0.07727517081708 -1.79526410141014
 1  9.15845616181618 -2.41562025522552 -1.64166271407141
 1  11.05486051715171 -2.41469306910691 -1.31234183908391
 1  9.79598461856186 -2.44401608720872  0.03258498919892
 1  11.08865416281628  0.87860664076408 -0.14634604940494
 1  11.19532549604961 -0.47581281778178  0.90155008520852
 1  12.88856356695670 -1.62703427462746 -0.72011522452245
 1  13.04297244944494 -0.30187026602660 -1.65674720842084
 1  13.77158831373137  0.89301901270127  0.50786369726973
 1  13.70058428542854 -0.67906433423342  1.19175602150215
 1  15.32626497069707  0.09261046714672 -1.44176618991899
 1  14.98726427932793 -2.24668725052505 -1.20243957715772
 1  16.58952282578258 -1.84835887248725 -1.08084386828683
 1  15.73709898869887 -2.22766789938994  0.34032330373037
 1  16.03361363456346  1.41618818911891  0.73281374037404
 1  16.49611426822682 -0.15318469516952  1.57167058965897
 1  18.54328555025502 -0.21830604110411 -0.03957382518252
 1  17.72871745734573  0.96136802510251 -1.17862629512951
 1  17.97114180368037  2.74050044594459  0.73604899459946
 1  18.59861211541154  1.25222103160316  1.72449959996000
 1  20.35678201060106  0.76301426242624  0.30584174037404
 1  19.57510486708671  3.19727799789979 -1.22671457385739
 1  21.15582282598260  2.30195826552655 -1.58125123172317
 1  19.60754572757276  1.39112473417342 -2.05611779327933
 1  20.43996923342334  2.11659312731273  2.10051108770877
 1  22.08991184838484  2.54763479087909  1.15469962706271
 1  20.71781141054105  3.65763896349635  1.05910464836484
 1 -7.07029886298630  1.77688656185619  0.62587443354335
 1 -7.26372792119212 -0.28463863986399 -0.38922905050505

