%nproc=3
%Mem=2GB
# td=(NStates=1) B3LYP/SVP 

TD

0 1
 6 -5.11076877497750 -1.85665190729073  0.32506738263826
 6 -4.68277859685969  2.75941239293929  1.18257464336434
 6 -9.32505241494149  3.34913571277128 -0.10636910481048
 6 -9.78082613711371 -1.45108591199120 -0.93780633403340
 7 -5.17067622992299  0.48722034493449  0.55554399139914
 6 -4.45283389948995 -0.65310203120312  0.65148859225923
 6 -2.98668835533553 -0.44349078377838  1.10566556235624
 6 -2.96854181958196  1.04936382868287  1.59710881668167
 6 -4.32649184228423  1.38316813471347  1.15821941894189
 6 -2.74538310681068  1.20483799609961  3.17163502610261
 6 -2.08045011571157 -0.90664062576258 -0.08735078947895
 6 -0.56197941014101 -0.84471268786879  0.52320477317732
 6  0.45875953735374 -1.30916778967897 -0.58887044464446
 8  0.09341110871087 -1.64474684128413 -1.67959157065707
 8  1.74094429152915 -1.01379815291529 -0.25219766246625
 7 -7.01267586218622  2.80911818361836  0.45020452965297
 6 -5.83217479287929  3.45505992429243  0.90794165106511
 6 -6.13161634733473  4.82006844634464  0.96598309110911
 6 -7.50304940174017  4.95110394589459  0.57848437583758
 6 -8.01841278717872  3.66024451815182  0.19896005140514
 6 -5.38594911141114  5.88773428852885  1.57833909990999
 6 -8.16242352505251  6.27012102370237  0.34839334063406
 6 -9.10351825002500  6.57601732363236 -0.54887736653665
 7 -9.28201640224022  0.91868910191019 -0.47124959335934
 6 -9.94795865876588  2.07640013871387 -0.36448571777178
 6 -11.35742960946095  1.87136069706971 -0.70105393929393
 6 -11.47853180368037  0.46327366746675 -0.96134108880888
 6 -10.13855608130813 -0.03970392209221 -0.68550179267927
 6 -12.48317681858186  2.83083158475848 -0.68888197849785
 6 -12.74808254775478 -0.33199567906791 -1.34304526422642
 6 -13.01006113681368 -0.44145741014101 -2.86025419671967
 7 -7.45567452505250 -1.19278096329633 -0.25817434593459
 6 -8.56665825332533 -1.92441116791679 -0.60203356575658
 6 -8.21838427742774 -3.36060294249425 -0.74299686698670
 6 -6.81825673477348 -3.36572340064006 -0.28290591449145
 6 -6.43456455985599 -2.02762558115812 -0.04765968976898
 6 -9.09165192279228 -4.53299404890489 -0.97795679007901
 6 -5.71516846204620 -4.29018405350535  0.02194313991399
 8 -5.75125461566157 -5.44179370947095  0.08005073917392
 6 -4.47437506610661 -3.36236699829983  0.40811987408741
 6 -3.86005980388039 -3.70210430393039  1.65704222992299
 8 -4.13892896639664 -3.23685161906191  2.77525559365937
 8 -2.94920360796080 -4.71601657455746  1.57103753165317
 6 -2.37642234603460 -5.21398084418442  2.77615975557556
 6  2.79807197579758 -1.46383028062806 -1.24210823662366
 6  4.03128637543754 -0.96505700810081 -0.70696279637964
 6  4.93505576217622 -0.28682762786279 -1.26283023962396
 6  4.76253544924492  0.43505423712371 -2.58006512331233
 6  6.28262000720072  0.07556529572957 -0.65113402760276
 6  7.49851109150915 -0.50569675257526 -1.28536540344034
 6  8.72088368946895 -0.30329431453145 -0.30420876837684
 6  10.14289521522152 -0.74257858445845 -0.93193054785479
 6  10.14127016561656 -2.16281008390839 -0.99983926882688
 6  11.37213106330633 -0.06976129082908 -0.19899045474547
 6  12.66211788598860 -0.45207052425243 -0.76056057915792
 6  13.71191978137814 -0.08866609280928  0.23045510101010
 6  15.21289020082008 -0.18607948944894 -0.35007856575658
 6  15.62209178097810 -1.69025789118912 -0.44155292359236
 6  16.24473521782178  0.62175669296930  0.48317734003400
 6  17.73341823062306  0.61507442514251  0.03078917751775
 6  18.56141706600660  1.59807413631363  0.88276909310931
 6  20.04042594419442  1.73059086368637  0.39359108660866
 6  20.10041073997400  2.54981155725573 -0.85181325912591
 6  20.87599012031203  2.49222056085609  1.48026981518152
 1 -3.92473013331333  3.32150338233823  1.90259514041404
 1 -10.07821567466747  4.03393063516352 -0.13190451315131
 1 -10.64132838923892 -2.09711686718672 -1.24617409050905
 1 -2.69461178817882 -0.85980521572157  1.93821469716972
 1 -2.12301361586159  1.45788601180118  1.28510142234223
 1 -1.82832309030903  0.75057142554255  3.20286939093909
 1 -2.69969546144614  2.16557160686069  3.38536873207321
 1 -3.47593719061906  0.67027221172117  3.83003818001800
 1 -2.10995650405040 -1.64530926402640 -0.61704615181518
 1 -2.10151349074908  0.05978216921692 -0.75366206040604
 1 -0.36134195399540  0.21493534713471  0.91506186748675
 1 -0.43170350965096 -1.64613657225723  1.32344985338534
 1 -4.62996781328133  6.24761913001300  0.80975377517752
 1 -6.06212141854185  6.74814972967297  1.68336763136314
 1 -4.91389947674767  5.66090413441344  2.61172530653065
 1 -7.89232424182418  6.96575645014501  1.00877243114311
 1 -9.45818117001700  5.90717087758776 -1.30716230233023
 1 -9.71993674027403  7.61741046854685 -0.56244646754675
 1 -12.67985234723472  3.11643083028303  0.45772795969597
 1 -12.31277512581258  4.00966492389239 -1.12695201200120
 1 -13.51050207300730  2.41241907760776 -1.09347370277028
 1 -12.70713308650865 -1.29814874157416 -0.70446519761976
 1 -13.55884290879088  0.04973912861286 -0.82824518331833
 1 -13.07119274917492  0.72282909600960 -3.27402474677468
 1 -12.09252422042204 -1.02933050665066 -3.34739369146915
 1 -13.86251300480048 -1.01782087688769 -3.03925146744674
 1 -10.01332788158816 -4.58457777757776 -0.34139644164416
 1 -9.51867584648465 -4.52162010801080 -1.84110100830083
 1 -8.25150032473247 -5.32981124812481 -1.26648460396040
 1 -3.93867571897190 -3.51762805300530 -0.51707305590559
 1 -1.72966335933593 -5.93535863156316  2.74940827492749
 1 -2.14638308470847 -4.13799728362836  3.40269471207121
 1 -3.28151116751675 -5.50903599519952  3.23292016761676
 1  2.90767467496750 -2.53664130763076 -1.06103727072707
 1  2.42035693019302 -1.24568214901490 -2.24636240344034
 1  4.20268304000400 -1.30420273457346  0.35386328932893
 1  4.89534136333633  1.63386589558956 -2.59780450025002
 1  5.48362497969797  0.10294625712571 -3.26325772737274
 1  3.77559767796780  0.21195238203820 -2.98373919901990
 1  6.28808682488249  1.19023514851485 -0.65294548564856
 1  6.36257430213021 -0.07095698529853  0.50175788318832
 1  7.16861364626463 -1.58297502210221 -1.35449620922092
 1  7.81234077657766 -0.10260824022402 -2.25653048204820
 1  8.64674016141614  0.80766960826083 -0.09947979967997
 1  8.73731679447945 -0.70621477297730  0.80200301270127
 1  10.14559722832283 -0.09538698199820 -1.93626820182018
 1  9.30403071927193 -2.45555424862486 -1.70902945074507
 1  11.12520755185519 -2.83606520632063 -1.40094069896990
 1  9.98111313141314 -2.67373905950595 -0.05509377867787
 1  11.18419371677168  0.93970275037504 -0.37638905370537
 1  11.26843280678068 -0.25438067456746  0.95822575277528
 1  12.72329704030403 -1.57109868106811 -0.68521173417342
 1  13.04717286948695 -0.26286636563656 -1.79718125182518
 1  13.59964111901190  1.05294500530053  0.24904781568157
 1  13.57007123412341 -0.74147057485749  1.13621046694670
 1  15.11813415761576  0.21945315141514 -1.35904791809181
 1  14.92160771367137 -2.27496007780778 -0.88605793899390
 1  16.49403327682768 -1.65309934653465 -0.68423420732073
 1  15.63138841764176 -1.95602073467347  0.77126639803980
 1  15.79774004720472  1.64410098039804  0.55930638963896
 1  16.34487914471447  0.08626925022502  1.70450387298730
 1  18.20798201990199 -0.40153436393639  0.16727685988599
 1  17.93234782038204  0.77119900820082 -1.04898333083308
 1  18.14551924142414  2.62981937783778  1.07592298199820
 1  18.62113436763677  1.04258006750675  1.83556070607061
 1  20.57252358475847  0.83232119311931  0.31969312551255
 1  19.71489884648465  3.57819608970897 -0.56287819021902
 1  21.16794403810381  2.76640471017102 -1.21332443904390
 1  19.49913488648865  2.12635825752575 -1.62993517501750
 1  20.83234847134714  2.15724719271927  2.48281931853185
 1  21.84134699189919  2.48283831123112  0.93373753085309
 1  20.48574820422042  3.42665586518652  1.48353709160916
 1 -6.76134796789679  1.88881775497550  0.45982782888289
 1 -7.51168271667167 -0.10128030403040 -0.13599372697270

