%nproc=3
%Mem=2GB
# td=(NStates=1) B3LYP/SVP 

TD

0 1
 6 -5.15492319041904 -1.87192343444344  0.39370424632463
 6 -4.75812613161316  2.72902935463546  1.32345873177318
 6 -9.27598750845084  3.26821762096210 -0.19248771667167
 6 -9.83164121862186 -1.45395619901990 -0.86644919831983
 7 -5.15043420572057  0.40977260016002  0.75611404840484
 6 -4.56225484158416 -0.71108782978298  0.71684512791279
 6 -3.06310599709971 -0.55307174187419  1.22688768456846
 6 -3.12247721312131  0.82428132043204  1.76200530633063
 6 -4.42793198629863  1.36135595349535  1.24808840584058
 6 -3.03644221272127  0.76966447874787  3.37321518411841
 6 -2.05548761946195 -0.82420238193819  0.11579952555256
 6 -0.55205841804180 -0.78475669226923  0.62928538123812
 6  0.49207286868687 -1.18670554345435 -0.54129568716872
 8  0.07753952155216 -1.37959032563256 -1.66853046454645
 8  1.73421361846185 -0.88475524862486 -0.10285272797280
 7 -6.88407300190019  2.75688296009601  0.44445395459546
 6 -5.87299887528753  3.37626204450445  1.02887374427443
 6 -6.25957914361436  4.82823926342634  0.94494098689869
 6 -7.54856395319532  4.99212804830483  0.39086561396140
 6 -7.87787873377338  3.64406289999000  0.15013516891689
 6 -5.26553707020702  5.81793730883088  1.41518278427843
 6 -8.16231351405141  6.32307631923192  0.23415191649165
 6 -9.10157805600560  6.59034875677568 -0.69385186398640
 7 -9.24610281088109  0.86810404340434 -0.32523499189919
 6 -9.89519338223822  2.09882238093809 -0.31043031223122
 6 -11.37793165966597  1.86314987598760 -0.76747058095810
 6 -11.45107905840584  0.53841118121812 -1.01152610731073
 6 -10.24117634333433 -0.07427737943794 -0.80053329582958
 6 -12.27157565846585  2.98679718131813 -0.97146023632363
 6 -12.64221196069607 -0.10970344984498 -1.58720968066807
 6 -12.67752788348835 -0.31600486488649 -3.17639581088109
 7 -7.51453041064106 -1.20179186438644 -0.36797532603260
 6 -8.61693328082808 -1.95920464726473 -0.68166152855286
 6 -8.18894133313331 -3.39216609880988 -0.66741930923092
 6 -6.86947185628563 -3.31561839013901 -0.38139576347635
 6 -6.41976307970797 -2.02890570917092 -0.06686160996100
 6 -9.06223898149815 -4.62373312281228 -0.72512150655066
 6 -5.78741568676868 -4.31048608370837 -0.01518057245725
 8 -5.68074756495650 -5.53676320642064 -0.00895816171617
 6 -4.52814044264426 -3.29657041864186  0.45067412951295
 6 -3.95775957385739 -3.77782187568757  1.72342886858686
 8 -4.22404747824782 -3.41951988588859  2.85403347144714
 8 -3.11949063666367 -4.77383235613561  1.54073450135013
 6 -2.56570127392739 -5.32003144924492  2.72809494909491
 6  2.75459762836284 -1.29605350295030 -1.07763178897890
 6  3.99980322712271 -0.85889639203920 -0.51669376947695
 6  4.91756401300130 -0.13175212031203 -1.08420237683768
 6  4.76006520222022  0.66896762846285 -2.35240235703570
 6  6.29860160536054  0.08374611381138 -0.34838375257526
 6  7.47174841524152 -0.42690887378738 -1.13075994289429
 6  8.86610821192119 -0.23289727482748 -0.25998434593459
 6  10.15390631633163 -0.74051837843784 -0.91545890069007
 6  10.18506454505451 -2.45397920082008 -0.92145143004300
 6  11.33767761796180 -0.27633194789479 -0.16010656635664
 6  12.71521319551955 -0.53477879507951 -0.79315383848385
 6  13.87680627002700  0.03283605740574  0.10848290379038
 6  15.31475038683868 -0.10963184468447 -0.54145770367037
 6  15.69602917471747 -1.57232609800980 -0.66665543384338
 6  16.23162390669067  0.75836035333533  0.46762578487849
 6  17.63993888268827  0.83690660836084 -0.12506640804080
 6  18.55833675797580  1.67651198009801  0.79418023422342
 6  20.09277117871787  1.72087989258926  0.25026675417542
 6  20.27451815071507  2.41095767186719 -1.07599567736774
 6  20.92154467576758  2.34249558835884  1.39831161936194
 1 -3.85141280158016  3.35480671267127  1.55320020092009
 1 -10.10358821192119  3.98416565866587 -0.16224754745475
 1 -10.48947320372037 -2.11774893039304 -0.87616708980898
 1 -2.84364669166917 -1.16193542874287  2.01790266596660
 1 -2.33412472697270  1.44165438863886  1.45938885108511
 1 -2.00295055305531  0.27567393579358  3.60395949995000
 1 -3.21893738563856  1.73255830553055  3.93126332153215
 1 -3.98397799469947  0.12948813331333  3.75232040824082
 1 -2.10443595199520 -1.82309704280428 -0.27915236243624
 1 -2.24030737013701  0.05724191519152 -0.54790148434843
 1 -0.24948076787679  0.15860971457146  1.08645900720072
 1 -0.45171551085108 -1.41671362996300  1.49666717511751
 1 -4.45682049854985  5.92504687278728  0.69890269006901
 1 -5.56730193659366  6.77955286998700  1.34340363496350
 1 -4.93098118491849  5.60457850185018  2.40358449244924
 1 -7.73851886128613  7.19157903240324  0.74875642954295
 1 -9.41627697959796  5.90232039253925 -1.42687427352735
 1 -9.65515026162616  7.60191891939194 -0.50530075297530
 1 -12.19089345134513  3.84971415861586 -0.23300111321132
 1 -11.74112796109611  3.58024198159816 -1.97571688848885
 1 -13.24468549134913  2.54602243794379 -1.03145750115011
 1 -12.76583895709571 -1.22631155785579 -1.34557930903090
 1 -13.66823384788479  0.34214836953695 -1.31953431223122
 1 -12.77084271417142  0.58448526162616 -3.89918726302630
 1 -11.87807277527753 -0.80757833143314 -3.56428538063806
 1 -13.48746550005001 -0.90725982078208 -3.42876041834183
 1 -9.96893344214421 -4.57853717351735 -0.09357165916592
 1 -9.39651363026302 -4.63455140114011 -1.92222912111211
 1 -8.57015218991899 -5.55133340034003 -0.47405536103610
 1 -3.71128297969797 -3.52162845304530 -0.32778412701270
 1 -1.83725411841184 -6.19457455315532  2.42188552265227
 1 -2.06096454285428 -4.77100058395840  3.60301474407441
 1 -3.37859087548755 -5.70133522512251  3.32633950955096
 1  2.40785469296930 -2.32953059655966 -1.56541770877088
 1  2.37746264076408 -0.60151773257326 -2.03320108730873
 1  4.11373414511451 -1.17737005130513  0.65718362136214
 1  5.13882571177118  1.70067257625763 -2.16130084988499
 1  5.41333795099510  0.36561252375237 -3.24142554415442
 1  3.82403252145215  0.84143533033303 -2.66007683278328
 1  6.36907492369237  1.15015114011401 -0.30627081818182
 1  6.03334137883788 -0.42366225582558  0.49705741314131
 1  7.50310709560956 -1.61763848844884 -0.97873863346335
 1  7.44172371487149  0.23488550915092 -2.11102593159316
 1  8.97601308870887  0.88036687798780  0.04097424572457
 1  8.52905596839684 -0.85005915741574  0.62948576097610
 1  9.99503217181718 -0.53988143144314 -1.98970354535454
 1  9.36781709790979 -2.71130982418242 -1.44491303910391
 1  11.09599463056306 -2.91456305610561 -1.36219682458246
 1  10.12433745384538 -2.70611229682968  0.12069380008001
 1  11.26085138253825  0.87604638473847 -0.15594700950095
 1  11.28655461896190 -0.79598483498350  0.82327225742574
 1  12.79448415901590 -1.56301787298730 -1.01695490849085
 1  12.76524467666767  0.16234615561556 -1.63531506520652
 1  13.83062421732173  1.15690540134013  0.23008591949195
 1  13.70415464246425 -0.58735516331633  1.15499234513451
 1  15.45116746094609  0.57284849094910 -1.68943095639564
 1  15.00993654655465 -2.04639722152215 -1.25415474867487
 1  16.71912578607861 -1.83680771737174 -0.94113989788979
 1  15.69831511031103 -2.10526565916592  0.33148241964196
 1  15.85938621182118  1.68436500680068  0.83732419141914
 1  16.17092174897490  0.38201882518252  1.44090751335133
 1  18.02521374307431 -0.25979018951895 -0.35190505830583
 1  17.44264885048505  1.25234712301230 -1.17352578507851
 1  18.17425211471147  2.62770916681668  0.71529691939194
 1  18.52284453865387  1.28053386288629  1.86013316331633
 1  20.45349168156816  0.62812077307731  0.09223037923792
 1  19.90084744134414  3.49520779087909 -1.30300220262026
 1  21.24837208090809  2.46629469916992 -1.29975308190819
 1  19.85457043004300  1.97399302100210 -2.13582576407641
 1  20.56223145964596  1.82898436643664  2.27610864746475
 1  22.00613347054706  2.33502352975298  1.13784794189419
 1  20.61084071347135  3.24779797939794  1.20316905480548
 1 -7.09788162126213  1.74680355355536  0.58792063816382
 1 -7.63179472787279 -0.28517869386939 -0.52310243784378

