%nproc=3
%Mem=2GB
# td=(NStates=1) B3LYP/SVP 

TD

0 1
 6 -5.15429312741274 -1.98219446154615  0.46284116001600
 6 -4.65905622462246  2.72888934063406  1.36788317421742
 6 -9.26427633733373  3.44577537673767 -0.40456892479248
 6 -9.81297935243524 -1.36276708010801 -1.02179473287329
 7 -5.18993815611561  0.46173779667967  0.82359079607961
 6 -4.55654427052705 -0.73586030703070  0.85984942834283
 6 -3.02973265976598 -0.58952538723872  1.32064706050605
 6 -3.10429539493949  0.80522941524152  1.91249035483548
 6 -4.39637883098310  1.34624444234423  1.32762635963596
 6 -3.01201977047705  0.77844535683568  3.49909777237724
 6 -2.07654972567257 -0.78162812451245  0.16127407300730
 6 -0.65322853505351 -0.86984520112011  0.68498095079508
 6  0.45587924932493 -1.20058693159316 -0.46159771737174
 8  0.03530529812981 -1.48976134273427 -1.57175078657866
 8  1.70815101220122 -0.96555332843284 -0.07868031073107
 7 -7.04715931053105  2.77969524132413  0.44977448664866
 6 -5.84687626302630  3.36081049934994  0.90539139603960
 6 -6.17539072477248  4.79702614211421  1.06005249804980
 6 -7.51975107190719  5.03531236673667  0.59748627602760
 6 -8.05552649854986  3.74451294499450  0.20644079947995
 6 -5.19979049554956  5.87161267636764  1.54799606560656
 6 -8.12742002470247  6.30232424402440  0.35155365666567
 6 -8.90328822702270  6.69182890479048 -0.66833931273127
 7 -9.16095429602960  0.97867510051005 -0.50329279767977
 6 -9.78549241214121  2.14253675237524 -0.61777104630463
 6 -11.23221708820882  1.97564112511251 -1.06444027792779
 6 -11.40500445094509  0.68926626672667 -1.19664461916192
 6 -10.06312853855385  0.02435248354835 -0.89756299879988
 6 -12.25508400930093  3.03388188978898 -1.24145723602360
 6 -12.57995573507351 -0.18542102160216 -1.63435439513951
 6 -12.63217334803480 -0.57493075747575 -3.07353552485249
 7 -7.52066102370237 -1.24427611281128 -0.18428695719572
 6 -8.52260384788479 -1.96786551335134 -0.71523488588859
 6 -8.15618805780578 -3.38551543374337 -0.78934150145015
 6 -6.90973588268827 -3.41617844614461 -0.22126975087509
 6 -6.45218632203220 -2.06541936053605  0.11248632483248
 6 -9.05103786138614 -4.48184893439344 -1.12510150455046
 6 -5.70643758895890 -4.28695373047305 -0.05108416281628
 8 -5.62240173037304 -5.48961849194919 -0.24339160506051
 6 -4.57368499709971 -3.38740950255025  0.42238130023002
 6 -4.14050784868487 -3.87696178967897  1.91266779247925
 8 -4.44103917741774 -3.39156709060906  2.94402247034703
 8 -3.18731741934193 -4.82865783868387  1.70023045094509
 6 -2.78130283408341 -5.52440188628863  2.85568770837084
 6  2.61111327992799 -1.28003190079008 -1.06698072387239
 6  3.95625887268727 -0.98035853825383 -0.54400650075008
 6  4.95630788738874 -0.17634657975798 -0.95386934353435
 6  4.89472866856686  0.63947467916792 -2.19986710351035
 6  6.30386213141314 -0.19457171797180 -0.13200211441144
 6  7.49805104550455 -0.58623480638064 -0.96046291319132
 6  8.75787738883888 -0.40499448454845 -0.19312766026603
 6  10.13670459615962 -0.71249557615762 -0.90999835463546
 6  10.09891593019302 -2.26415021792179 -1.27948723362336
 6  11.29427327752775 -0.31512582728273 -0.05951650735074
 6  12.65956763096310 -0.55045036223622 -0.65065958905891
 6  13.81748033743374  0.13438621242124  0.06231828732873
 6  15.20904981678168  0.10693981248125 -0.44137769566957
 6  15.63977354915491 -1.36472533793379 -0.61439020732073
 6  16.21115185948595  0.88573309060906  0.38231725402540
 6  17.64872976177618  0.81640455815582 -0.16868076947695
 6  18.67266819111911  1.70984531343134  0.62076289248925
 6  20.19084098569857  1.73684148874887  0.08005973347335
 6  20.32353305220522  2.33116969306931 -1.27270534833483
 6  20.95834835613562  2.60246158495850  1.08218000620062
 1 -3.75783344364436  3.51581281328133  1.48947382828283
 1 -9.88231608470847  4.24571181328133 -0.66515783848385
 1 -10.46992124852485 -2.09906706220622 -1.46774624772477
 1 -2.75337766476648 -1.39728896409641  2.05925680138014
 1 -2.23359467396740  1.46810703390339  1.45150806300630
 1 -2.09205946394639  0.47007337573757  3.82880198419842
 1 -3.26107159905991  1.65174022372237  4.18752894809481
 1 -3.83149274617462  0.13848903340334  3.94716989318932
 1 -2.26205171357136 -1.74029876297630 -0.46080052725273
 1 -2.35095843524352  0.16143233423342 -0.40767746194619
 1 -0.45619143894389  0.10970482408241  1.18986934823482
 1 -0.37006734603460 -1.88837079567957  1.21625913431343
 1 -4.49772458895890  5.95923029112911  0.56039883968397
 1 -5.60005521192119  6.79399431413141  1.76991628622862
 1 -4.84195228202820  5.50829887388739  2.45006914091409
 1 -8.14743975337534  6.91968184268427  1.33954550845084
 1 -8.98206355825583  5.99105926642664 -1.44024561066107
 1 -9.52480722732273  7.49891861936194 -0.71740196309631
 1 -12.16732109410941  3.73909309650965 -0.32881069416942
 1 -11.78777262556256  3.63350730813081 -2.25885520232023
 1 -13.46076709950995  2.80268810451045 -1.39049340474047
 1 -12.74356672987299 -1.12298122482248 -1.01625637673767
 1 -13.41470849534953  0.48033218791879 -1.43578593739374
 1 -12.64626025592559  0.30615742884288 -3.75901324562456
 1 -11.83430839883989 -1.15825339893989 -3.71697064916492
 1 -13.56676342984298 -1.23181227602760 -2.94323186548655
 1 -10.21687823662366 -4.41392071187119 -0.81959426142614
 1 -9.07510148904890 -4.33052099809981 -2.26111300950095
 1 -8.68019319401940 -5.49124739173917 -0.86455441094109
 1 -3.54469632103210 -3.46458274847485 -0.14832618121812
 1 -2.00332072507251 -6.17985308100810  2.60497383148315
 1 -2.30578902530253 -4.83600708460846  3.62514695729573
 1 -3.54871788818882 -6.01240633223322  3.24828170377038
 1  2.35232914041404 -2.16999464296430 -1.35333650065007
 1  2.44712960746075 -0.55271285208521 -1.84921268846885
 1  4.06845961766177 -1.75248756305631  0.17500540354035
 1  5.08612044124412  1.84967747674768 -1.88740346014602
 1  5.83288990619062  0.50120608310831 -3.00169157075708
 1  4.05906602480248  0.47294848164816 -2.88157898299830
 1  6.63452146834683  0.93611973697370  0.24764457335734
 1  6.13662170687069 -0.86432632223222  0.83833154055406
 1  7.37875466036604 -1.64593131773177 -1.26150691029103
 1  7.47512705520552 -0.05169314871487 -1.96311114011401
 1  8.84860034743474  0.87895673697370  0.00145029332933
 1  8.58960202300230 -0.71371552305231  0.75981879427943
 1  10.02984565316532 -0.34079152245225 -1.84582915791579
 1  9.47037735393539 -2.31652034523452 -2.12390093789379
 1  11.18101313241324 -2.43763536333633 -1.58366897179718
 1  9.71837685778578 -2.77513919951995 -0.39418768806881
 1  11.11903720112011  0.81749052915291  0.26055464066407
 1  11.27320328382838 -0.95918115461546  0.87762769296930
 1  12.81835654625463 -1.61113268446845 -0.70474368736874
 1  12.60154830703070 -0.34441452045204 -1.81537307100710
 1  13.57258841374137  0.97445715651565  0.21651456235624
 1  13.71363559055906 -0.38157458525853  1.09865671157116
 1  15.30085242944294  0.51512271837184 -1.47287930123012
 1  14.99035458835884 -2.25174775657566 -1.07140647384738
 1  16.50870474397440 -1.37075111171117 -1.20544632853285
 1  15.64278955775578 -1.90706583918392  0.31834110551055
 1  15.64019429262926  1.87297386768677  0.52827328632863
 1  16.18620327712771  0.50504112741274  1.46701012361236
 1  17.98787000870087 -0.18516272677268 -0.16241610941094
 1  17.64205879147915  1.26882877117712 -1.29480791329133
 1  18.45111980148015  2.88167456335633  0.80977636733673
 1  18.58751100530053  1.22653846334633  1.69666681668167
 1  20.55681201360136  0.54481244224422  0.12006316251625
 1  19.67611496809681  3.41493976407641 -1.50231213361336
 1  21.49714695839584  2.74389245894589 -1.35462856945695
 1  20.02791776477648  1.63045866756676 -2.18509069056906
 1  20.67621285778578  2.18470993899390  2.12684372097210
 1  22.04513737093709  2.32291231863186  1.05466962406241
 1  20.63125275467547  3.79038223782378  1.07922666056606
 1 -7.35794762786279  1.75311418461846  0.56212805890589
 1 -7.57305885428543 -0.23629380538054 -0.03968409600960

