%nproc=3
%Mem=2GB
# td=(NStates=1) B3LYP/SVP 

TD

0 1
 6 -5.02224992309231 -1.87049329142914  0.39070394629463
 6 -4.76888720772077  2.89644609630963  1.32551893779378
 6 -9.53166307600760  3.23159395859586 -0.06054452235223
 6 -9.88116617111711 -1.55013581698170 -1.01244379777978
 7 -5.14342350465046  0.48648027092709  0.72900133713371
 6 -4.48553716981698 -0.66815353635364  0.78880232363236
 6 -3.03096278277828 -0.40998743344334  1.17651264706471
 6 -2.99261422682268  0.96239513181318  1.74291339713971
 6 -4.41058025112511  1.52798261616162  1.24662825982598
 6 -2.91127969646965  1.18792630493049  3.21144900750075
 6 -2.09740181088109 -0.62795275697570  0.06757470307031
 6 -0.58708192039204 -0.55860407700770  0.45959841254125
 6  0.38103176457646 -0.85500237313731 -0.66901845944594
 8  0.03893566116612 -1.20365273187319 -1.80134374587459
 8  1.67131732883288 -0.76189296239624 -0.32052449514952
 7 -7.13475807040704  2.71443871567157  0.58498800800080
 6 -6.03702527792779  3.38351276957696  0.99265012191219
 6 -6.42815600130013  4.82901934143414  1.00633712651265
 6 -7.66824592139214  4.83727256275628  0.55151167856786
 6 -8.23051399729973  3.54224271797180  0.26391654705471
 6 -5.57912842934293  5.83118863396340  1.53656492249225
 6 -8.41970925362536  6.10930494209421  0.49094759605961
 6 -9.20951885008501  6.58591831373137 -0.45634811361136
 7 -9.35276347694769  0.77508474147415 -0.35481795019502
 6 -10.05158902180218  2.02289478817882 -0.35019428862886
 6 -11.35605947244725  1.69042260326033 -0.88217205110511
 6 -11.52821677217722  0.42839017911791 -1.07956291099110
 6 -10.19388161386139 -0.14936488818882 -0.84000724322432
 6 -12.56350485138514  2.73189169076908 -1.01434452475248
 6 -12.60510825032503 -0.46599907940794 -1.64359531923192
 6 -12.50013014371437 -0.62224548894889 -3.20203837513751
 7 -7.45360431803180 -1.26372805800580 -0.26049457795780
 6 -8.59315090259026 -2.01698042484248 -0.67556091849185
 6 -8.14635707470747 -3.38724560676068 -0.65227779507951
 6 -6.82852776187619 -3.32935976427643 -0.29571719561956
 6 -6.36664776817682 -2.00732355095510 -0.01585650945094
 6 -8.89779253685368 -4.75152590209021 -0.84625361976198
 6 -5.59812675787579 -4.21769680478048  0.06091703730373
 8 -5.53781327152715 -5.40056958705871  0.05611834593459
 6 -4.49989761836184 -3.31343210481048  0.40255931803180
 6 -3.95461925982598 -3.62692678617862  1.81149767546755
 8 -4.14540961446145 -3.05854378827883  2.87331539963996
 8 -2.98643733133313 -4.60211518441844  1.66330675857586
 6 -2.31786649044904 -5.19490893699370  2.78074021362136
 6  2.61421358995900 -1.00264416201620 -1.32633665946595
 6  4.00271351815181 -0.74752525492549 -0.62540464056406
 6  4.97630988758876  0.05364641954195 -1.15920987758776
 6  4.84053324902490  0.95570630233023 -2.46692380918092
 6  6.25938768396840  0.13520125932593 -0.44520343454345
 6  7.55048628902890 -0.64670085298530 -1.10137700460046
 6  8.78249985108511 -0.45970995609561 -0.30734908240824
 6  10.17689861556156 -0.91891621822182 -0.84916227102710
 6  10.24504054265427 -2.38636243914391 -1.12168145304530
 6  11.37135098529853 -0.25960027472747 -0.04766532223222
 6  12.72196387058706 -0.61085640284028 -0.62678720182018
 6  13.95879446884689 -0.03637086328633  0.19993204870487
 6  15.36658557035704 -0.19223010451045 -0.50343390129013
 6  15.63528310011001 -1.72940180558056 -0.77176594489449
 6  16.35210595489549  0.52417693499350  0.49560858315832
 6  17.70231512031203  0.67243016071607 -0.12284618601860
 6  18.62149307360736  1.51518584748475  0.80857167336734
 6  20.21617351895189  1.57648545314531  0.35640736823682
 6  20.39656035493550  2.11357793389339 -1.00906898469847
 6  20.97467998929893  2.21300263906391  1.48270005820582
 1 -3.93084074437444  3.50309154115411  1.70579546044604
 1 -10.14703255635564  4.00228747084708 -0.15915723842384
 1 -10.77173142954295 -2.32671982748275 -1.03166263936394
 1 -2.65794812181218 -1.16527576277628  1.94450532623262
 1 -2.38594990949095  1.78437866106611  1.29090200240024
 1 -1.85563582158216  0.74832120052005  3.56996610061006
 1 -2.58605409730973  2.30921597129713  3.61195139033903
 1 -3.76694629152915  0.53360854535454  3.76007118331833
 1 -2.19519502790279 -1.69421415451545 -0.39402384958496
 1 -2.19170250965096  0.17742393339334 -0.69208590279028
 1 -0.14769058885889  0.31771562516252  0.93465382668267
 1 -0.24631497079708 -1.33881584018402  1.16674418281828
 1 -4.58794361086109  5.75174954305431  1.13949674947495
 1 -5.91602680908091  6.86322123682368  0.88178747334733
 1 -5.32784087088709  5.83167121112111  2.71115524952495
 1 -8.05587059645965  6.79735961046105  1.41191274517452
 1 -9.32706805870587  5.83360352085209 -1.27369895599560
 1 -9.88199294589459  7.68607733523352 -0.39972019491949
 1 -12.50085444744474  3.62779196639664 -0.27630544364436
 1 -12.56852070037004  3.42443640104010 -1.92844216101610
 1 -13.29020004280428  2.20807864356436 -0.79744409980998
 1 -12.53626599979998 -1.46345527222722 -1.02663741484148
 1 -13.50526755125513  0.12080623532353 -1.49384174297430
 1 -12.72919854975497  0.34522133523352 -3.61692903720372
 1 -11.47873284128413 -1.18393596719672 -3.49950890299030
 1 -13.37312406590659 -1.17021611641164 -3.60127767006701
 1 -9.61249779857986 -4.88842816261626  0.00697839583958
 1 -9.52552653155315 -4.67587553355335 -1.79312621082108
 1 -8.02319749444944 -5.61274954195420 -1.06514446994699
 1 -3.54692654405441 -3.53750004020402 -0.27509885848585
 1 -1.46132652565257 -5.72418751445144  2.24147748184819
 1 -1.92172061846185 -4.32535601950195  3.47758220082008
 1 -2.98387140354035 -5.59528462006201  3.30660753635364
 1  2.58167207470747 -1.98047569106911 -1.71387255425543
 1  2.46027092159216 -0.23200078087809 -2.14214198139814
 1  4.32712548424842 -1.45423773807381  0.10423832683268
 1  5.32217404660466  1.99874238323832 -2.47505222502250
 1  5.29881649884989  0.38811477397740 -3.37463886548655
 1  3.60249036723672  0.93486467326733 -2.37909873497350
 1  6.42828084428443  1.10559668466847 -0.28346853795380
 1  6.19151719641964 -0.34788467806781  0.47134484188419
 1  7.40849763466347 -1.74388111271127 -0.97300806040604
 1  7.63280282278228 -0.24884286368637 -2.13399822882288
 1  8.75294078147815  0.70871971327133 -0.03867371907191
 1  8.81548461126112 -0.48000215171517  0.81734454685468
 1  10.08676134473447 -0.20244768806881 -1.86587116211621
 1  9.32770308650865 -2.81002969616962 -1.62551109890989
 1  11.07843287438744 -2.72527412721272 -2.00942154705471
 1  10.31710673077308 -2.78358004360436 -0.09006727602760
 1  11.23819911731173  0.81865064516452 -0.08738015281528
 1  11.48261422492249 -0.79385462196220  0.93073300350035
 1  12.60592530313031 -1.87449902110211 -0.42506571957196
 1  12.94878303050305 -0.48298837783778 -1.74349588328833
 1  13.79690084498450  0.88662837363736  0.13538644954495
 1  14.09556378337834 -0.47179360716072  1.19543638953895
 1  15.35387773197320  0.50936214231423 -1.47462947624762
 1  14.81370692359236 -2.17471005280528 -1.65620495369537
 1  16.59405327882788 -1.88850288688869 -1.20474625852585
 1  15.49324460326033 -2.29284441704170  0.20376964836484
 1  15.77908818201820  1.68511508180818  0.77335779477948
 1  16.25181983878388  0.00411103440344  1.37539096169617
 1  18.23228445014501 -0.20261447194719 -0.32534240204020
 1  17.76529111471147  1.20975286358636 -1.00875930843084
 1  18.52003669316932  2.72900929682968  0.98839422912291
 1  18.46882913711371  1.18063387288729  1.88496564656466
 1  20.23010934333433  0.44239220022002  0.25226638283828
 1  19.66092344894490  3.04348261836184 -1.16471837423742
 1  21.51322856655666  2.34185225492549 -1.13788689528953
 1  20.00414538753875  1.33577919961996 -1.80274245574557
 1  21.14627986448645  1.55993746174617  2.40957199379938
 1  22.04919777697770  2.48871889928993  1.26517067416742
 1  20.48447807720772  3.22681588118812  1.80112885078508
 1 -7.30007184028403  1.69663853705371  0.55195704180418
 1 -7.71891343974397 -0.17516769276928 -0.09809993759376

