%nproc=3
%Mem=2GB
# td=(NStates=1) B3LYP/SVP 

TD

0 1
 6 -5.08740643874387 -2.05222146424642  0.51882675857586
 6 -4.71768208720872  2.60753720542054  1.38200458635864
 6 -9.14045395509551  3.45041584078408 -0.45936440434043
 6 -9.80392844734473 -1.38879968336834 -0.83726628002800
 7 -5.09633879617962  0.32496411931193  0.83535197219722
 6 -4.46020463656366 -0.90956767776778  0.92289573297330
 6 -3.05504519101910 -0.73671010571057  1.34230922672267
 6 -3.06483144854485  0.72340123242324  1.93182228802880
 6 -4.38295748884888  1.23059287718772  1.39813341034103
 6 -2.96602517101710  0.78266577887789  3.54909277187719
 6 -2.06525859655966 -0.80214017571757  0.06384433003300
 6 -0.66360957315732 -0.84425264186419  0.50465291799180
 6  0.32501616301630 -0.99183605650565 -0.59905146274628
 8  0.05407717531753 -1.32164453105311 -1.69057266876688
 8  1.62893309040904 -0.82074884798480 -0.17430987368737
 7 -6.94108870347035  2.78970624242424  0.38167767696770
 6 -5.82769434483448  3.30206462476248  0.98710956785679
 6 -6.01196438213821  4.78456489598960  0.94405089788979
 6 -7.30476957375738  5.03615245074507  0.32810933833383
 6 -7.91711265716572  3.72561105480548  0.06734689008901
 6 -5.07766828332833  5.78675419051905  1.53722498849885
 6 -7.90975825852585  6.34597860946095  0.22332083338334
 6 -8.77076497469747  6.72217193909391 -0.75897837663766
 7 -9.08899710031003  1.00222745574557 -0.45189765816582
 6 -9.86085994889489  2.15989848854885 -0.63728299749975
 6 -11.19087295379538  1.91277483848385 -1.08848268216822
 6 -11.34801875237524  0.61008834893489 -1.09576453115312
 6 -10.05335756145615 -0.03017296899690 -0.74432767526753
 6 -12.16309481038104  2.96601510311031 -1.20618370867087
 6 -12.55218295779578 -0.11641412091209 -1.56021698139814
 6 -12.57203733443344 -0.42695595999600 -3.21682985428543
 7 -7.47779673727373 -1.32058374357436 -0.14519304780478
 6 -8.54957654515452 -2.00767949474948 -0.47854121652165
 6 -8.18934137313731 -3.42787967016702 -0.50980354765477
 6 -6.91518642774277 -3.47926475477548 -0.15000262416242
 6 -6.38513961736174 -2.16144896349635  0.07261233743374
 6 -9.18583134073407 -4.51509225872587 -0.98183717811781
 6 -5.82682962816282 -4.34102913801380  0.06071701730173
 8 -5.72974246444644 -5.59181871197120  0.00071280538054
 6 -4.55033266186619 -3.50066082768277  0.43927298939894
 6 -3.98826262416242 -3.92571666516652  1.84065059075908
 8 -4.25389046254625 -3.31421935583558  2.83853192129213
 8 -3.10322901050105 -4.94095906880688  1.73102353025303
 6 -2.72818752255226 -5.59249869596960  2.96200834043404
 6  2.64292646124612 -1.00615451305131 -1.25915994179418
 6  3.96213946074607 -0.75117561996200 -0.69898199829983
 6  4.93820607720772  0.08985003990399 -1.10339429602960
 6  4.67990718641864  0.92284301600160 -2.40830794759476
 6  6.22935468066807  0.30452819201920 -0.39264817901790
 6  7.47313855425543 -0.37626380928093 -1.06319318621862
 6  8.87429903100310 -0.18588257335734 -0.18806715421542
 6  10.06585751145115 -0.61900622722272 -0.96965432023202
 6  9.77230326892689 -2.18491229412941 -1.29764904980498
 6  11.24422827302730 -0.36593090779078 -0.16207676337634
 6  12.60474214841484 -0.58715403260326 -0.78164268736874
 6  13.75533412281228 -0.28373559975998  0.24327638313831
 6  15.20384929672967 -0.17249813131313 -0.43541709960996
 6  15.69262883468347 -1.58321718711871 -0.91199996829683
 6  16.10749149344934  0.48659317661766  0.52144116641664
 6  17.55611049984999  0.81642456015602  0.01844794339434
 6  18.52753367766777  1.72229655855586  0.92281309750975
 6  19.92906480808081  1.83007081168117  0.26918864636464
 6  19.96582728162816  2.59178575467547 -1.08366644444444
 6  20.99403192449245  2.49074041284128  1.22451423962396
 1 -3.86445410571057  3.30351158315832  1.67401228212821
 1 -9.77681553465347  4.38989623172317 -0.48176949964996
 1 -10.75590984738474 -1.99387654315432 -0.99396886998700
 1 -2.74388671567157 -1.51067030223022  2.16853772947295
 1 -2.11340265476548  1.25710593379338  1.71526443864386
 1 -1.99211946994699  0.58668503690369  3.88365746974697
 1 -3.13935942784278  1.86151120082008  3.81410160536054
 1 -3.84474407130713  0.23750893539354  3.96606178237824
 1 -2.17641314971497 -1.71765649874988 -0.54745919311931
 1 -2.22550588998900 -0.04941875087509 -0.70286698089809
 1 -0.20671649144914  0.15331918551855  1.13091345264526
 1 -0.69595993529353 -1.86541850045004  1.10572808120812
 1 -4.09580439693969  5.70829519761976  0.85749854965497
 1 -5.45102030843084  6.68505342004200  1.61036033063306
 1 -4.71139922672267  5.39935797979798  2.57367150115012
 1 -7.65303031243124  7.24174404890489  0.88147970187019
 1 -9.30803615551555  5.88614877537754 -1.46659824592459
 1 -9.03591833843384  7.65810453795380 -0.93898412131213
 1 -12.22565692769277  3.38563775097510 -0.25980379347935
 1 -12.01479532783278  3.66218017541754 -1.96684600140014
 1 -13.32875389818982  2.87149498519852 -1.32184654005401
 1 -12.51762413561356 -1.06080500720072 -1.05416016711671
 1 -13.47848487298730  0.39431358605861 -1.23148550735073
 1 -12.62596822672267  0.46483329642964 -3.84661200550055
 1 -11.72252722072207 -1.15929350295030 -3.31585053715372
 1 -13.43953070657066 -0.94332342714271 -3.42523006530653
 1 -10.16199274807481 -4.60984030383038 -0.41410371237124
 1 -9.33662764166417 -4.46842478847885 -2.09959685788579
 1 -8.86465163986399 -5.50122838983898 -0.89468742424242
 1 -3.88956080748075 -3.62073836403640 -0.25366671527153
 1 -2.32560295329533 -6.64324942064206  2.52979631373137
 1 -1.95045349174917 -4.83360684458446  3.61809625222522
 1 -3.75517853425343 -5.81324641624163  3.59406628222822
 1  2.65029893739374 -2.01798944244424 -1.58404957195720
 1  2.18051294579458 -0.47726530733073 -2.09435720292029
 1  3.92858563026303 -1.24010632493249  0.23135103810381
 1  4.65702753195320  2.16385889488949 -2.20320504030403
 1  5.82167878507851  0.91383734623462 -3.09224062566257
 1  3.64586470467047  0.72395358215822 -2.89119994509451
 1  6.37977599379938  1.38878500350035 -0.29688988008801
 1  6.00461850655066 -0.19172906250625  0.57225493289329
 1  7.36833361826183 -1.44504122872287 -1.28600936053605
 1  7.68406794929493  0.13387540814081 -1.89933476247625
 1  8.85131061846185  0.94934377567757  0.07780792909291
 1  8.77598066086609 -0.82979713121312  0.77035984838484
 1  10.22310497909791 -0.24679212251225 -1.98725330033003
 1  8.83743405960596 -2.26334502770277 -1.85419396719672
 1  10.66965199629963 -2.53199479927993 -1.73504410931093
 1  9.81352637273728 -2.76735842144214 -0.35446371567157
 1  11.02405770317032  0.65089386948695  0.14491307650765
 1  11.11331729522952 -1.02860809730973  0.78850878107811
 1  12.63144785538554 -1.62326389758976 -1.07643085608561
 1  12.77448560076007 -0.03501358035804 -1.74825635933593
 1  13.44802595749575  0.58073778457846  0.69215212611261
 1  13.85842006900690 -1.06827325512551  1.16888373427343
 1  15.04413675787579  0.55315652175218 -1.36946896019602
 1  14.96858241114111 -2.11679426122612 -1.39256859005901
 1  16.64451832533253 -1.51774581118112 -1.17436322022202
 1  15.47238251705170 -2.30260539313931  0.12127139853985
 1  15.58333860706071  1.50234680498050  0.53575403440344
 1  16.08052270907091  0.08044866816682  1.49634305690569
 1  18.00557177887789 -0.13277748824883  0.11182131433143
 1  17.56554113971397  1.32906479477948 -0.95128356085609
 1  18.23808849834984  2.82978937483748  0.94969035873587
 1  18.61876413061306  1.36872268176818  2.01472862286229
 1  20.26657298969897  0.66531449244924  0.01759291549155
 1  19.57080443704371  3.58552682278228 -0.95813771617162
 1  20.85304254795480  2.46315438513851 -1.51610471707171
 1  19.37739271227123  1.99295491719172 -2.03839602110211
 1  20.79848508500850  2.22355382338234  2.30594163076308
 1  21.93268612581258  2.40279030643064  0.81436559365937
 1  20.57807743714372  3.50368356795680  1.31160989888989
 1 -7.10370220332033  1.64794366756676  0.45405725182518
 1 -7.41347289568957 -0.17205738173817  0.09254912731273

