%nproc=3
%Mem=2GB
# td=(NStates=1) B3LYP/SVP 

TD

0 1
 6 -5.15739343744375 -2.01957819991999  0.56323119901990
 6 -4.70461078007801  2.73808025972597  1.45915230113011
 6 -9.30990089978998  3.32350314951495 -0.29665813371337
 6 -9.93674172867287 -1.43010381378138 -0.93246579998000
 7 -5.27143630593059  0.37448907180718  0.76540497749775
 6 -4.46957557365737 -0.84049077007701  0.91270471387139
 6 -3.12832251875188 -0.67556399109911  1.38731372717272
 6 -3.10995596099610  0.83329222152215  1.87181628742874
 6 -4.40210940404040  1.30190000790079  1.43027662466247
 6 -3.08567713621362  0.92102961526153  3.35294315691569
 6 -2.09814188488849 -0.79404936663666  0.08401634723472
 6 -0.62968618081808 -0.75300351695170  0.50264271697170
 6  0.34520818221822 -1.09982685558556 -0.57542910051005
 8  0.00499226682668 -1.37585995259526 -1.75592920442044
 8  1.59011920902090 -0.72877965106511 -0.27399984268427
 7 -6.92030662526253  2.78393566536654  0.36407591679168
 6 -5.88258983438344  3.33869828812881  1.00192104900490
 6 -6.12873605930593  4.81855829532953  1.00934742754275
 6 -7.35242433923392  4.92225106060606  0.43774030143014
 6 -7.93744469036904  3.69532802650265  0.01968212361236
 6 -5.15911642814281  5.77326284138414  1.59278054405441
 6 -8.02445972867287  6.31897590919092  0.34345284658466
 6 -8.99328722692269  6.71013073497350 -0.47034951375138
 7 -9.19939814041404  0.83781101410141 -0.55448791719172
 6 -9.92761662456246  2.07400989968997 -0.51036030523052
 6 -11.32063593009301  2.00608416941694 -0.99850368426843
 6 -11.40250420092009  0.59917725782578 -1.09294424912491
 6 -10.11626385208521 -0.00246019771977 -0.83961720422042
 6 -12.34423292419242  2.98967746934694 -1.19326241654165
 6 -12.62297003650365 -0.16690917041704 -1.53451441114111
 6 -12.67696782748275 -0.36795005940594 -3.10638881018102
 7 -7.56170512811281 -1.30241192639264 -0.17299582808281
 6 -8.63621520902090 -2.01782050885089 -0.57822118451845
 6 -8.21094353335334 -3.45812269446945 -0.61414398169817
 6 -6.97878278737874 -3.45406223452345 -0.16819444334433
 6 -6.48755985938594 -2.09151196979698  0.08183325952595
 6 -9.22494525212521 -4.47733848334834 -0.95129412381238
 6 -5.86714365956596 -4.30114514961496  0.17275822142214
 8 -5.95563505370537 -5.52775230533053  0.18696143024302
 6 -4.68275590419042 -3.36078684028403  0.53254231633163
 6 -3.84711850975097 -3.90631472497250  1.70218674437444
 8 -3.94591966546655 -3.46376431033103  2.82830089818982
 8 -3.03515220282028 -4.80319529242924  1.33808423632363
 6 -2.29707441124112 -5.40604005010501  2.44360650025002
 6  2.60844301290129 -1.09098299589959 -1.27256128192819
 6  3.87988123492349 -0.80601110351035 -0.59454155425543
 6  4.98790104670467 -0.18536748184818 -1.24252820942094
 6  4.85895509120912  0.30931166286629 -2.65123224002400
 6  6.26722846804680  0.01139887908791 -0.49781869606961
 6  7.55406664706471 -0.45598178107811 -1.15731259815982
 6  8.70759236033603 -0.11283526862686 -0.28889723722372
 6  10.17194812051205 -0.74605893249325 -0.78112546734673
 6  10.14007004560456 -2.20607441034103 -0.73138242314231
 6  11.30528437863786 -0.17447176187619  0.05407485178518
 6  12.66541821602160 -0.59176449364936 -0.61088561166117
 6  13.89273786318632  0.15486826062606  0.14119617511751
 6  15.27938685048505 -0.01636251775178 -0.40568412631263
 6  15.64422399419942 -1.56125499089909 -0.35684445274527
 6  16.33458420272027  0.82351686898690  0.38453747604760
 6  17.75900078887889  0.77469038673867 -0.08962286368637
 6  18.73044396869687  1.68422275117512  0.70500131633163
 6  20.11328322992299  1.66078388298830  0.18683041054105
 6  20.21766246514651  2.38568514461446 -1.22290036783678
 6  20.88628114941494  2.36914825362536  1.29280106830683
 1 -4.02127978827883  3.33439467146715  1.95067994889489
 1 -9.95430328342834  4.29165640774077 -0.34934625732573
 1 -10.75054931133113 -1.97726488198820 -1.33924339743974
 1 -2.94534686168617 -1.59610884608461  1.95971684738474
 1 -2.36173748824882  1.35363558675868  1.39901281348135
 1 -1.92899315731573  0.65709207760776  3.86676578057806
 1 -3.42760825272527  2.02542759245925  3.60077027222722
 1 -3.80892048894890  0.40977616211621  4.01335651185118
 1 -2.25677118551855 -1.70273500660066 -0.46087053425343
 1 -2.32281562096210  0.02005819681968 -0.51454814901490
 1 -0.25692151195120  0.21402525612561  0.99600996229623
 1 -0.48600894019402 -1.58853081168117  1.27908541694169
 1 -4.27807262376238  5.78579294739474  0.84313711351135
 1 -5.44699990639064  6.68521343604360  1.70784007860786
 1 -4.72418050485049  5.37113515751575  2.52609674367437
 1 -7.49960496989699  7.01881175567557  1.15362691659166
 1 -9.29230458235824  6.01846200670067 -1.46251783788379
 1 -9.42424717131713  7.85572429992999 -0.23911413431343
 1 -12.50326468846885  3.86095528272827 -0.37302511561156
 1 -12.22526637493749  3.60942489988999 -2.08953827062706
 1 -13.26605762856286  2.38112594829483 -1.33906826222622
 1 -12.50400277347735 -1.23316224292429 -0.92891764286429
 1 -13.58391541604160  0.37414156885689 -1.36103846264627
 1 -12.79579520942094  0.58097491059106 -3.43999134343434
 1 -11.74183915191519 -0.72709028262826 -3.56135508760876
 1 -13.51031778527853 -1.03720281508151 -3.19860740304030
 1 -10.48752530133013 -4.24538385818582 -0.73249555155516
 1 -9.17173115201520 -4.75893383938394 -2.03392029022902
 1 -8.76965213991399 -5.50797906490649 -0.25422337783778
 1 -4.14903675507551 -3.72887917811781 -0.36390773937394
 1 -1.52085247824782 -6.04510960666067  1.93070640474047
 1 -1.66923536993699 -4.64923840774077  3.09843428602860
 1 -3.00990400680068 -5.89533462506251  3.25817269286929
 1  2.45809971747175 -2.12985062856286 -1.57685885288529
 1  2.45448034253425 -0.57445502630263 -2.28721648884889
 1  3.83776654835484 -1.29841215551555  0.29329723272327
 1  5.10892272147215  1.52349485848585 -2.59169388918892
 1  5.53048966616662 -0.41327536503650 -3.23891529312931
 1  3.96028614681468  0.29835102190219 -3.19411023612361
 1  6.49474749094909  1.04683080808081 -0.38378856995700
 1  6.38289633433343 -0.41721161076108  0.51488919631963
 1  7.37731451635164 -1.49745647024702 -1.54116487608761
 1  7.63665320782078 -0.08518649804980 -2.04984981398140
 1  8.75117060446044  0.95619446074607 -0.15759561126113
 1  8.46764982778278 -0.48334248574858  0.85937875027503
 1  10.26997966656666 -0.39892733603360 -1.77488206320632
 1  9.25130544674467 -2.72827152035204 -1.30762931073107
 1  10.94708974007401 -2.67017861766177 -1.29445004990499
 1  10.17790281038104 -2.56078776437644  0.23615534623462
 1  11.14331962936294  0.97738651875188  0.10573915911591
 1  11.47751371487149 -0.50221545804581  1.13965389558956
 1  13.02437714831483 -1.67852942414241 -0.45805901890189
 1  12.68705685788579 -0.51748182718272 -1.82508404210421
 1  13.75817697259726  1.31201091189119  0.22561547244724
 1  13.95055928292829 -0.21713814161416  1.25347219311931
 1  15.37242958715871  0.21016222232223 -1.52434444774477
 1  14.85008056095610 -2.38565114691469 -0.86396572977298
 1  16.59962383588359 -1.60768480508051 -0.86471225512551
 1  15.67172245104510 -2.03090822342234  0.58547781918192
 1  15.96552682588259  1.82183875417542  0.35231569056906
 1  16.04516917371737  0.59299992329233  1.52040546314631
 1  18.15638686038604 -0.27846205670567  0.00738087028703
 1  18.04236882248225  1.09736162446245 -1.11337977047705
 1  18.42289697919792  2.72404880078008  0.82182757245725
 1  18.87504975917592  1.37320312981298  1.66002315231523
 1  20.62083841624163  0.70320828182818 -0.02353119691969
 1  19.96747410401040  3.54532280238024 -1.21131303370337
 1  21.16869411311131  2.30133820352035 -1.52538564516452
 1  19.54127910091009  2.04098972067207 -1.97266944844484
 1  20.98480371687169  1.81480294829483  2.21178221482148
 1  22.02762561976198  2.40155018241824  0.95421957905791
 1  20.25831546094610  3.25649884948495  1.59285802370237
 1 -6.91873370647065  1.90543941714171  0.26271811791179
 1 -7.81714326272627 -0.09150932693269 -0.08484861246125

