%nproc=3
%Mem=2GB
# td=(NStates=1) B3LYP/SVP 

TD

0 1
 6 -5.08194589268927 -1.90586682878288  0.55927080298030
 6 -4.88068838783878  2.82982943464346  1.33699008490849
 6 -9.48221813151315  3.22873367256726 -0.36324479237924
 6 -9.87921597609761 -1.48469927332733 -0.85512806620662
 7 -5.16052521482148  0.50059168206821  0.82065050205020
 6 -4.46920553665367 -0.66005272627263  0.82286572997300
 6 -3.02178186468647 -0.49686612131213  1.32176717251725
 6 -3.09837480288029  0.92689158145815  1.90377948374837
 6 -4.44738393149315  1.40343016091609  1.34274787178718
 6 -3.06507507600760  0.99471698399840  3.44078194079408
 6 -1.99640171087109 -0.76335629732973  0.14130207580758
 6 -0.55922913511351 -0.63316153275328  0.64089654235424
 6  0.40258391979198 -0.90692756565657 -0.48590014761476
 8  0.04304607220722 -1.44307667426743 -1.55691930343034
 8  1.60239043614361 -0.62915968906891 -0.07844028672867
 7 -7.19426402100210  2.69786705850585  0.50378988818882
 6 -6.09351092649265  3.33460787908791  0.96683754065407
 6 -6.33465665136514  4.82736917641764  0.89803629642964
 6 -7.57628672547255  4.95638447394740  0.36654318171817
 6 -8.10844179007901  3.63225171887189  0.03782393779378
 6 -5.33168368486849  5.82542805790579  1.27820908690869
 6 -8.16500378307831  6.26690070167017  0.15193369466947
 6 -9.23816171437144  6.45021474337434 -0.70847332613261
 7 -9.19706790739074  0.85271250425042 -0.54882735113511
 6 -9.96948081098110  1.96361886058606 -0.52528179737974
 6 -11.35768963546355  1.80263382438244 -0.94678851275128
 6 -11.42414636513651  0.41069840994099 -1.11198615331533
 6 -10.15602782848285 -0.05498545024502 -0.89178242074207
 6 -12.29822832373237  2.96110461206121 -1.27948103840384
 6 -12.69178691819182 -0.24632711221122 -1.51902286198620
 6 -12.72277240794079 -0.69253251765177 -2.93607177847785
 7 -7.42348130573057 -1.35632731793179 -0.29966849534953
 6 -8.59419100660066 -2.01637036383638 -0.56386974937494
 6 -8.08509094809481 -3.40354723692369 -0.61045361266127
 6 -6.77183209230923 -3.35559238753875 -0.14495211911191
 6 -6.43055415881588 -2.11069388798880  0.16559163536354
 6 -8.99035179277928 -4.55418616811681 -0.87032602700270
 6 -5.67578452365237 -4.31952698779878  0.07178812441244
 8 -5.67708719891989 -5.52133166326633  0.14205693979398
 6 -4.41678930753075 -3.29804056565657  0.42525158725873
 6 -3.83128692659266 -3.77174126762676  1.78916544224422
 8 -4.17213228672867 -3.41055898979898  2.92304037213721
 8 -2.90963965156516 -4.69671464436444  1.41251167906791
 6 -2.28417312111211 -5.36291573767377  2.53562570217022
 6  2.71872404100410 -0.83472737033703 -1.04477850365036
 6  3.96635988278828 -0.65548605100510 -0.34115621572157
 6  4.94252650925092  0.19836089098910 -0.81486544314431
 6  4.75831502720272  1.07731846354635 -2.06419353615362
 6  6.37350909610961  0.29101684088409 -0.15129404360436
 6  7.46445768616862 -0.37812399529953 -0.99252611951195
 6  8.83705530663066 -0.34434841994199 -0.24743309080908
 6  10.10767169286929 -0.65934026062606 -0.99907726252625
 6  10.15591162976298 -2.20481428432843 -1.66797608250825
 6  11.40741459165917 -0.42688700340034 -0.21523207890789
 6  12.69215088928893 -0.47003232043204 -1.01579610271027
 6  13.75036362576258 -0.28741596779678  0.07370942644264
 6  15.24324323612361 -0.12692357385739 -0.52882644054405
 6  15.57942751455145 -1.53404226962696 -1.22741150945095
 6  16.32473321762176  0.37934245154515  0.46481550385039
 6  17.69852474127413  0.79380229792979 -0.16667056845685
 6  18.65286621092109  1.42651698059806  0.90842165836584
 6  20.08765066666666  1.49426723132313  0.50639236673667
 6  20.29163986288629  2.31889846594659 -0.98805688348835
 6  20.96458898019802  1.99174051285128  1.56964875307531
 1 -4.12519017931793  3.50807203920392  1.98078295919592
 1 -10.30990884398440  3.94623186528653 -0.29227054975498
 1 -10.51714597099710 -2.16764391989199 -1.20746021912191
 1 -2.78810113711371 -1.14798403360336  2.10365124082408
 1 -2.37277859235924  1.79330955415542  1.34526743894389
 1 -2.02457271527153  0.77123349174917  3.96910601460146
 1 -3.07630312221222  2.22666771647165  3.84656485168517
 1 -3.89131872877288  0.38298348284829  3.71939711591159
 1 -2.10847635603560 -1.52482721582158 -0.19342378957896
 1 -2.45611895129513 -0.05839964896490 -0.50492718691869
 1 -0.45931175097510  0.44374822842284  0.93472383368337
 1 -0.40489082838284 -1.12005396399640  1.56457396579658
 1 -4.53646846334634  5.52200656875688  0.50720352015201
 1 -5.79746495289529  6.81044595929593  1.07577687228723
 1 -4.71459954675468  5.53071111511151  2.29154328832883
 1 -7.57238224762476  7.22198207270727  0.78115966986699
 1 -9.67722307420742  5.56986714721472 -1.40254184028403
 1 -9.56843158975897  7.50382911041104 -1.01036125902590
 1 -12.38606296829683  3.55390457765777 -0.53832164526453
 1 -12.13275712401240  3.50351430883088 -2.17871718851885
 1 -13.29029005180518  2.57503533923392 -1.62226658205821
 1 -12.72338471167117 -1.08538746544654 -0.78629338043804
 1 -13.63667069156916  0.33242739743974 -1.00355271407141
 1 -12.35222085198520  0.20670748384838 -3.73239058335834
 1 -12.02935790379038 -1.48654622822282 -3.23644259635964
 1 -13.62209896339634 -1.11825091989199 -3.31859940224022
 1 -10.16844339313931 -4.36078539833983 -0.64536683868387
 1 -8.96540051895190 -4.83370131613161 -2.03551044924492
 1 -8.43350852555255 -5.55913418041804 -0.39308726422642
 1 -3.65506735813581 -3.55238152835284 -0.21811315991599
 1 -1.83741413441344 -6.13797889358936  1.95338867296730
 1 -1.64241268766877 -4.73681716561656  3.18963340594059
 1 -2.98235125152515 -5.78524361596160  3.24871174677468
 1  2.64583849134913 -1.80445808930893 -1.57284845184518
 1  2.67692258675868 -0.00144772557256 -1.95047281448145
 1  4.21759453115311 -1.38056037033703  0.42064996799680
 1  4.64719654885489  2.28963147214722 -1.84550927072707
 1  5.94576119331933  1.12800876337634 -2.63811521312131
 1  3.92335245344534  0.62892407920792 -2.72266309140914
 1  6.71850986718672  1.37744386938694 -0.13645383648365
 1  6.50596864156416 -0.15776566616662  0.97754546194619
 1  7.40271705660566 -1.42419914451445 -1.28229898949895
 1  7.51723126562656  0.11243326392639 -1.96941177017702
 1  8.94473996139614  0.54797363866387 -0.07849770147015
 1  8.77744080688069 -0.81389554105410  0.75436824922492
 1  10.18313098169817  0.13784634133413 -1.92303687868787
 1  9.33764408060806 -2.31804049724973 -2.70398894669467
 1  11.02616764786479 -2.49564116391639 -1.96297690259026
 1  9.90023504360436 -2.86518820442044 -0.77046531583158
 1  11.30028532593260  0.62172095219522  0.31769035423542
 1  11.34728069156916 -1.28699393589359  0.62145207540754
 1  12.92360707130713 -1.46664823602360 -1.50080329332933
 1  12.57830598279828  0.44192411341134 -1.82569410311031
 1  13.41585274017402  0.70062977377738  0.75733864476448
 1  13.78391261826183 -1.25187161496150  0.80650749664967
 1  15.16413875807581  0.72456366246625 -1.21533354665467
 1  14.96564211711171 -2.01083366516652 -2.11343067626763
 1  16.62409628312831 -1.80343438003800 -1.55356114001400
 1  15.57021230003000 -2.35638077067707 -0.34149487808781
 1  15.96085635883589  1.47019358965897  1.15995645464546
 1  16.59038369516952 -0.30190956765677  1.45162858545855
 1  18.33332455415541 -0.10042425292529 -0.77187705550555
 1  17.55387997359736  1.54813670197020 -1.14934336683668
 1  18.40283497299730  2.44531092699270  1.13888927862786
 1  18.36748900310031  0.72032784228423  1.92696984698470
 1  20.16568290069007  0.34832279327933 -0.09289813361336
 1  19.92567992459246  3.39875814591459 -0.78684058645865
 1  21.39455669936994  2.41679974967497 -1.28458156475648
 1  19.77388236123612  1.99946556825683 -1.83505568706871
 1  20.90988622512251  1.37448891689169  2.46925796239624
 1  21.94160701790179  2.01989201660166  1.09671382848285
 1  20.61399102850285  2.90384358395840  2.05289402730273
 1 -7.31742357545754  1.69643851705171  0.56852869896990
 1 -7.35499704810481 -0.22285246124612  0.14520439283928

