%nproc=3
%Mem=2GB
# td=(NStates=1) B3LYP/SVP 

TD

0 1
 6 -5.15973367146715 -1.92862910501050  0.38418329422942
 6 -4.64431475047505  2.77282373407341  1.29127551345135
 6 -9.43542345204520  3.38454925412541 -0.14536300420042
 6 -9.84262231673167 -1.43105390879088 -0.85405795919592
 7 -5.21427058935894  0.48061968486849  0.77939637663766
 6 -4.56052466856686 -0.72317903890389  0.79211265466547
 6 -3.15113479998000 -0.55365179987999  1.27071206700670
 6 -3.08442340774077  0.86748564086409  1.78673777957796
 6 -4.43811300440044  1.43023284118412  1.30322391939194
 6 -2.88248681718172  1.05097260956096  3.29564742734273
 6 -2.15138720942094 -0.78968893059306  0.12347029262926
 6 -0.59568278047805 -0.80615883248325  0.62851530423042
 6  0.32355601700170 -1.14341121402140 -0.53180473807381
 8  0.00993276087609 -1.50406277287729 -1.62574618611861
 8  1.64419461656166 -0.82800957405741 -0.16148859155916
 7 -7.11145574017402  2.77466473827383  0.53141265046505
 6 -5.94206578197820  3.36294071237124  0.92778363526353
 6 -6.13524671037104  4.80082652215222  1.01848834163416
 6 -7.51183027982798  5.04804363986399  0.49828635603560
 6 -8.10611155705571  3.75373386708671  0.24186434183418
 6 -5.19874039053905  5.88883439853985  1.38992025802580
 6 -8.19237652035203  6.36690070167017  0.26982548384838
 6 -9.10535843404340  6.65299502140214 -0.65487796659666
 7 -9.24112231283128  0.89552678567857 -0.41282375077508
 6 -9.92739660256026  2.09450194889489 -0.47498676787679
 6 -11.33831769826983  1.81093465446545 -0.82984681858186
 6 -11.47698164866487  0.49752709280928 -0.95720067476748
 6 -10.19056128182818 -0.13176312801280 -0.77370061256126
 6 -12.26970547144714  2.93278177977798 -1.10820391069107
 6 -12.70940868036804 -0.25632811231123 -1.58914987468747
 6 -12.58509864056406 -0.48195145954595 -3.05970414171417
 7 -7.47549650725072 -1.24309599479948 -0.20883941244124
 6 -8.59224081158116 -1.99029775657566 -0.62707607000700
 6 -8.28986142514252 -3.36395327752775 -0.60356292359236
 6 -6.91992690179018 -3.39961678997900 -0.26360398429843
 6 -6.43680478387839 -2.10209302790279 -0.06000092389239
 6 -9.09765252285228 -4.56051680118012 -1.02131112551255
 6 -5.77269421462146 -4.26809184428443  0.00801174677468
 8 -5.66570606080608 -5.51991152125213 -0.11448871477148
 6 -4.48231586018602 -3.31730249184918  0.34232329442944
 6 -3.92507630553055 -3.79525361886189  1.63752027772777
 8 -3.99407448094809 -3.41567950185018  2.80523859195920
 8 -3.00869955755576 -4.76738171107111  1.38243867176718
 6 -2.30062476627663 -5.40013946004601  2.38961110071007
 6  2.56591876047605 -1.22304620222022 -1.05619964576458
 6  4.02359560636064 -0.80920142254225 -0.51378347844784
 6  5.00216247284729 -0.07366631173117 -1.06705066166617
 6  4.98826802250225  0.48591932363236 -2.44723183998400
 6  6.21942368756876  0.24299203840384 -0.24897381158116
 6  7.53330457085709 -0.43085926882688 -0.94934180108011
 6  8.77633923502350 -0.30223420852085 -0.09063741124112
 6  10.06341726742674 -0.72282660926093 -0.76977433223322
 6  10.01302734133413 -2.22884668756876 -0.98208749364936
 6  11.36053990419042 -0.41170548524852 -0.03312386808681
 6  12.73699537373737 -0.59962527972797 -0.55971049414942
 6  13.87461605100510  0.06145891969197  0.31367342284228
 6  15.29637854965496 -0.19422030353035 -0.26637019491949
 6  15.63347291909191 -1.62030089548955 -0.43727249554955
 6  16.34093483778378  0.56202071937194  0.63091211351135
 6  17.75364025282529  0.59532244994499 -0.06850075147515
 6  18.69774069836984  1.66642097099710  0.66332714891489
 6  20.17609951155115  1.78887669226923  0.00799252675268
 6  20.12011271017102  2.45222179827983 -1.37106518431843
 6  20.95793831513151  2.50938227702770  0.99132092029203
 1 -3.79099675997600  3.49678091009101  1.51167604850485
 1 -9.85592344544454  4.11746898899890 -0.43946526922692
 1 -10.70850510691069 -2.14599175467547 -0.99002847594760
 1 -3.04859718671867 -1.15003423862386  2.25904678037804
 1 -2.16070738523852  1.23186340954095  1.23790670287029
 1 -2.01052131013101  0.68136450485049  3.73653275727573
 1 -3.05026051795179  2.02146719641964  3.56542673787379
 1 -3.76753635053505  0.48143332783278  3.65944112031203
 1 -2.34104961336134 -1.74291902500250 -0.34694914211421
 1 -2.22641598099810  0.00923711471147 -0.62366906110611
 1 -0.46088190799080  0.06857071067107  1.23001336263626
 1 -0.77269760906091 -1.75226718531853  1.40302781118112
 1 -4.41674649114912  5.99750411851185  0.74535733553355
 1 -5.89856506290629  6.87546246094610  1.51598089268927
 1 -4.96891497829783  5.51444948894889  2.38303243724372
 1 -7.77290229962996  7.06511638613861  0.94803635753575
 1 -9.52284763666367  5.82800296079608 -1.31713329942994
 1 -9.59416416301630  7.66445517301730 -0.79202942584258
 1 -12.22837719971997  3.76967615481548 -0.20078789188919
 1 -12.05664951325133  3.36681063846385 -2.05104442124212
 1 -13.36276729952995  2.70830866656666 -1.05135949134913
 1 -12.87468984218422 -1.21060998769877 -1.18222297339734
 1 -13.70909793429343  0.22679683438344 -1.19794215301530
 1 -12.75761139103910  0.37181399449945 -3.66947429172917
 1 -11.76888185618562 -1.13008058165817 -3.40607956005601
 1 -13.44599135263526 -1.17792688748875 -3.37314485678568
 1 -10.10597714651465 -4.64025334513451 -0.51285358735874
 1 -9.37055103400340 -4.59674762076208 -2.05848274647465
 1 -8.42614778947895 -5.41782004900490 -0.82151010651065
 1 -3.87853970537054 -3.46452274247425 -0.44708605720572
 1 -1.85511590459046 -6.40065516121612  1.66890022412241
 1 -1.46319476587659 -4.86578006190619  2.94370881348135
 1 -3.17499051545154 -5.69313440504050  3.15815269086909
 1  2.54922883038304 -2.41389903340334 -1.21030219721972
 1  2.42517741224122 -0.72954053485349 -1.97334510171017
 1  4.11456422812281 -1.19287160146015  0.53029093209321
 1  5.27386921612161  1.64826733573357 -2.51871659145915
 1  5.64638125532553  0.18134409690969 -3.32789419101910
 1  3.96544666286629  0.56695788258826 -2.76615744084408
 1  6.22330034623462  1.15953207820782 -0.28508869997000
 1  6.11014905960596 -0.06401629122912  0.66143385078508
 1  7.35640242514251 -1.38481520612061 -1.26977773737374
 1  7.60458000050005  0.41279329992999 -1.77217204620462
 1  8.74065955335534  0.85434427572757  0.26630677897790
 1  8.72850591339134 -0.83482763426343  0.95973878627863
 1  10.01557422602260 -0.36555399869987 -1.89318389338934
 1  9.00949126532653 -2.62470116331633 -1.31521006880688
 1  11.02649768086809 -2.55043664346435 -1.45583618851885
 1  10.12498751885189 -2.79884156975698 -0.03880214951495
 1  11.36228152555256  0.74103288338834  0.17282586778678
 1  11.30015597909791 -0.78745398189819  0.94118404860486
 1  12.75374008460846 -1.75166673787379 -0.64454766776678
 1  12.95298345054506  0.03508342934293 -1.39699123282328
 1  13.70163131803180  1.15844555535554  0.50570348124813
 1  13.84522874987499 -0.34644107190719  1.26578342424242
 1  15.19823216741674  0.25625683178318 -1.24542655595560
 1  15.07280283318332 -2.04527710951095 -1.25790512371237
 1  16.65666954045405 -1.79497353395339 -0.80288607250725
 1  15.49762504130413 -1.98035316791679  0.72730200160016
 1  16.05840611381138  1.60237680798080  0.77285774477448
 1  16.53289794659466  0.20312093539354  1.57466088868887
 1  18.19208042974297 -0.39651386188619 -0.18572844064406
 1  17.63751833743374  0.59067095539554 -1.30130856335634
 1  18.22194688418842  2.55703209910991  0.92675806550655
 1  18.91769402360236  1.33679948944894  1.77866501650165
 1  20.62309864226422  0.71467942894289 -0.16713555735574
 1  19.81255861246125  3.49052732283228 -1.06999890229023
 1  21.04434167786779  2.40382845254525 -1.87069017561756
 1  19.51210618361836  1.96641226292629 -2.14977715921592
 1  21.07181241774177  1.83185465346535  1.84462549914992
 1  21.97883074027403  2.44775480288029  0.64242839993999
 1  20.56951658105811  3.46033923352335  1.14513325122512
 1 -7.11390322342234  1.90761963516352  0.50686253235324
 1 -7.53526507490749 -0.21849202520252 -0.06009613721372

