%nproc=3
%Mem=2GB
# td=(NStates=1) B3LYP/SVP 

TD

0 1
 6 -5.14332203030303 -1.85812205430543  0.42018689458946
 6 -4.85905622462246  2.84409086078608  1.29505589148915
 6 -9.38991890159016  3.27232803200320 -0.33200166806681
 6 -9.80187824232423 -1.50160096349635 -0.98653120652065
 7 -5.28935809810981  0.49629125202520  0.82883132013201
 6 -4.53842245834583 -0.68560528152815  0.78006144954495
 6 -3.01735142164216 -0.60673710841084  1.26310130593059
 6 -3.11298626402640  0.87113600590059  1.81972107790779
 6 -4.40284947804780  1.47740755865587  1.23731732873287
 6 -3.01216978547855  1.07074458675868  3.31460932353235
 6 -2.06399847054705 -0.73636359805981  0.09460740634063
 6 -0.61770498269827 -0.54708292489249  0.55836828952895
 6  0.37607126852685 -0.94680155305531 -0.54724628222822
 8  0.04874664226423 -1.25121748834883 -1.66819043054305
 8  1.59336953405341 -1.06639341244124 -0.05491793449345
 7 -7.24354894949495  2.77671494329433  0.50603011221122
 6 -6.04361593699370  3.37036145444544  1.07413827072707
 6 -6.43815700140014  4.86313275277528  1.22727922072207
 6 -7.71233032983298  4.98050688618862  0.55233176057606
 6 -8.16065701160116  3.59879837353735  0.27380753615362
 6 -5.54263477997800  5.83416893199320  1.67776904290429
 6 -8.41620890359036  6.26397040864086  0.32595109640964
 6 -9.18668656685668  6.55973569546955 -0.63831631043104
 7 -9.22785098569857  0.87557479047905 -0.46136860526053
 6 -10.01093495639564  2.03568606730673 -0.52008127732773
 6 -11.28065193169317  1.83600716171617 -1.02806664056406
 6 -11.37892184268427  0.46236357645765 -1.19749470417042
 6 -10.03703592929293 -0.09564951665167 -0.85821906440644
 6 -12.30385888678868  2.96199470107011 -1.17855094539454
 6 -12.56640437993799 -0.29437191669167 -1.66884784448445
 6 -12.46033616431643 -0.70751401580158 -3.18191636293629
 7 -7.45870482808281 -1.26374806000600 -0.33407193569357
 6 -8.59169075657566 -2.03671239803980 -0.64984834723472
 6 -8.19222166116612 -3.44839172137214 -0.61683425072507
 6 -6.88005291439144 -3.43030985928593 -0.25334295819582
 6 -6.47309841324132 -2.07266008460846 -0.01740666446645
 6 -9.09620237783778 -4.64716546604661 -0.94620361476148
 6 -5.73721066626663 -4.20013504860486 -0.03320237463746
 8 -5.73761325152515 -5.44175370547055  0.08533126722672
 6 -4.44339196779678 -3.26065682728273  0.42521158325833
 6 -3.77282108000800 -3.75085917941794  1.64106063176318
 8 -4.16515158865887 -3.30819875377538  2.70281834993499
 8 -2.79589827742774 -4.62791776467647  1.31744217211721
 6 -2.11431613541354 -5.31402084818482  2.43665580518052
 6  2.77623979257926 -1.44342824042404 -1.07891191699170
 6  4.03299654645465 -0.86377688008801 -0.49943204330433
 6  4.91080333693369  0.07521857675768 -0.94539849644964
 6  4.98388758445845  0.65715644734473 -2.32371948874887
 6  6.18921066626663  0.21290903010301 -0.10540945514551
 6  7.59914115451545 -0.19584576747675 -0.85689255615562
 6  8.80380198129813 -0.06100008510851  0.09326097859786
 6  10.12062298799880 -0.60725505210521 -0.64001135593559
 6  9.99794583318332 -2.11723552645265 -0.96021530643064
 6  11.25088893909391 -0.17587190189019  0.27402684698470
 6  12.60516219041904 -0.45397071427143 -0.39216373947395
 6  13.77869645904591  0.11185395919592  0.35640769626963
 6  15.21264017581758 -0.23358423992399 -0.44731828972897
 6  15.62517208900890 -1.73446231163116 -0.54962373067307
 6  16.32696344064406  0.58897341464146  0.31444046634663
 6  17.77465235403540  0.59517243494349 -0.25050895229523
 6  18.83985490979098  1.39333366226623  0.57391820802080
 6  20.16395829742974  1.46073387798780 -0.08903717621762
 6  20.16696739563956  2.31400797689769 -1.50190826862686
 6  21.12355487678768  2.05506684548455  0.87496928512851
 1 -4.30849851015101  3.56243747574758  1.73875875677568
 1 -10.00658851195120  4.20053729582958 -0.37434875757576
 1 -10.66445070147015 -2.28775593109311 -0.90929040214021
 1 -2.78091041804180 -1.38787802300230  2.03597447314731
 1 -2.18655997049705  1.42956317951795  1.21588450065007
 1 -2.21653191119112  0.39238560696070  3.47099620362036
 1 -2.93353884578458  2.11967701740174  3.63791398659866
 1 -3.86781637853785  0.70120530503050  3.82196737293729
 1 -2.32780828922892 -1.78962369546955 -0.36388083528353
 1 -2.21282462186219 -0.22027583658366 -0.70323701790179
 1 -0.33269908970897  0.40966482008201  0.73855421672167
 1 -0.21618195749575 -1.25336729532953  1.54231173957396
 1 -4.67735255175518  6.33480784888489  0.64443724352435
 1 -6.15437064346435  6.68893380808081  2.48766806140614
 1 -4.58222630943094  5.40022806680668  2.45889002300230
 1 -8.20557556695670  6.97828770327033  1.04982653655366
 1 -9.32788814071407  5.73077323782378 -1.47314890099010
 1 -9.39089383598360  7.62074080158016 -0.73383360626063
 1 -12.20469483148315  3.35010419761976 -0.16415422852285
 1 -12.00416426472647  3.58552250965096 -1.96916623342334
 1 -13.30617163996400  2.61226906260626 -1.28774312971297
 1 -12.46185855905591 -1.24764369106911 -1.07348209930993
 1 -13.47223424792479  0.06094024872487 -1.42772513131313
 1 -12.64624025392539  0.20284709780978 -3.73664100840084
 1 -11.25736070407041 -0.92911048464847 -3.46728568066807
 1 -12.90387714121412 -1.51147024182418 -3.55414295659566
 1 -9.79557610641064 -4.81381070087009 -0.01892419441944
 1 -9.83294727362736 -4.40815876187619 -1.86204310251025
 1 -8.32578775347535 -5.50601886888689 -1.02374032953295
 1 -3.71886373777378 -3.31895818601860 -0.60940228882888
 1 -1.44608500150015 -6.08168326402640  1.91539487358736
 1 -1.42572101850185 -4.50622410631063  2.93074751735173
 1 -2.88438145454545 -5.78176326792679  3.17619449504951
 1  2.76657056455646 -2.57045468896890 -1.08041920892089
 1  2.56014090859086 -1.04142172297230 -2.09453722092209
 1  4.41382415411541 -1.26060837513751  0.50747865086509
 1  5.24606643584358  1.69214172317232 -2.04950967076708
 1  5.74582119931993  0.03849981248125 -3.08393979557956
 1  3.95395551375137  0.64524571137114 -2.80393121822182
 1  6.28338635483548  1.25341146614662  0.14746455535553
 1  6.09161720642064 -0.50107999759976  0.84159186658666
 1  7.65386217111711 -1.38772549714972 -1.30224098369837
 1  7.64558410091009  0.49966198679868 -1.65199002800280
 1  8.95752123952395  1.02557139843984  0.39602975127513
 1  8.70741380418042 -0.76320047154715  1.01240405280528
 1  10.13452612121212 -0.06558400170017 -1.69593416841684
 1  9.29013933013301 -2.33048174137414 -1.83647219501950
 1  11.07549258035804 -2.63771537133713 -1.18091869676968
 1  9.59027404750475 -2.57751943754375  0.10511224192419
 1  11.21207650505051  0.93646242634263  0.25360394559456
 1  11.14353031653165 -0.72548778527853  1.34684461466147
 1  13.10634534513451 -1.48805037623762 -0.67034024702470
 1  12.40591874407441  0.22098201920192 -1.42397393109311
 1  13.73183433833383  1.25635534633463  0.39538244914491
 1  14.02136636363636 -0.21219764756476  1.41899874577458
 1  15.10440278447845  0.14111531763176 -1.47200921422142
 1  14.99408496139614 -2.43663624542454 -1.01798113131313
 1  16.77873174667467 -1.92651668826883 -0.63742952685269
 1  15.46076135493549 -1.85619075167517  0.68743801520152
 1  16.09725999919992  1.68754532483248  0.30912137113711
 1  16.29039369616962  0.26198682198220  1.24190761336134
 1  18.06667788948895 -0.47660187068707 -0.37453732153215
 1  17.73096768236824  0.95964785308531 -1.29821825432543
 1  18.39445413491349  2.33656005190519  0.63717910761076
 1  19.09219147334734  0.97545335483548  1.73888103810381
 1  20.47451378377838  0.35246320732073 -0.47248609240924
 1  19.99823718031803  3.37050532063206 -1.08215011741174
 1  21.16951419511951  2.23787185688569 -1.83759686628663
 1  19.60318529152915  1.80588621032103 -2.21574375587559
 1  21.36729196569657  1.69361082908291  1.87448848544854
 1  22.10491334853485  1.98387841524152  0.44807896499650
 1  21.06921655105511  3.07495069466947  1.17096583448345
 1 -7.51217305040504  1.75429430263026  0.52985483158316
 1 -7.50473202160216 -0.02589276527653 -0.15437556515652

