%nproc=3
%Mem=2GB
# td=(NStates=1) B3LYP/SVP 

TD

0 1
 6 -5.17190488858886 -1.92359860196020  0.59061393729373
 6 -4.71298161716172  2.79496594829483  1.54333071897190
 6 -9.31935184488449  3.26443724292429 -0.17054552245225
 6 -9.80743879837984 -1.45360616401640 -1.01801435483548
 7 -5.13572273457346  0.48332995589559  0.77849628662866
 6 -4.51036965306531 -0.74474119511951  0.92316575997600
 6 -3.02728241474147 -0.52030846554655  1.28826382218222
 6 -3.00569553495350  0.85617450975098  1.79641874767477
 6 -4.38494768786879  1.40605042294229  1.29551314831483
 6 -2.86785535403540  0.86473398569857  3.33020088268827
 6 -2.02602467316732 -0.81566152785279  0.13905185078508
 6 -0.60174338653865 -0.85518373497350  0.58054050675067
 6  0.32589625102510 -1.20199707260726 -0.45602716031603
 8  0.01572333993399 -1.79546191279128 -1.52789640114011
 8  1.63403360046005 -0.66125289838984 -0.25794823752375
 7 -6.99057365196520  2.78029530133013  0.48148765796580
 6 -5.93403497889789  3.40750516881688  1.05674653155316
 6 -6.25099828552855  4.80269670917092  1.11789828262826
 6 -7.56241533833383  4.96995583108311  0.54199072647265
 6 -8.02168311421142  3.64462295599560  0.28242839823982
 6 -5.35372588908891  5.88600411551155  1.64380564656466
 6 -8.24697197989799  6.31044505610561  0.56473497479748
 6 -8.96676457465746  6.75593531543154 -0.42901538033803
 7 -9.28921712231223  0.85853308630863 -0.45778824722472
 6 -9.89765362826283  2.11994449314931 -0.51878114731473
 6 -11.38408227472747  1.93408696969697 -0.89949378327833
 6 -11.41571552205220  0.53461080118012 -1.17345229992999
 6 -10.08563078877888 -0.06978693039304 -0.84809805230523
 6 -12.40178867976798  2.83311181278128 -1.22904599489949
 6 -12.71281902140214 -0.28058053755376 -1.68384934463446
 6 -12.83575370607061 -0.29672293669367 -3.28944711601160
 7 -7.44536349394939 -1.22626431163116 -0.16541507000700
 6 -8.56570815831583 -1.98783751055106 -0.71712507490749
 6 -8.09569200820082 -3.35111199339934 -0.74262682998300
 6 -6.80331524062406 -3.36866369466947 -0.17867549144915
 6 -6.47605870927093 -2.01229404800480  0.02508758495850
 6 -8.93586634423442 -4.60953170267027 -1.06919591399140
 6 -5.74627157235724 -4.29187422252225  0.09502044764476
 8 -5.70624011421142 -5.53485301540154  0.05415814991499
 6 -4.50320794939494 -3.35915667726773  0.48271733383338
 6 -3.90088388628863 -3.75417951145115  1.66762328802880
 8 -4.19774484798480 -3.29282721662166  2.77528559665967
 8 -3.09569825742574 -4.78011298419842  1.52742317021702
 6 -2.45150985478548 -5.33462290839084  2.84958709830983
 6  2.61726389498950 -1.14939883748375 -1.24226825262526
 6  3.96049929672967 -0.60392089448945 -0.80738283838384
 6  4.97482973957396  0.00280133503350 -1.46958091469147
 6  4.98339753545354  0.32244297599760 -2.95200231703170
 6  6.21553329852985  0.32304004320432 -0.73098201240124
 6  7.46340758115812 -0.47004318721872 -1.09180604750475
 6  8.80973257435743 -0.22728671377138 -0.22527087458746
 6  10.13585451115112 -0.76195052165217 -0.76951430623062
 6  10.04174021262126 -2.33159696259626 -0.80424970987099
 6  11.32071592179218 -0.36680099479948  0.02134157845785
 6  12.66213788798880 -0.75306062326233 -0.62310683378338
 6  13.88191678107811 -0.23467069326933  0.21440349584958
 6  15.23060197199720 -0.31328220972097 -0.43580713861386
 6  15.77462703450345 -1.74647351275128 -0.49728849714972
 6  16.21419216351635  0.67277179447945  0.36035505780578
 6  17.68003289208921  0.70859377707771 -0.05646954835484
 6  18.54784570887089  1.86668099699970  0.67777859405941
 6  20.07010891249125  1.87882568716872  0.31903363086309
 6  20.26072677157716  2.26387296339634 -1.12930100790079
 6  20.89966248754876  2.76906824562456  1.30141192939294
 1 -4.03783144344434  3.38230946294629  2.01293617451745
 1 -9.85496334943494  4.24269151125112 -0.60769209190919
 1 -10.50762501890189 -2.01576873237324 -1.50461993509351
 1 -2.87055938293829 -1.37266650185019  1.87195807150715
 1 -2.28032934743474  1.54644486768677  1.33571648384839
 1 -1.93282354035404  0.20786715511551  3.64748385238524
 1 -2.74913040494049  1.86767181688169  3.90547074227423
 1 -3.75191478837884  0.28388357285729  3.76601177737774
 1 -2.25523103150315 -1.83162789588959 -0.27422186938694
 1 -2.05736907630763 -0.18208201720172 -0.75160185438544
 1 -0.18075389518952 -0.06673281968197  1.15761612291229
 1 -0.56871721102110 -1.55715767436744  1.58223573197320
 1 -4.63246806330633  6.02078644674467  0.96231903170317
 1 -5.87429263566357  7.05623053775378  1.87959725432543
 1 -4.78743683048305  5.37022506650665  2.64201833583358
 1 -7.97913292269227  6.96479635413541  1.21582313621362
 1 -9.40328568046805  6.02295245574557 -1.29818140424042
 1 -9.42046679327933  7.79772850035004 -0.52250247314731
 1 -12.58908327032703  3.55933512071207 -0.30763857695770
 1 -12.24204805310531  3.85335929332933 -1.91624094089409
 1 -13.32043306610661  2.34022185788579 -1.88191254665467
 1 -12.62201457465746 -1.20266919361936 -1.28773352445244
 1 -13.59368639313931  0.08001215591559 -1.19166152495249
 1 -12.75759138903890  0.77517433053305 -3.73272061636164
 1 -12.16890185818582 -0.92949052265227 -3.80763971607161
 1 -13.68102485598560 -0.49110820562056 -3.59113665596560
 1 -9.90282683148315 -4.62354167396740 -0.41140344234423
 1 -9.22686666556656 -4.63839178517852 -2.10314721292129
 1 -8.25765093979398 -5.54683295029503 -0.96293424892489
 1 -3.87947979937994 -3.45881217141714 -0.37085843444344
 1 -1.66967736073607 -6.07069216491649  2.55993932803280
 1 -2.29285773217322 -4.33139662356236  3.56836127872787
 1 -3.20788380478048 -6.01859695129513  3.31825870147015
 1  2.48291219871987 -2.43036067956796 -1.09260042704270
 1  2.32902779727973 -0.74593217401740 -2.32181994919492
 1  4.33156592829283 -0.63639595389539  0.33339124212421
 1  5.43548537773777  1.26477898689869 -3.05345006480648
 1  5.75558217541754 -0.29287332483248 -3.55446684828483
 1  4.08021814001400  0.20783196999700 -3.52058288338834
 1  6.45155317151715  1.48066419141914 -0.73799399049905
 1  5.88279632433243  0.01350146054605  0.34720242764276
 1  7.33306009090909 -1.60312703730373 -0.97715847544754
 1  7.63240278277828 -0.39191717111711 -2.10895572457246
 1  8.93074856225622  0.70436927822782 -0.20124997669767
 1  8.55600866366637 -0.58338248974897  0.88179099149915
 1  10.14176684528453 -0.27165460876088 -1.78633320832083
 1  9.13259357555756 -2.70791948514851 -1.34905345314531
 1  10.89683471457146 -2.69703130293029 -1.26699730463046
 1  9.84540956105611 -2.69206089168917  0.17262899359936
 1  11.39148444584459  0.80619940004000  0.20072865806581
 1  11.14228019151915 -0.69203443994399  1.16408633883388
 1  12.85458016861686 -1.95788735993599 -0.65244845784578
 1  12.78062621482148 -0.30606068506851 -1.51657319101910
 1  13.67650880578058  0.86681639243924  0.32948585948595
 1  13.94812903990399 -0.70588701650165  1.02525937183718
 1  15.31201354555455  0.11947315341534 -1.30124213751375
 1  15.18110366326633 -2.53208579037904 -0.88723805700570
 1  16.80047392089209 -2.01422545914591 -0.87033281718172
 1  15.66354163296330 -2.22680781338134  0.49803907530753
 1  15.97658793199320  1.65071164146415  0.35219567856786
 1  16.01127578437844  0.55863648694870  1.43681710431043
 1  18.17903912561256 -0.36183039353935  0.02220235243524
 1  17.86020060566057  1.03476536483648 -1.32668110061006
 1  18.20774546404640  2.96352274817482  0.56594198389839
 1  18.53061531573157  1.54872068156816  1.62832998299830
 1  20.61901823422342  0.76348430943094  0.33937509370937
 1  20.12826018261826  3.40418868896890 -1.24310621302130
 1  21.49852709640964  2.13536160586059 -1.55341844844484
 1  19.65392036503650  1.57028264996500 -1.79931211271127
 1  20.66011124762476  2.27884935293529  2.25276631323132
 1  21.85417827502750  2.86810683808381  0.87611176827683
 1  20.65348497789779  3.88298149774978  1.26909564746475
 1 -7.30917275037504  1.87026589978998  0.38179002510251
 1 -7.57361891029103 -0.08692886888689 -0.30217034463446

