%nproc=3
%Mem=2GB
# td=(NStates=1) B3LYP/SVP 

TD

0 1
 6 -5.05662336043604 -1.96645288738874  0.36684156005601
 6 -4.82857317631763  2.76034248594859  1.39651603750375
 6 -9.31472138183818  3.25154595379538 -0.26949541744174
 6 -9.79443749824982 -1.52556335973597 -0.81163371677168
 7 -5.23165232753275  0.41191281418142  0.78510694769477
 6 -4.53516213231323 -0.73190991199120  0.76061950535053
 6 -3.10890057655766 -0.50668710341034  1.17179217501750
 6 -3.20012497789779  0.94063295559556  1.71293039883988
 6 -4.48146733983398  1.43369318721872  1.29894349134914
 6 -3.00376894539454  0.92703021532153  3.27142500510051
 6 -2.00905297599760 -0.70098005970597 -0.04207626202620
 6 -0.54470768296830 -0.79693791039104  0.40607306000600
 6  0.47542120352035 -0.99746661956196 -0.75214677227723
 8  0.08245001260126 -1.39827219381938 -1.82733634513451
 8  1.61415161226123 -0.65496226932693 -0.40992343504350
 7 -7.04527912251225  2.69492676447645  0.29456896609661
 6 -5.92301387678768  3.38125254355436  0.82830368726873
 6 -6.34949813551355  4.84141058055806  0.96758325112511
 6 -7.59961905870587  5.01283011851185  0.58912543994399
 6 -8.12350329622962  3.61655014871487  0.13415357075708
 6 -5.42322283878388  5.81550706580658  1.56093735973597
 6 -8.29052633533353  6.18893290489049  0.36706520782078
 6 -9.16888478667867  6.68458818071807 -0.45926840564056
 7 -9.23123132373237  0.84481171417142 -0.45995846424642
 6 -9.92620648354836  1.95206770547055 -0.50103937313731
 6 -11.33329719621962  1.82427598859886 -0.89714354825483
 6 -11.40613456395639  0.39118645874587 -1.08068302300230
 6 -10.12292451815181 -0.13344329602960 -0.84557780028003
 6 -12.30596909780978  2.82480098169817 -1.03701679197920
 6 -12.63088082758276 -0.38678115761576 -1.52026298599860
 6 -12.66192632333233 -0.41663492789279 -3.13937210851085
 7 -7.48434739233923 -1.27912959815982 -0.18435696419642
 6 -8.57482907040704 -2.02616134293429 -0.47299066146615
 6 -8.25248768776878 -3.38891577377738 -0.52641520882088
 6 -6.85757066616662 -3.41653848214821 -0.13191081498150
 6 -6.41881298469847 -2.06909972857286 -0.00641556535654
 6 -9.04558731633163 -4.54513526302630 -0.97306630103010
 6 -5.68192513771377 -4.39848488358836  0.11326227182718
 8 -5.66799628982898 -5.51440097019702 -0.00681794769477
 6 -4.49501713031303 -3.28335909750975  0.36483554565457
 6 -3.89347314521452 -3.71281537503750  1.74914143984398
 8 -4.11589666316632 -3.23674160806081  2.86286435453545
 8 -3.07427611521152 -4.73566853975398  1.57432786068607
 6 -2.46399110291029 -5.43928337443744  2.66305844544454
 6  2.69749191779178 -0.91537543514351 -1.39800382618262
 6  3.90440368716872 -0.55942644504450 -0.61060316041604
 6  5.06911916851685  0.16836789168917 -1.04514847144714
 6  5.15269446514651  1.12133286498650 -2.21307842464246
 6  6.32403414861486  0.22805054425443 -0.20885980018002
 6  7.54639587998800 -0.30112629552955 -0.96501336823682
 6  8.85777737883788 -0.22764674977498 -0.07866621412141
 6  10.08566949264926 -0.81303563016302 -0.61389874467447
 6  9.98731477007701 -2.25763956685669 -0.79572885778578
 6  11.31231508170817 -0.39016333103310  0.27679712401240
 6  12.65505717991799 -0.61711702890289 -0.46461098419842
 6  13.82045063446345 -0.18447567376738  0.37311936743674
 6  15.22768167996800 -0.19907078857886 -0.43956751465146
 6  15.67802737453745 -1.67293615901590 -0.65365413371337
 6  16.26060680498050  0.54802932023202  0.41891091339134
 6  17.67117200600060  0.61888480618062 -0.18899280068007
 6  18.71548247254725  1.57809213811381  0.58965978217822
 6  20.13445534713471  1.63131093569357  0.02761448894889
 6  20.27282798169817  2.15359193529353 -1.31057913571357
 6  21.04257677897790  2.37400873967397  1.02235402360236
 1 -3.78102576287629  3.41328256025603  1.51915679657966
 1 -10.03358121122112  4.13116035813581 -0.18976029872987
 1 -10.41435569196920 -2.15260241574157 -1.19155862896290
 1 -2.87317964496450 -1.35976521172117  1.71243211891189
 1 -2.33955527002700  1.64478470167017  1.44840775297530
 1 -1.86483674167417  0.56971333973397  3.30453955795580
 1 -3.03596908880888  1.91549659935994  3.78639883508351
 1 -3.88848844574457  0.44357954245425  3.79406458265827
 1 -2.33103861226123 -1.72491722482248 -0.40329477667767
 1 -1.98148148754875  0.17188337933793 -0.87939463366337
 1 -0.57180300010001  0.10348420202020  0.88882924422442
 1 -0.33593393269327 -1.68086004460446  1.03305081348135
 1 -4.61760657715772  6.13671803990399  0.76503930373037
 1 -6.01920712711271  6.92020693539354  1.51744103870387
 1 -5.26012409920992  5.63594163816382  2.74097823182318
 1 -7.91679668906891  6.98129800430043  1.11341289518952
 1 -9.60679603150315  6.05498565906591 -1.22338392449245
 1 -9.63452819941994  7.67970669816982 -0.40713093599360
 1 -12.21397575957596  3.76395558275828 -0.17075488858886
 1 -12.06605045334534  3.66205016241624 -2.04241355815582
 1 -13.27539856265627  2.53696153185318 -1.12058641404140
 1 -12.38848122132213 -1.42814174087409 -1.02690744184418
 1 -13.64414143864386  0.11813596829683 -1.24725708450845
 1 -12.68700433033303  0.60705751885188 -3.74305164946495
 1 -11.96840180818082 -1.20395796939694 -3.49780873297330
 1 -13.60415716921692 -0.82790188498850 -3.45277281958196
 1 -9.88036458525853 -4.76824614441444 -0.34362666466647
 1 -9.02826680558056 -4.61271921792179 -2.21496839503950
 1 -8.76095126982698 -5.63834210121012 -0.77374533003300
 1 -3.62299415081508 -3.75139142934293 -0.42524387298730
 1 -1.92042243524352 -6.35267036273627  2.17204053815382
 1 -1.68269671607161 -4.86304978887889  3.24741918451845
 1 -3.33503652005201 -5.73160825242524  3.26274314991499
 1  2.49320322782278 -1.98639628312831 -1.67473864086409
 1  2.40876577107711 -0.40928850965096 -2.29095686288629
 1  4.02947571927193 -1.12607492179218  0.23666156915692
 1  5.50007183638364  2.21003351235124 -1.91606632643264
 1  5.72113873107311  0.89010497299730 -3.15718712031203
 1  4.22776289448945  1.20874206100610 -2.86323714881488
 1  6.63009102530253  1.24827095209521  0.00727053595360
 1  6.44027207190719 -0.00515040464046  0.84679238663866
 1  7.46406319121912 -1.56813353795380 -1.04223498309831
 1  7.71902144464446  0.31959397999800 -1.89984481348135
 1  9.02215770317032  0.86169501080108  0.12655280358036
 1  8.67702076487649 -0.73077722922292  0.95720853325333
 1  10.18437110571057 -0.36814425772577 -1.50003457845785
 1  9.40338065426543 -2.71832052525253 -1.83492204000400
 1  11.27934296539654 -2.58221982178218 -1.01058166306631
 1  9.52471749184919 -2.74725641124112  0.22781451215121
 1  11.38519381678168  0.68304708480848  0.69298788398840
 1  11.36394235773577 -0.87788302480248  1.31054098429843
 1  12.53951866246625 -1.73161473267327 -0.46119933293329
 1  12.56489464166417 -0.12031211021102 -1.43010454415442
 1  13.54751590649065  0.74636434723472  0.84065697659766
 1  13.92659688668867 -0.91852828062806  1.31322816871687
 1  15.48666101030103  0.22781398749875 -1.40283229652965
 1  14.91936748964896 -2.40660324212421 -1.06547588078808
 1  16.54067794129413 -1.62597663426343 -1.16631241514151
 1  15.81946722552255 -2.24824995759576  0.38093736513651
 1  15.90609088228823  1.47093366366637  0.85919637863786
 1  16.32509716651665 -0.10393977067707  1.48528195079508
 1  17.88820004170417 -0.52612682318232 -0.19895976377638
 1  17.67030161576158  1.03657554585459 -1.18566699919992
 1  18.37599228872887  2.61352774867487  0.40939632933293
 1  18.96733898809881  1.30999680918092  1.63885103510351
 1  20.49041537393740  0.51128908990899  0.09559071527153
 1  19.90402775937594  3.31453972407241 -1.26552845524552
 1  21.32325956965697  1.87129519921992 -1.56750985758576
 1  19.57524249724973  1.53386900860086 -1.90582276377638
 1  20.95018025452545  1.99027049504950  2.07170820742074
 1  22.09993285048505  2.40381040844084  0.87120127722772
 1  20.58975860526053  3.41024422402240  1.05159389728973
 1 -6.91647348044804  1.71388026122612  0.24053589968997
 1 -7.63103465186519 -0.39188936493649 -0.33591371897190

