%nproc=3
%Mem=2GB
# td=(NStates=1) B3LYP/SVP 

TD

0 1
 6 -5.07286498459846 -2.02120836293629  0.41987686358636
 6 -4.86344666366637  2.69094554625463  1.32041842774277
 6 -9.47458736843684  3.39998079727973 -0.17636610451045
 6 -9.84640269476948 -1.43653445684568 -0.93125567896790
 7 -5.25544470677068  0.41305292819282  0.77100553755376
 6 -4.57639625572557 -0.73650037103710  0.83393683708371
 6 -3.03814350085009 -0.54171060576058  1.14841983778378
 6 -3.13440840624062  0.98935782808281  1.76161526732673
 6 -4.51215040814081  1.47067688558856  1.19957355435544
 6 -2.94621318981898  0.94447195949595  3.28306616921692
 6 -2.07959002970297 -0.82248220992099  0.02629057465747
 6 -0.59693290549055 -0.92413062966297  0.54531698439844
 6  0.41899556095610 -1.10300717361736 -0.61770332793279
 8  0.14396616421642 -1.71118348494849 -1.62709632113211
 8  1.71533173027303 -0.61688846194619 -0.27796023872387
 7 -7.14379897449745  2.79495676747675  0.44849435863586
 6 -6.04360593599360  3.36864128242824  1.02529338623862
 6 -6.33608679437944  4.83029946944695  0.93215970877088
 6 -7.67076617341734  4.96041487698770  0.58086461386139
 6 -8.27830877677768  3.74985347904790  0.24599475487549
 6 -5.33253376987699  5.89811532663266  1.39250051605161
 6 -8.23349063176317  6.31291530313031  0.36322482378238
 6 -9.31573947214721  6.69334905680568 -0.43491597039704
 7 -9.28660686128613  0.86086331933193 -0.37352982138214
 6 -10.02932679557956  2.07169966866687 -0.42232150135014
 6 -11.33117698419842  1.85139870087009 -0.83767760166017
 6 -11.44336828732873  0.51521886198620 -1.03187814251425
 6 -10.11117334303430 -0.00131008270827 -0.78881212371237
 6 -12.27514601550155  2.98619712131213 -1.00514360466047
 6 -12.70268800830083 -0.13514599409941 -1.59942090179018
 6 -12.53948407910791 -0.46142940734073 -3.15391356265627
 7 -7.52617157475748 -1.31741342654265 -0.20652918141814
 6 -8.59930151765177 -1.96846557335734 -0.51408477087709
 6 -8.26953939293930 -3.37295417761776 -0.57818038533853
 6 -6.96327123622362 -3.44224105240524 -0.11803942784278
 6 -6.41512261566157 -2.10251306990699 -0.00069499329933
 6 -9.03877663526353 -4.57319806930693 -0.96990598499850
 6 -5.77534447964796 -4.31629666476648  0.02548349394939
 8 -5.72324181438144 -5.48882841294129  0.03631636573657
 6 -4.46578420702070 -3.34379514111411  0.40599966206621
 6 -3.84718851675168 -3.82058615211521  1.64819134483448
 8 -4.10774584808481 -3.33975190909091  2.73825189328933
 8 -2.85559424702470 -4.73229820272027  1.47634806270627
 6 -2.20717542134213 -5.31144059015902  2.56644878447845
 6  2.64615678427843 -1.09952384998500 -1.19075310111011
 6  4.07070031683168 -0.72678318071807 -0.68034013411341
 6  5.17132938953895 -0.00152909800980 -1.23918787538754
 6  5.01510070577058  0.52621335303530 -2.57988510531053
 6  6.33028477367737  0.21014875407541 -0.34863377757776
 6  7.55039628002800 -0.44061024392439 -0.97893476037604
 6  8.86334793589359 -0.17784176927693 -0.24133248074807
 6  10.10735166086609 -0.78952327892789 -0.79556691149115
 6  10.11765780438044 -2.21024482738274 -1.16277556245625
 6  11.29077292749275 -0.50272458715872  0.13473291759176
 6  12.75420709490949 -0.70199551675168 -0.43503802690269
 6  13.92473106250625 -0.04962218841884  0.36076813231323
 6  15.26669558135814 -0.11046192769277 -0.37159071697170
 6  15.57548712051205 -1.68422728812881 -0.69223799209921
 6  16.40559130343035  0.56797131443144  0.49826884918492
 6  17.78380326912691  0.84617753545355 -0.05543944534453
 6  18.69086001030103  1.69645397429743  0.70794161036104
 6  20.08886078767877  1.70485829042904  0.33353508100810
 6  20.26205690459046  1.92579915601560 -1.17536561436144
 6  20.97836035733573  2.71406274507451  1.13822561076108
 1 -4.05854351465147  3.44170540254025  1.87808268916892
 1 -10.08177603070307  4.21704894699470 -0.29489081178118
 1 -10.75184944134413 -2.19915707120712 -1.16675614871487
 1 -2.75416774377438 -1.06453568876888  2.01527240294029
 1 -2.20418173267327  1.42299252245225  1.41986489868987
 1 -1.95719597759776  0.77321368976898  3.59944904890489
 1 -3.24639013091309  1.96803185288529  3.84490468566857
 1 -3.69658925582558  0.39474465896590  3.86334151035103
 1 -2.41423693209321 -1.76030076317632 -0.41826627382738
 1 -2.18395173457346 -0.05012882188219 -0.73045974017402
 1 -0.23456927672767  0.16976082968297  0.84768512981298
 1 -0.49299963926393 -1.82637459605961  1.18631614001400
 1 -4.38889370587059  5.70229459755976  0.95221802160216
 1 -5.44010921732173  7.09243415811581  1.07072636723672
 1 -5.08318640544054  5.90066811081108  2.41633576757676
 1 -7.82113712311231  7.10383025752575  1.05591714561456
 1 -9.77237258915892  6.17891805230523 -1.30645223132313
 1 -9.76537128372837  7.79795852335234 -0.40479070197020
 1 -12.61817617961796  3.76835602280228 -0.33926173927393
 1 -11.86742059035904  3.61752570997100 -1.73144246104610
 1 -13.26847787058706  2.72930076577658 -1.40164451985199
 1 -12.94619699289929 -1.08343727042704 -1.00478522962296
 1 -13.47999502400240  0.43163731843184 -1.37720007880788
 1 -12.36615224512451  0.42181899499950 -3.67061440574057
 1 -11.70763573157316 -1.13396096969697 -3.19325827792779
 1 -13.55641239473947 -0.99156825162516 -3.51209875217522
 1 -10.08963551235123 -4.68753807360736 -0.52672497449745
 1 -9.16818079697970 -4.66240418641864 -2.08660555875588
 1 -8.42636781148115 -5.47537580458046 -0.61836979247925
 1 -3.76535838723872 -3.75014130433043 -0.42707405600560
 1 -1.56487688068807 -6.13640873657366  2.50349368346835
 1 -1.54463290969097 -4.68734221812181  3.19010345294529
 1 -2.98687170357036 -5.81405649724972  3.28368524412441
 1  2.33557746524652 -2.13320096359636 -1.26617778477848
 1  2.35176007050705 -0.62664024482448 -2.06798456565657
 1  4.18752152385238 -1.08132044634463  0.41236913991399
 1  5.69479130833083  1.42446495549555 -2.76214093389339
 1  5.05455207240724 -0.43418745624562 -3.49720112171217
 1  3.87741785998600  0.53971515831583 -2.78810963606361
 1  6.40816883308331  1.30184630963096 -0.38018820992099
 1  6.10460850555056 -0.09194908450845  0.81697940534053
 1  7.30673745864586 -1.43437016161616 -1.12162292189219
 1  7.64553409590959  0.00199221982198 -2.11384621362136
 1  8.88425391279128  1.05817465876588  0.01344149244925
 1  8.84840790359036 -0.57142129362936  0.78228104050405
 1  10.30302297089709 -0.15171261456146 -1.74489906490649
 1  9.50456077227723 -2.52471116431643 -1.97443599139914
 1  11.11424645574557 -2.79485108490849 -1.27945855075508
 1  9.62249726982698 -2.66014770037004 -0.33840210951095
 1  11.28477377477748  0.54273305340534  0.45170375557556
 1  11.14931089458946 -1.16855209170917  1.13147307750775
 1  13.14685939653966 -1.62115368656866 -0.59000221322132
 1  12.99812796499650 -0.24182426142614 -1.47610914461446
 1  13.55770692559256  1.06738644944494  0.45721863276328
 1  13.82369659665967 -0.47863429122912  1.37750459635964
 1  15.08851119531953  0.38270947704770 -1.38740075337534
 1  14.75955150805080 -2.17807038883888 -1.22349168236824
 1  16.59031290479048 -1.84545858245825 -1.28333411731173
 1  15.73011829062906 -2.02473760636064  0.20072934433443
 1  15.88483875707571  1.40224679497950  0.77987844684468
 1  16.39025368216822 -0.13281265796580  1.15876929952995
 1  18.23579480118012 -0.12224643514351 -0.17592746054605
 1  17.61694628022802  1.17236912521252 -1.27466589908991
 1  18.34070876037604  2.77454385028503  0.77805319501950
 1  18.55325757995800  1.24772058155816  1.82566971697170
 1  20.44904123652365  0.61238919991999  0.42768392459246
 1  19.75137249384938  2.94439270937094 -1.30881278367837
 1  21.26898414211421  2.20289835953595 -1.49773287988799
 1  19.92380735373537  1.09249487118712 -1.91867404890489
 1  20.75695093159316  2.58302977097710  2.18413945054505
 1  22.20977383458346  2.56291631903190  1.09029318641864
 1  20.78193782318232  3.73978717831783  0.86982572047205
 1 -7.37805963906391  1.75303417661766  0.35509735583558
 1 -7.59958150655065 -0.20414059005901  0.03203307570757

