%nproc=3
%Mem=2GB
# td=(NStates=1) B3LYP/SVP 

TD

0 1
 6 -5.13324102220222 -1.94837107920792  0.41469634553455
 6 -4.69518983798380  2.66431288298830  1.45395178107811
 6 -9.39687959765977  3.37746854605461 -0.13655212311231
 6 -9.84180223472347 -1.36386719011901 -0.98820137353735
 7 -5.12781194349435  0.47446906980698  0.83006144314431
 6 -4.54904352045205 -0.72835955695570  0.78704214761476
 6 -3.09742942944294 -0.62638907360736  1.32326732253225
 6 -3.09247421282128  0.90669956225623  1.84592369816982
 6 -4.39059825292529  1.35426524442444  1.38364196119612
 6 -2.91458002650265  0.83998151045104  3.36385424802480
 6 -2.14074614531453 -0.90072003370337  0.15165311091109
 6 -0.61138435063506 -1.01186940354035  0.51974442714271
 6  0.42466612801280 -1.20722759565957 -0.53328488608861
 8  0.10015178277828 -1.44322668926893 -1.66443005450545
 8  1.67323752085209 -1.06217299039904 -0.10875331803180
 7 -6.98071266586659  2.72173944574457  0.60191970117012
 6 -5.89488106350635  3.33035745404540  1.06024688158816
 6 -6.11926511221122  4.77601404090409  1.06429292209221
 6 -7.42490158695870  4.98791762726273  0.50918744614461
 6 -7.98279922582258  3.62607110081008  0.32349250465047
 6 -5.07191770827083  5.85049056415642  1.48351961796180
 6 -8.12843012571257  6.23855786738674  0.31533003430343
 6 -8.93778167636763  6.67339706160616 -0.66200867966797
 7 -9.18523672427243  0.98848608160816 -0.62102457085709
 6 -9.76591045394539  2.14868736743674 -0.46875614481448
 6 -11.23487735423542  1.99819338033803 -1.00263409730973
 6 -11.38492244274427  0.59886722682268 -1.11433638833883
 6 -10.12901512721272  0.02787283558356 -0.91327456995700
 6 -12.26321482238224  3.04575307690769 -1.07487057735774
 6 -12.61487922742274 -0.13523600310031 -1.70792175187519
 6 -12.58096822752275 -0.21251451585159 -3.26343451475147
 7 -7.52883184078408 -1.21073275847585 -0.17476600510051
 6 -8.63262484998500 -1.96295502230223 -0.67299066146615
 6 -8.24550698969897 -3.36851373357336 -0.61183375067507
 6 -6.93806871597160 -3.30189701800180 -0.21656928082808
 6 -6.53976507990799 -1.99882270087009  0.03943902010201
 6 -9.05043780138014 -4.54300505000500 -0.96916591099110
 6 -5.88411535673567 -4.28894392949295  0.01106205180518
 8 -5.70100959115912 -5.48331786188619 -0.06690395629563
 6 -4.57092472107211 -3.37192795439544  0.33457251935194
 6 -3.91402520042004 -3.86187028052805  1.56743326902690
 8 -4.34371944544454 -3.62307024092409  2.61409947804780
 8 -2.86736542414241 -4.71700667356736  1.27281770967097
 6 -2.26244094789479 -5.30760020612061  2.46726886648665
 6  2.68951111971197 -1.14120801840184 -1.09325335113511
 6  3.97859110591059 -0.89327983038304 -0.57114921502150
 6  4.98630088668867 -0.16185513061306 -0.99210316691669
 6  5.04588378407841  0.50741147284728 -2.50872798959896
 6  6.23517526272627  0.00733847304730 -0.25939485368537
 6  7.53431467186719 -0.59847603050305 -0.78187505440544
 6  8.86762836393639 -0.35128911401140 -0.00640898839884
 6  10.10241116681668 -0.95044937153715 -0.50677803260326
 6  10.06733277187719 -2.51893569646965 -0.40530981588159
 6  11.20910476067607 -0.29892420712071  0.20633007730773
 6  12.70593226742674 -0.73370868806881 -0.32708723182318
 6  13.75622421182118  0.08139091289129  0.31433348884889
 6  15.15860477227723 -0.16548743024302 -0.25048860676068
 6  15.49168874067407 -1.63564242964296 -0.21191996029603
 6  16.18970971527153  0.89734425172517  0.32505152745275
 6  17.59535442424243  0.87674059175918 -0.34820872227223
 6  18.55073599789979  1.78177250615061  0.42456327252725
 6  19.96417831943194  1.91254905950595 -0.10147842034203
 6  20.01033173207321  2.36408298439844 -1.62228030583058
 6  20.87535005630563  2.89485082388239  0.61685347354735
 1 -3.85423308360836  3.36360759275928  1.44722960386039
 1 -9.89676752985299  4.22007925002500 -0.28812013471347
 1 -10.77985224162416 -2.06916407190719 -0.96336580968097
 1 -3.00408273527353 -1.19650888608861  2.23252412811281
 1 -2.20041135563556  1.39723994719472  1.49409232143214
 1 -1.91340159815982  0.51373774217422  3.43030213421342
 1 -3.30329582148215  1.76821187088709  4.11316151135114
 1 -3.44745434233423 -0.03399821532153  3.76758193439344
 1 -2.30646615501550 -1.87797253035304 -0.34715916311631
 1 -2.29614295369537 -0.04145795479548 -0.53315000920092
 1 -0.21623744354435 -0.04477062346235  0.95360572187219
 1 -0.56493683298330 -1.78971092969297  1.31541905030503
 1 -4.10768558505851  5.70228459655966  1.04575737553755
 1 -5.66969217561756  6.79834474917492  1.51022031663166
 1 -5.04945303210321  5.73584162816282  2.69982411641164
 1 -7.68912392179218  6.91470134463446  1.15909746364636
 1 -9.43931928382838  6.07979814031403 -1.48001958805881
 1 -9.20243499009901  7.76994572207221 -0.82827305020502
 1 -12.34123848584859  3.76423561076108 -0.27530534363436
 1 -11.99613346164617  3.72161611901190 -1.99903922072207
 1 -13.08031905470547  2.53728156385639 -1.56213056845685
 1 -12.85546791999200 -1.11461038773877 -1.17061181228123
 1 -13.58119514401440  0.35798995369537 -1.69478183698370
 1 -12.59431506140614  0.85756256935694 -3.80513785808581
 1 -11.86286125412541 -0.84559213281328 -3.52061101320132
 1 -13.52724947844784 -0.78887798259826 -3.82629017131713
 1 -9.86459300810081 -4.68979829962996 -0.22130443244324
 1 -9.55690966986699 -4.40365831183118 -2.07271416961696
 1 -8.28014318901890 -5.37074534153415 -0.95106306180618
 1 -4.01490334173417 -3.44624091429143 -0.53264461306131
 1 -1.62159255225523 -6.00294539023902  1.97033036713671
 1 -1.47396584298430 -4.62732621652165  2.89134357695770
 1 -3.14794781118112 -5.81232632423242  3.08582545814581
 1  2.67024093159316 -2.15624326782678 -1.62906407340734
 1  2.29747464196420 -0.32647022782278 -1.79774754195420
 1  4.08886165786579 -1.54686700100010  0.27854575757576
 1  5.87034886408641  1.35423793279328 -2.45064978477848
 1  5.14956157335734 -0.54179821732173 -3.27970937253725
 1  3.70668078627863  0.89105029182918 -2.53484430953095
 1  6.25914393059306  1.16876300130013 -0.24069426052605
 1  6.04206225092509 -0.41345123472347  0.84809251665167
 1  7.35755254015401 -1.61227795239524 -1.09387014661466
 1  7.97941748424842 -0.25326330573057 -1.84986981598160
 1  8.82061754915492  0.79258810011001  0.15288543684368
 1  8.76537960076008 -0.66613076457646  0.98252106450645
 1  10.22460512911291 -0.66903434673467 -1.66197077207721
 1  9.36853716991699 -2.90660935413541 -1.02603115091509
 1  11.07506253735374 -3.22832443224322 -0.57683828872887
 1  9.96448146824683 -2.70502218781878  0.72172390309031
 1  11.05449074647465  0.85685446554655  0.11191977717772
 1  11.21524748824883 -0.49497473397340  1.40887081728173
 1  12.73172788338834 -1.89868143934393 -0.08623183618362
 1  12.69815796799680 -0.51400147914791 -1.34272580628063
 1  13.47934908980898  1.13686339713971  0.46769968086809
 1  13.79488371537154 -0.17441386918692  1.36521336723672
 1  15.07106945114511 -0.02133092699270 -1.39897191049105
 1  14.82586813971397 -2.11253383518352 -0.99152848604860
 1  16.57953182668267 -1.56980101670167 -0.56322210611061
 1  15.45024030283028 -1.86917204980498  0.89008828022802
 1  15.61523179637964  1.82129870017002  0.42573303230323
 1  16.28190284708471  0.52004262756276  1.50668409100910
 1  17.92845406710671 -0.22151636213621 -0.42343221102110
 1  17.46661124672467  1.39289117741774 -1.32815124762476
 1  18.12280697019702  2.94830122602260  0.52034742444244
 1  18.62447470167017  1.62725853535354  1.60047719771977
 1  20.23200953335333  0.95627358835884 -0.03055189898990
 1  19.58217557415742  3.19906817691769 -1.64503640604060
 1  21.08334557825783  2.40169823952395 -1.94975808240824
 1  19.51396636963696  1.64798041974197 -2.33208539003900
 1  20.89112434893489  2.42916438443844  1.66152718931893
 1  22.00993385058506  2.96747677507751  0.07443160026003
 1  20.37073670307031  3.88635183478348  0.76519525742574
 1 -6.96925875897590  1.73707258045805  0.24527637373737
 1 -7.66283783218322 -0.18794897089709  0.01103097549755

