%nproc=3
%Mem=2GB
# td=(NStates=1) B3LYP/SVP 

TD

0 1
 6 -5.18789648774877 -1.95404164626463  0.40243511941194
 6 -4.79583990299030  2.70611706340634  1.46459284518452
 6 -9.30607051675167  3.38020882008201 -0.17209567746775
 6 -9.83553160766077 -1.39377018041804 -1.01370392379238
 7 -5.16452561486149  0.38461008390839  0.72056049304931
 6 -4.52330094619462 -0.77596431743174  0.80550399379938
 6 -3.10753043954395 -0.68149458415842  1.39294429022902
 6 -3.11080604600460  0.78690758305831  1.93815292109211
 6 -4.37786697979798  1.34623444134413  1.30317391439144
 6 -2.90929949844985  0.72125963826383  3.43745160776078
 6 -2.01294336503650 -0.82597255895590  0.27633557915792
 6 -0.54257746994699 -0.78013623022302  0.60657311001100
 6  0.38771243264326 -1.09192606550655 -0.62114367196720
 8  0.04394616221622 -1.37587995459546 -1.66811042254225
 8  1.71903210031003 -0.79396616971697 -0.21578402110211
 7 -7.05562015661566  2.71609888168817  0.48619812901290
 6 -5.93272484788479  3.31558597689769  1.09791064796480
 6 -6.16296948264826  4.77874431393139  1.14735122792279
 6 -7.41513060986099  4.99598843434343  0.57630415781578
 6 -7.97369831573157  3.67272576627663  0.23132328772877
 6 -5.18304882138214  5.71003651875188  1.65413667966797
 6 -8.15638292099210  6.30368438003800  0.46648514981498
 6 -9.02509040724072  6.55336505840584 -0.53102558135814
 7 -9.25051325192519  0.89114634763476 -0.46016848524852
 6 -9.87057091999200  2.07280977967797 -0.51487075627563
 6 -11.23082694919492  1.99573313431343 -1.05863969786979
 6 -11.39387333783378  0.64833217331733 -1.31793674837484
 6 -10.18006023172317 -0.02777272897290 -0.94788803130313
 6 -12.18652715361536  3.06219472107211 -1.28161125142514
 6 -12.65109284878488 -0.12970545004500 -1.86710767046705
 6 -12.58185831653165 -0.36473973837384 -3.40498867016702
 7 -7.54657361496150 -1.17436912211221 -0.25939446794679
 6 -8.69519110661066 -1.92888161496150 -0.69710307270727
 6 -8.28950138913891 -3.30198708090809 -0.68455102240224
 6 -6.90361527062706 -3.40569739803980 -0.35863348724872
 6 -6.53096419981998 -2.07884070267027 -0.08536346014601
 6 -9.24452721032103 -4.48013876337634 -1.04039303370337
 6 -5.80976792199220 -4.33817885298530  0.07136808240824
 8 -5.71945143534353 -5.48359788988899  0.09661239533953
 6 -4.61490911951195 -3.37951871347135  0.50353941604160
 6 -4.01484528242824 -3.81792588608861  1.82314884058406
 8 -4.22903797729773 -3.33130106400640  2.88331639973997
 8 -3.17453614121412 -4.81576654955496  1.55024545244524
 6 -2.67799250305031 -5.57663710981098  2.73291543114311
 6  2.62556472507251 -1.10322422002200 -1.22007603340334
 6  4.08576182298230 -0.84592509490949 -0.56968906900690
 6  4.95328758535854 -0.03539248434843 -1.09243319991999
 6  4.89281847754775  0.63682441414141 -2.48124524132413
 6  6.36500824602460  0.14452219141914 -0.24208312251225
 6  7.54821606200620 -0.48698488138814 -0.91108797569757
 6  8.88373997509751 -0.30479446454645 -0.10044839233923
 6  10.12902382808281 -0.96825115171517 -0.66387374217422
 6  9.94382042064206 -2.48365216811681 -0.43946323122312
 6  11.32327617781778 -0.36559087378738  0.06133557785779
 6  12.82065373957396 -0.77260257745775 -0.45254977807781
 6  13.89478806820682  0.09915268906891  0.23536559205921
 6  15.27268618041804 -0.07233811531153 -0.30597415531553
 6  15.75051462326233 -1.54562342774277 -0.55452422072207
 6  16.29716046034603  0.73046756405641  0.33199222152215
 6  17.72701759055906  1.00381329902990 -0.26788068946895
 6  18.64083500780078  1.84569889878988  0.47364818101810
 6  20.09340124172417  1.85321312591259  0.01086281378138
 6  20.25732643154316  2.26794337043704 -1.47696577437744
 6  20.91747426872687  2.79110044884488  0.85733752195220
 1 -4.07169482978298  3.13533476547655  2.14837971887189
 1 -9.77964581768177  4.33791103320332 -0.39210053275328
 1 -10.58329258565857 -2.33788094359436 -1.02795226832683
 1 -2.65506783378338 -1.38565780098010  2.23848472417242
 1 -2.14292560706071  1.30838106130613  1.41905481768177
 1 -1.90252051005101  0.33516988538854  3.52436154015402
 1 -2.92101759365937  1.76107115681568  3.94405460066007
 1 -3.65230482738274  0.01663684818482  3.82176735293529
 1 -2.21106661506151 -1.88975370847085 -0.29122356955696
 1 -2.23915725512551 -0.18804261326133 -0.57457415161516
 1 -0.36870269006901  0.19291314491449  0.95769613091309
 1 -0.31746208550855 -1.52363432203220  1.53855136353635
 1 -4.18002281878188  5.60081444954495  0.89870267006701
 1 -5.42983819021902  6.73511842654265  1.59562885748575
 1 -4.82978106490649  5.53844188818882  2.60112424642464
 1 -7.97903291269127  7.25181505600560  1.11325287918792
 1 -9.45080043194320  6.00950111061106 -1.45079666576658
 1 -9.38319306590659  7.70348907640764 -0.57570779367937
 1 -12.26666102810281  3.65289447664766 -0.42745055815582
 1 -12.21140498879888  3.63484744214421 -2.18605792259226
 1 -13.19137015981598  2.76728456415642 -1.46079043444344
 1 -12.80263263646365 -1.08566749344935 -1.31656640774077
 1 -13.53056008050805  0.50828498319832 -1.57462982178218
 1 -12.48360399029903  0.63075988908891 -3.77807515181518
 1 -11.79187415541554 -1.07965553915392 -3.59187813991399
 1 -13.44946169966997 -0.85686478127813 -3.68655619791979
 1 -9.99944649344934 -4.70822014181418 -0.19097139913991
 1 -9.92132611151115 -4.34250219621962 -1.94803170137014
 1 -8.57336251095109 -5.43952221922192 -1.19192714821482
 1 -3.96172802420242 -3.89590588078808 -0.31735308390839
 1 -2.28904929792979 -6.54002909860986  2.30474380848085
 1 -1.83422186858686 -5.17931141504150  3.45439988258826
 1 -3.46661967836784 -5.81969706130613  3.48865574117412
 1  2.46705061256126 -2.27988563206321 -1.34446561356136
 1  2.53923881838184 -0.55627320812081 -2.19199696689669
 1  4.22174494619462 -1.58638095239524  0.35696359935994
 1  5.21615344454445  1.74810731973197 -2.33099781958196
 1  5.64433105030503  0.23861982448245 -2.94831623322332
 1  3.92620273847385  0.56366755355536 -3.07467829292929
 1  6.58632664886489  1.12212833783378 -0.06466665776578
 1  6.16956500120012 -0.27119700930093  0.66680438783878
 1  7.40648743364336 -1.83024974957496 -1.22148290789079
 1  7.70482002450245  0.07995001560156 -1.74394922392239
 1  8.94786027342734  0.95495433673367 -0.21115096679668
 1  8.65783884668467 -0.59410356185619  0.95368818121812
 1  10.07454012261226 -0.86397384068407 -1.72342691769177
 1  8.98408872507251 -3.30260895409541 -0.63352189999000
 1  10.82650768186819 -3.05400700050005 -0.91431203610361
 1  10.17192221232123 -2.86581826742674  0.64574630533053
 1  11.13500879827983  0.85762454255426 -0.05480689548955
 1  11.18505446894689 -0.72264750125013  1.04535446564656
 1  12.91080579117912 -1.82474404560456 -0.29092230523052
 1  12.61484963716372 -0.58636871587159 -1.62978451215121
 1  13.67859901480148  1.09722943374337  0.06702961386139
 1  13.87198142514251 -0.32150857865787  1.31918876477648
 1  15.17165951015101  0.41021222732273 -1.31661367466747
 1  15.02898845174517 -2.11768435023502 -1.22452178537854
 1  16.71245511901190 -1.62072610921092 -1.21734751865187
 1  15.92086736553655 -2.21782691529153  0.16482575397540
 1  15.92864313751375  1.83971054135414  0.70922138113811
 1  16.56237089388939  0.38259888318832  1.26562998559856
 1  17.92650387208721 -0.20990520102010 -0.29139900770077
 1  17.54788937453745  1.37030891919192 -1.32445087758776
 1  18.22275696519652  2.82620901680168  0.56272166186619
 1  18.79133138733873  1.37358316781678  1.47821497149715
 1  20.44198053045304  0.80295825682568  0.17142829902990
 1  19.83416077267727  3.29360763086309 -1.71480338273827
 1  21.37172441614161  2.22016008570857 -1.73655676227623
 1  19.77565253825383  1.44018964066407 -2.28663084458446
 1  21.09154439093910  2.13559502750275  1.81387242384238
 1  21.87255011221122  2.95909593699370  0.37430158725873
 1  20.51690131953195  3.82354555415542  1.15357409530953
 1 -7.25348718181818  1.74460333353335  0.33143498959896
 1 -7.49308085648565 -0.28181835783578 -0.32732285988599

