%nproc=3
%Mem=2GB
# td=(NStates=1) B3LYP/SVP 

TD

0 1
 6 -5.09011670977098 -1.87553379547955  0.56271114701470
 6 -4.70338065706571  2.80444689638964  1.24533091899190
 6 -9.29726963666367  3.25867666686669 -0.20973944184418
 6 -9.77221527602760 -1.48054885828583 -0.93652620602060
 7 -5.19013817611761  0.51534315721572  0.74979341634163
 6 -4.43662227832783 -0.67661438243824  0.75906935033503
 6 -3.01459114561456 -0.44435086978698  1.30404540034003
 6 -3.09846481188119  0.96171506380638  1.73733283908391
 6 -4.40554974807481  1.53049286718672  1.22503610061006
 6 -2.96913548204820  1.14143165546555  3.26795465806581
 6 -2.04558662936294 -0.75160512221222  0.09071701730173
 6 -0.63862707490749 -0.59672788938894  0.51423387608761
 6  0.42952661406141 -0.98611548444844 -0.54513607120712
 8  0.06368813641364 -1.47390975757576 -1.62358597009701
 8  1.61793199029903 -0.74862163526353 -0.24561700440044
 7 -6.99792438703870  2.72265953775378  0.38149765896590
 6 -5.92385396079608  3.36819123742374  0.91303216011601
 6 -6.19653283898390  4.80635707520752  0.98538503130313
 6 -7.41108020482048  4.98739757525753  0.37535406280628
 6 -7.99785073097310  3.67930642434243  0.15100525592559
 6 -5.30151066756676  5.81884739983998  1.64122538853885
 6 -8.19450673337334  6.24168818041804  0.44044254555456
 6 -8.98571646984698  6.62580230213021 -0.53663614241424
 7 -9.12334053465347  0.88621585458546 -0.42471493989399
 6 -9.87605146804681  2.02004450315032 -0.57011628082808
 6 -11.19012287878788  1.79070263126313 -0.92982681658166
 6 -11.26594054455446  0.43937127722772 -1.17686264096410
 6 -9.99057128282828 -0.13448340004000 -0.82566580908091
 6 -12.19012751365137  2.92875137673767 -1.07223031333133
 6 -12.52102984248425 -0.17863034253425 -1.71151211091109
 6 -12.64543467416742 -0.41680494489449 -3.24254242554255
 7 -7.54720367796780 -1.32568425362536 -0.01075960446045
 6 -8.56579816731673 -2.12313103990399 -0.53569693209321
 6 -8.19507194619462 -3.49728661086109 -0.47567013431343
 6 -6.73880878997900 -3.40900772907291 -0.08081570547055
 6 -6.43253435683568 -2.07556037463746  0.16832190839084
 6 -8.97121987958796 -4.67780853035304 -0.94814380878088
 6 -5.69653659885989 -4.26766180128013  0.11930287588759
 8 -5.45965545574558 -5.44474400450045  0.01873460756076
 6 -4.38388601720172 -3.22444320592059  0.42802186428643
 6 -3.78166196409641 -3.77625171867187  1.75467199289929
 8 -4.19208428192819 -3.39648758265827  2.80336840494049
 8 -2.93727241484148 -4.71617659055906  1.57107753565357
 6 -2.55428013181318 -5.48888833493349  2.68876101570157
 6  2.66592876147615 -1.07999189678968 -1.21179520532053
 6  3.97929117591759 -0.68123862626263 -0.63085518561856
 6  4.95190744734473  0.07184823972397 -1.13301725832583
 6  4.82216141184118  0.84656538823882 -2.40515763256326
 6  6.29273101830183  0.20646838603860 -0.48637755195520
 6  7.49078031843184 -0.44801098399840 -1.17296416331633
 6  8.68531013211321 -0.43128711381138 -0.24030237773777
 6  10.04128505420542 -0.98351267786779 -0.87508486328633
 6  9.96754279287929 -2.47144094699470 -1.22568185308531
 6  11.26239008920892 -0.58687300200020  0.05455489978998
 6  12.61005267946795 -0.72053737093709 -0.62052657575758
 6  13.72738132753275 -0.32768999519952  0.41074312981298
 6  15.13454236603660 -0.26403728522852 -0.28521207910791
 6  15.64281385318532 -1.67227609300930 -0.84244301260126
 6  16.07667841214122  0.58972348964896  0.60594961726173
 6  17.46468135693570  0.75678859655966 -0.08975287668767
 6  18.45781670597060  1.53026735563556  0.82786360256026
 6  19.87000890249025  1.89758756335634  0.11751347884788
 6  19.89134983388339  2.77532410851085 -1.14582266006601
 6  20.90236275757576  2.40087142594259  1.23528531673167
 1 -3.96769442974297  3.47459869186919  1.63288816971697
 1 -10.04178203130313  4.09476671877188 -0.21213253595360
 1 -10.74784904130413 -2.00430758625863 -1.23743321642164
 1 -2.83339566656666 -0.90210944614461  2.09937081278128
 1 -2.26732804730473  1.32942316551655  1.41763467566757
 1 -1.90988124612461  0.71741811021102  3.74732383638364
 1 -3.07727321922192  2.28877392709271  3.52462265746575
 1 -3.67153675057506  0.64729991449145  3.72786796299630
 1 -2.20964647304730 -1.61619635273527 -0.46049049624963
 1 -2.18032137153715  0.07491368236824 -0.70123681788179
 1 -0.37978379817982  0.49325317891789  0.93524388568857
 1 -0.50198053735373 -1.54451641024102  1.21917942634263
 1 -4.45801061756176  5.87010137823782  0.97498029782978
 1 -5.93734894129413  6.87840275497550  1.57387668226823
 1 -4.90961904870487  5.68206625062506  2.58770290429043
 1 -7.77947295669567  6.91755162966297  1.27064861876188
 1 -9.31156650855086  6.11828198869887 -1.32107369346935
 1 -9.73299804640464  7.72565129262926 -0.15935615851585
 1 -12.24490885288529  3.58843803100310 -0.32855066816682
 1 -11.84748859715972  3.58134209160916 -1.93826314311431
 1 -13.23895491829183  2.66544438013801 -1.35526988238824
 1 -12.71383375657566 -1.14581350805081 -1.44743949504951
 1 -13.26260328482848  0.50029418411841 -1.47485984478448
 1 -12.83372900280028  0.58388520162016 -3.78772611691169
 1 -11.70895586358636 -0.79087666126613 -3.94594354645465
 1 -13.36853360686069 -1.23585268006801 -3.22269981228123
 1 -9.95077162596260 -4.44207352715272 -0.38195049704970
 1 -9.29604358325833 -4.59276722272227 -2.04330122832283
 1 -8.41544671937194 -5.64962322932293 -0.92303025852585
 1 -3.75415726712671 -3.42197848804880 -0.36697804640464
 1 -1.94712510551055 -6.29705480118012  2.27533086718672
 1 -2.07022546894689 -4.92409589348935  3.31830627322732
 1 -3.37671068746875 -5.77619271087109  3.09497637323732
 1  2.59793370087009 -2.28849649314932 -1.44555572257226
 1  2.65483037753775 -0.52123970477048 -2.14543231043104
 1  4.18912168386839 -1.11435374967497  0.28068597159716
 1  5.10442227142714  1.93833634263426 -2.14884960476048
 1  5.47106372357236  0.50277624012401 -3.23009441104110
 1  3.77937805600560  1.00623180998100 -2.76656748184819
 1  6.80464848104810  1.08858498349835 -0.57204739583958
 1  6.15084312901290 -0.18511840144014  0.53988169556956
 1  7.37959474437444 -1.69216594119412 -1.65073583318332
 1  7.64295383788379 -0.05663364276428 -2.10920574957496
 1  8.83048853625363  0.71065990729073 -0.10834068576858
 1  8.60562362516252 -0.91744589608961  0.75495830823082
 1  10.24089675827583 -0.53541098439844 -1.90821539653965
 1  9.12800311651165 -2.50120881408141 -2.24193274107411
 1  10.95064009510951 -2.71735333513351 -1.48127873277328
 1  9.50348536863686 -3.29889157475748 -0.38820709000900
 1  11.04436973437344  0.40755953605361  0.41160974617462
 1  11.15634159765977 -0.92796803330333  1.09221915211521
 1  12.87074178477848 -1.83373494469447 -1.07634084708471
 1  12.64175232743274 -0.02343242224222 -1.57211874557456
 1  13.53871502640264  0.75043475427543  1.01178408930893
 1  13.75141936893689 -1.11202763056306  1.35528237413741
 1  15.18612095629563  0.49666087218722 -1.12601461476148
 1  14.91312686558656 -2.07845042684268 -1.36302563576358
 1  16.53919779327933 -1.55356939353935 -1.58284406830683
 1  16.08866414521452 -2.35156028862886  0.02419169056906
 1  15.67126739993999  1.44881145144514  0.66374683368337
 1  16.14314897169717  0.10178080138014  1.70812423502350
 1  17.80901212291229 -0.21422563306331 -0.40956082388239
 1  17.23624821042104  1.44032592089209 -1.06777521002100
 1  17.87965265476548  2.55146154205421  1.12420781048105
 1  18.69666192039204  1.02603841334133  1.87747489748975
 1  20.21961829422942  0.74336229722972 -0.32244108790879
 1  19.58443580018002  3.73905217531753 -0.91369327172717
 1  20.92146939063906  2.95371344104410 -1.59100220682068
 1  19.38292326532653  2.39524514621462 -1.78997117861786
 1  21.17325256175618  1.51269273727373  2.03629466606661
 1  21.81884474167417  2.67842787018702  0.57339149624963
 1  20.39997962736274  3.49494269386939  1.69077781568157
 1 -7.05993782688269  1.69194806800680  0.33844569066907
 1 -7.51499304770477 -0.25541571757176  0.06959683208321

