%nproc=3
%Mem=2GB
# td=(NStates=1) B3LYP/SVP 

TD

0 1
 6 -5.08013571167117 -1.95498174027403  0.45084996089609
 6 -4.68620893989399  2.71127757945795  1.36350273617362
 6 -9.28698860856086  3.39407020622062 -0.22921138903890
 6 -9.95568362286229 -1.43879468286829 -0.71922447584758
 7 -5.09612877517752  0.42503412631263  0.86582501950195
 6 -4.41670028612861 -0.78306502750275  0.75519896329633
 6 -2.96689637613761 -0.62759919461946  1.16285128092809
 6 -3.03689865526553  0.81877076937694  1.77294640044004
 6 -4.30469966306631  1.43896371427143  1.20641423842384
 6 -2.95272384088409  0.82017953025303  3.23489135173517
 6 -2.05736780748075 -0.84867482918292  0.00518846444644
 6 -0.52883609580958 -0.81342955955596  0.40701315401540
 6  0.32856651805181 -1.16903377627763 -0.76656821442144
 8  0.11819358695870 -1.63267563416342 -1.84574818631863
 8  1.60304050115011 -0.66075284838484 -0.41536397909791
 7 -6.98492308690869  2.77760503230323  0.39287879707971
 6 -5.89314088948895  3.29140355865587  0.93234409130913
 6 -6.14564775047505  4.78560500000000  0.95222171497150
 6 -7.45260435723572  4.97009584508451  0.47859438683868
 6 -8.00232117801780  3.68304679837984  0.22137229262926
 6 -5.11629214571457  5.76655217031703  1.54087535353535
 6 -8.14638192089209  6.22557656925693  0.35124362566257
 6 -8.94215211341134  6.52304202610261 -0.60270274907491
 7 -9.23424162476248  0.83203043604360 -0.33453592199220
 6 -9.82444630753075  2.06776927562756 -0.42962223142314
 6 -11.24814868136814  1.90045360636064 -0.84107794169417
 6 -11.48557250775077  0.57261460156016 -1.01792674737474
 6 -10.12251447714771 -0.06736668836884 -0.76575981848185
 6 -12.23272177307731  3.01503000460046 -1.06794988528853
 6 -12.56768450795080 -0.18611109060906 -1.54999595929593
 6 -12.60712084278428 -0.39168243264326 -3.09023719501950
 7 -7.56372533013301 -1.25715740094009 -0.06197472597260
 6 -8.72434402190219 -2.04420314711471 -0.56749011141114
 6 -8.23657609660966 -3.43690057225723 -0.53430599789979
 6 -6.83642855195520 -3.36227305560556 -0.19613723762376
 6 -6.49738084148415 -2.11264408300830  0.17220229642964
 6 -9.12782554015402 -4.62113286278628 -0.92101109550955
 6 -5.73023996919692 -4.31082611771177 -0.05710476487649
 8 -5.69708919911991 -5.49386891699170 -0.17047431333133
 6 -4.55337296589659 -3.33629439103910  0.47439650175017
 6 -4.03587738563856 -3.82741683518352  1.81410793649365
 8 -4.30653572707271 -3.44784271817182  2.90084815291529
 8 -3.00084877247725 -4.75659063196320  1.50996142404240
 6 -2.53218792259226 -5.32813225932593  2.80198233783378
 6  2.59353152175218 -0.99532342994299 -1.38996302210221
 6  3.93039628642864 -0.56019652205221 -0.79767186728673
 6  5.03870612721272  0.07960901580158 -1.28827278387839
 6  4.92107130283028  0.91531226292629 -2.56648376517652
 6  6.25689743494349  0.21809954915492 -0.52460137433743
 6  7.59560080048005 -0.38537472037204 -1.06710357725773
 6  8.78488008910891 -0.18845283038304 -0.14884323182318
 6  10.04739566526653 -0.79240356695670 -0.76503385818582
 6  9.94330036863686 -2.30578438133813 -0.86626591149115
 6  11.32478632883288 -0.36213052775278  0.12116156045605
 6  12.64910658485849 -0.71156647384738 -0.54411893499350
 6  13.76955554495450 -0.02147937413741  0.26226828232823
 6  15.22709162096210 -0.18980986248625 -0.33743730163016
 6  15.63704327612761 -1.67120598599860 -0.15503427172717
 6  16.16951769606961  0.68022253955396  0.41061008330833
 6  17.67436232503250  0.74685760346035 -0.12550645204520
 6  18.55930685498550  1.74265859475948  0.69661047724772
 6  20.06676857845784  1.75678348294829  0.22349407690769
 6  20.24867556645664  2.21150772687269 -1.15699377717772
 6  20.86923944524453  2.57205854465447  1.17694948314831
 1 -3.75904356465647  3.49354058605861  1.60765564646465
 1 -9.89098695179518  4.15239248134813 -0.55701702440244
 1 -10.96779103550355 -1.99323647914791 -0.97494696779678
 1 -2.76414874187419 -1.42548178337834  1.79027990369037
 1 -2.12233354785478  1.29237946114611  1.24136704890489
 1 -2.02920317831783  0.17384375277528  3.50228933293329
 1 -2.88617410931093  1.68919396909691  3.64498469366937
 1 -3.66343594049405  0.09058424292429  3.57295247144714
 1 -2.16703221162116 -1.94788952205221 -0.64676912411241
 1 -2.16586992639264 -0.09089289828983 -0.70517721192119
 1 -0.19860568036804  0.16703055665567  0.82269263056306
 1 -0.26132647194719 -1.67677963656366  1.07096460486049
 1 -4.38518333483348  5.99682405050505  0.73438623842384
 1 -5.75133033943394  6.70522543724372  1.71207050165017
 1 -4.77210529732973  5.50699874387439  2.51136527052705
 1 -7.79915492489249  7.06233610811081  1.03578513241324
 1 -9.14614996689669  5.85849601010101 -1.34194578067807
 1 -9.63461820842084  7.43960268776878 -0.50633085598560
 1 -12.43723808580858  3.54131331853185 -0.23838165126513
 1 -11.84427827612761  3.47131108850885 -1.87692700950095
 1 -13.17450847364736  2.56642447814781 -1.38880323572357
 1 -12.81726409960996 -1.17116604330433 -1.21935668676868
 1 -13.42670969546955  0.49928408310831 -1.42856521532153
 1 -12.52543817371737  0.61467828092809 -3.63716106040604
 1 -11.59041400940094 -0.88131570517052 -3.26782573467347
 1 -13.39542629612961 -1.06182527732773 -3.48963650595060
 1 -10.04403095189519 -4.92320163996400 -0.17591989398940
 1 -9.48387236613661 -4.57468541454145 -1.84521141934193
 1 -8.55544071877188 -5.57310557755776 -0.98128608410841
 1 -3.84137598899890 -3.18707499769977 -0.35492684128413
 1 -1.67692808580858 -5.81072616831683  2.51329466356636
 1 -2.16348479487949 -4.57426090999100  3.43774821742174
 1 -3.29265228162816 -6.29466455805581  3.11638851445145
 1  2.61400530803080 -2.13605124862486 -1.58700986798680
 1  2.18751364586459 -0.57811539233923 -2.46573434063406
 1  3.95248802050205 -1.18389070337034  0.15268317131713
 1  4.79698152735273  1.91328383738374 -2.19161388118812
 1  5.80123674087409  0.76973293579358 -3.03697509910991
 1  3.91889200740074  0.48806999379938 -3.02104292939294
 1  6.50390840704070  1.26741286628663 -0.07520771187119
 1  6.10118816351635 -0.40431032063206  0.25771347874787
 1  7.31896868176818 -1.33912063666367 -1.30688144774477
 1  7.70125966846685  0.07528954955496 -2.15970079907991
 1  8.91436692409241  0.90414925622562 -0.10678052975297
 1  8.37250031283128 -0.44985913741374  0.75200801320132
 1  10.20790345894589 -0.33683112641264 -1.75352992799280
 1  9.26571688788879 -2.67920661386139 -1.74348289608961
 1  10.89103413451345 -2.69892149194920 -1.32807341224122
 1  9.50719573967397 -2.62220390599060  0.03390512121212
 1  11.21188648604861  0.77073585368537  0.40878946414642
 1  11.28512447594760 -0.88962419891989  1.05140507070707
 1  12.67813252385239 -1.72441401260126 -0.77174038703870
 1  12.72088024022402 -0.15555563456346 -1.51128266196620
 1  13.51467262216222  0.89404911571157  0.25378828972897
 1  13.51711593859386 -0.45004143194319  1.26133297919792
 1  15.15073741794179  0.13736494259426 -1.37441945524552
 1  14.88810436333633 -2.54322690449045 -0.40978031123112
 1  16.52846672017202 -1.83672770937094 -0.73613939783978
 1  15.81111639043904 -1.85747087968797  0.85658492989299
 1  15.84383465666567  1.75127169746975  0.28076853585359
 1  16.06203085988599  0.54633525682568  1.46787020962096
 1  18.13960518221822 -0.40519472997300 -0.03411327912791
 1  17.56986157175718  0.94856674497450 -1.25239367186719
 1  18.22998768826883  2.87815421132113  0.37950334003400
 1  18.68638089228923  1.44123993349335  1.85394254425443
 1  20.49596592899290  0.74580254125413  0.30671182738274
 1  19.64784214081408  3.27259552965297 -1.31519342174217
 1  21.29925716941694  2.31020909060906 -1.39449255585559
 1  19.72352732573257  1.62024764646465 -2.06719890139014
 1  20.82815805230523  2.06928839683968  2.26391742834283
 1  22.00855371257126  2.46825685308531  0.68172232933293
 1  20.83168279767977  3.55770897049705  1.24410314821482
 1 -7.06980881398140  1.82012088528853  0.30198204430443
 1 -7.59318086648665 -0.12180235623562 -0.05071519911991

