%nproc=3
%Mem=2GB
# td=(NStates=1) B3LYP/SVP 

TD

0 1
 6 -5.19822752085209 -2.03870011211121  0.56723159905991
 6 -4.56610692969297  2.78866531823182  1.33038942484248
 6 -9.16263617331733  3.32151295049505 -0.21843031093109
 6 -9.87350540504050 -1.35322612601260 -0.90812336573657
 7 -5.11745090739074  0.41784340724072  0.85371380838084
 6 -4.54922353845385 -0.86445316631663  0.91517496089609
 6 -3.11445113161316 -0.62535897059706  1.30631562736274
 6 -3.09266423182318  0.78892778507851  1.85212431823182
 6 -4.35316450955095  1.36063588148815  1.34183778077808
 6 -3.09974854335434  0.74021153345335  3.46451431403140
 6 -2.10197226792679 -0.88220818251825  0.17311525712571
 6 -0.57697090929093 -0.90488870547055  0.64060651335134
 6  0.26887054845485 -1.10935780868087 -0.55456701430143
 8 -0.05562379477948 -1.45148751535154 -1.66812042354235
 8  1.50898109520952 -0.91070784388439 -0.13866630933093
 7 -6.88175276987699  2.78000527232723  0.48406791599160
 6 -5.77704928032803  3.38624304260426  0.91415227212721
 6 -5.99185237093709  4.77771421092109  0.99305579837984
 6 -7.35724482128213  4.96948578407841  0.53068959635964
 6 -7.90602154805481  3.70640913461346  0.20070022542254
 6 -5.10650116661666  5.76982249734974  1.39938120412041
 6 -8.04165144784478  6.31655566716672  0.37968646994699
 6 -8.80358825702570  6.64585430733073 -0.67896037483748
 7 -9.10624882548255  0.95851308430843 -0.46349881828183
 6 -9.72469633253325  2.09482198089809 -0.53119238843884
 6 -11.11860572707271  1.95382894389439 -0.89656349024902
 6 -11.25057900840084  0.58455579567957 -1.34776973167317
 6 -10.00031225692569  0.00596064436444 -0.97899114161416
 6 -12.05176367726773  3.11768026962696 -1.13385647594759
 6 -12.52295003450345 -0.08910138963896 -1.87289824952495
 6 -12.63241337203720 -0.19428269266927 -3.42371054235424
 7 -7.59428838643864 -1.29729141434143 -0.02887141564156
 6 -8.66796838433843 -1.99885861266127 -0.49802316471647
 6 -8.23395583458346 -3.38836571877188 -0.72317488478848
 6 -6.93506841594159 -3.47437426572657 -0.27177480138014
 6 -6.59729083248325 -2.10262308090809  0.16574165036504
 6 -9.15903866146615 -4.48072882238224 -1.22009100350035
 6 -5.80157710291029 -4.35030006510651  0.03815476107611
 8 -5.78834832503250 -5.60386991709171 -0.14826209210921
 6 -4.59575720432043 -3.40712147374737  0.49084814691469
 6 -3.99456325422542 -3.96149024252425  1.86426295199520
 8 -4.19455452895289 -3.49083701760176  2.97586565466547
 8 -3.15571425902590 -4.93945891879188  1.65154558245825
 6 -2.60293499729973 -5.53435288138814  2.83604574417442
 6  2.55781795039504 -1.09293319091909 -1.19755378117812
 6  3.82252549934994 -0.76524702710271 -0.54958705880588
 6  4.96354861146115 -0.13809275437544 -1.12302625922592
 6  4.98535773147315  0.47640837253725 -2.45584270107011
 6  6.11393313851385  0.15672341154115 -0.14135304950495
 6  7.37372861326133 -0.48841502440244 -0.79242610951095
 6  8.70644224532453 -0.33814779987999  0.06337799029903
 6  10.10209113481348 -0.72603693029303 -0.69366672147215
 6  10.17294333293329 -2.27948175107511 -0.94039332423242
 6  11.30638448864886 -0.22888720342034  0.02323176747675
 6  12.58917059125913 -0.45145046224622 -0.62345686878688
 6  13.78897748714872  0.04351712551255  0.18196025152515
 6  15.18738765056506 -0.01354223572357 -0.52427598549855
 6  15.61210078187819 -1.49347821322132 -0.70848961726173
 6  16.17668841314131  0.88557307460746  0.28698772107211
 6  17.65671055985599  0.86602952065207 -0.24929883128313
 6  18.48374929922992  1.91748607750775  0.44874569076908
 6  19.94118602020202  1.74043184778478  0.17152888038804
 6  20.27779847874788  2.24927150325032 -1.30406848464846
 6  20.83134565586559  2.68509984878488  1.17022881108111
 1 -3.75758341864186  3.56435766776678  1.69487436833683
 1 -9.92544039713971  4.22518976107611 -0.26028735143514
 1 -10.63798805520552 -1.98419557505751 -1.27342681578158
 1 -2.80018234523452 -1.54400363556356  1.96608748444844
 1 -2.10922223672367  1.19919014221422  1.40049296149615
 1 -2.24285454345435  0.12926929532953  3.98825792979298
 1 -3.05689118101810  1.71335638533853  3.80566076127613
 1 -4.04025362226223  0.06968215271527  3.61651682788279
 1 -2.28889439783978 -1.89447418051805 -0.24308875607561
 1 -2.07483082248225 -0.37003081208121 -0.90795748994899
 1 -0.00010583038304  0.03344719831983  1.03325368666867
 1 -0.32827316661666 -1.62806476507651  1.29644715311531
 1 -4.50270508700870  6.27040140824082  0.39445224502450
 1 -5.67833303970397  6.80145506020602  1.85698499309931
 1 -4.31403949074907  5.35116316031603  2.23157729172917
 1 -7.64635964536454  7.09094896939694  1.14465601950195
 1 -9.13405875777578  5.92436259675968 -1.62185377147715
 1 -9.31694644124412  7.79981870937094 -0.80753097599760
 1 -12.30116447844784  3.61625081228123 -0.27711552465247
 1 -11.95699954825483  3.93719767716772 -1.90938025482548
 1 -13.01849287208721  2.77130496619662 -1.15020937633763
 1 -12.93633600680068 -1.16960588728873 -1.32541729282928
 1 -13.36811383588359  0.63968812351235 -1.42479483828383
 1 -12.27784341424142  0.84186099919992 -3.87803514781478
 1 -11.76820178817882 -0.84188176177618 -3.69231818391839
 1 -13.63879063256326 -0.60334942974297 -3.72339988228823
 1 -10.19278582738274 -4.47864718451845 -0.78832113411341
 1 -9.20900487938794 -4.48061600760076 -2.42867976617662
 1 -8.77441261596160 -5.50020828782878 -0.84316227172717
 1 -3.78138999039904 -3.79774606480648 -0.20756210481048
 1 -1.94501489448945 -6.28699379507951  2.51950528462846
 1 -2.03378182458246 -4.96617010091009  3.34778922152215
 1 -3.39295231163116 -5.76111120272027  3.68162503810381
 1  2.32334624212421 -2.14609225272527 -1.21591275827583
 1  2.25627052155216 -0.71417899869987 -2.14265203240324
 1  3.89803257495750 -1.27003931823182  0.31679958295830
 1  5.17390922012201  1.60200270927093 -2.54490921072107
 1  5.81966858405841 -0.15353939143914 -3.05469687128713
 1  3.99915003320332  0.31976316311631 -3.04286511161116
 1  6.10825884208421  1.26701282628263 -0.13854404550455
 1  5.88271631633163 -0.04513440304030  0.82947065446545
 1  7.20001678657866 -1.54865158975898 -0.96032679227923
 1  7.52547208970897 -0.20594857425743 -1.70080490949095
 1  8.84579006640664  0.78586742804280  0.41830197849785
 1  8.60104316711671 -1.00925507700770  0.86468928132813
 1  10.06913958255826 -0.23529097239724 -1.68518309330933
 1  9.33510382658266 -2.71627032023202 -1.48077662546255
 1  11.11712674377438 -2.62877447724772 -1.64279488438844
 1  10.33869888998900 -2.74666635223522  0.14374610531053
 1  11.08883418081808  0.85173395349535  0.38483706890689
 1  11.23696966046605 -0.93644888138814  1.07691762196220
 1  12.75116982758276 -1.40517208840884 -0.94543775677568
 1  12.62165031723172  0.20727064806481 -1.60791232493249
 1  13.67238839373937  0.97787749854985  0.50406331723172
 1  14.01667589458946 -0.55410183798380  1.00067691359136
 1  15.10115245944594  0.39827103320332 -1.61999401270127
 1  14.82660821372137 -2.00269285108511 -1.31846117931793
 1  16.60574444794479 -1.65492952955296 -1.09503528742874
 1  15.74568984778478 -2.19910504310431  0.25489476087609
 1  15.75845611881188  1.95233180348035  0.06041650065006
 1  16.08808346514651  0.50497112041204  1.44955837843784
 1  18.17652887458746 -0.05735994649465 -0.16290615841584
 1  17.56935152075208  1.08243013131313 -1.32818125062506
 1  18.15529021852185  3.01705810171017  0.33385877557756
 1  18.33190544474447  1.60414622412241  1.60515766576658
 1  20.28111444384438  0.66153411441144  0.32045320152015
 1  19.90159751635164  3.17025529562956 -1.52285418781878
 1  21.29792703640364  2.37758582828283 -1.41970507710771
 1  19.95387036003600  1.43305892759276 -2.07762994449445
 1  20.87508274477448  2.04918638663866  1.99277031363136
 1  21.96501935913592  2.74692471987199  0.65657981508151
 1  20.43251288068807  3.67703090269027  1.28268700660066
 1 -7.19228106120612  1.69896877007701  0.49689153525352
 1 -7.64210575897590 -0.18825900190019  0.12546241864186

