%nproc=3
%Mem=2GB
# td=(NStates=1) B3LYP/SVP 

TD

0 1
 6 -5.15863356145615 -1.91893813591359  0.38435331123112
 6 -4.88158847784779  2.71085753745375  1.42169855575558
 6 -9.35322523222322  3.36611741094109 -0.30845931383138
 6 -9.82779083358336 -1.48352915631563 -0.93610616401640
 7 -5.17810697299730  0.38934055695570  0.84011244824482
 6 -4.50312892899290 -0.80852757375738  0.82526596999700
 6 -3.06611629812981 -0.56376281098110  1.30455545134513
 6 -2.98472343774377  0.91477036933693  1.86218532433243
 6 -4.35958515161516  1.42645246314631  1.33734733173317
 6 -2.80485905440544  1.14457196949695  3.34330219281928
 6 -2.05794786548655 -0.68549851155116  0.18180612621262
 6 -0.63859707190719 -0.87215543214321  0.75351780448045
 6  0.38035169656966 -1.01515838873887 -0.45607716531653
 8 -0.08631686408641 -1.50709307590759 -1.49425303680368
 8  1.59710990809081 -0.67783455655566 -0.08703114581458
 7 -7.17580217481748  2.77282455425543  0.49404891409141
 6 -6.09533110851085  3.37982240054005  1.07018787568757
 6 -6.31875506120612  4.81191763126313  1.05088158095810
 6 -7.60540963776378  5.01053988948895  0.49101562896290
 6 -8.16667761366137  3.74046253995400  0.22832298769877
 6 -5.37157767426743  5.83785930103010  1.59634090009001
 6 -8.28768605130513  6.18298230983098  0.36697519881988
 6 -9.16864476267627  6.55799552145215 -0.65537801660166
 7 -9.22675087568757  0.93994122712271 -0.50554302270227
 6 -9.88717258015802  2.04706720542054 -0.54054332353235
 6 -11.21226509300930  1.79489305030503 -1.04243807770777
 6 -11.29244319481948  0.48010535063506 -1.18170312501250
 6 -10.06132835853585 -0.10239019071907 -0.83267651015102
 6 -12.32511101200120  2.89708821042104 -1.11902499279928
 6 -12.58488622812281 -0.27369984948495 -1.67250821052105
 6 -12.59677980868087 -0.59271253565357 -3.18924709600960
 7 -7.39221817941794 -1.26477816301630 -0.26279480798080
 6 -8.53308489598960 -2.03401212801280 -0.67205056745675
 6 -8.11439387838784 -3.45961284348435 -0.67642020932093
 6 -6.82312722182218 -3.44528135643564 -0.27537516141614
 6 -6.39908101150115 -2.11425424402440  0.06075115131513
 6 -9.03553631123112 -4.52981373087309 -0.94167316171617
 6 -5.73047999319932 -4.30325536063606 -0.00630968536854
 8 -5.60072956315632 -5.52366189628963 -0.01310857675768
 6 -4.47320494909491 -3.40138089968997  0.48540760286029
 6 -3.85435923382338 -3.85237933143314  1.73921044674467
 8 -3.97851292479248 -3.26817475137514  2.79744781288129
 8 -2.95287397499750 -4.81269624252425  1.59949037693769
 6 -2.42499720352035 -5.41621106720672  2.73791593119312
 6  2.63706587518752 -0.99359325692569 -1.04791881768177
 6  3.98852209900990 -0.57900840324032 -0.60399249934994
 6  4.94837709430943  0.23840489538954 -1.12948690529053
 6  4.80333952965297  0.79423015471547 -2.47082419921992
 6  6.24007575277528  0.44076181538154 -0.41997091129113
 6  7.43674491489149 -0.42953913681368 -1.14130099699970
 6  8.69567116821682 -0.10080406550655 -0.31771011851185
 6  9.99815074077408 -0.70785511211121 -0.96593394819482
 6  9.98689472807281 -2.23254705760576 -0.97533681858186
 6  11.29166301650165 -0.12273658835884 -0.24542509820982
 6  12.64072574677468 -0.61102641984198 -0.82318684178418
 6  13.83276186558656 -0.04478170437044  0.07414947044704
 6  15.25543445524552 -0.31741262276228 -0.44047760566057
 6  15.62561213301330 -1.74469333473347 -0.65838460676068
 6  16.30004074837484  0.45008952625262  0.40963998629863
 6  17.72788767756776  0.61944486218622 -0.05738964036404
 6  18.58246917121712  1.53743807270727  0.68196901310131
 6  20.17385928752875  1.53077088168817  0.24572630013001
 6  20.26440713961396  2.27592416851685 -1.04022210001000
 6  20.94956747804781  2.24907624642464  1.42696448464846
 1 -4.18297595789579  3.42308354035403  1.77825270617062
 1 -10.04227208030803  4.09448669076908 -0.48424974767477
 1 -10.65188944534453 -2.22367952345235 -0.86692616571657
 1 -2.75388771577158 -1.32129136433643  2.02154303000300
 1 -2.25138645314531  1.37383760696070  1.36340925312531
 1 -1.87246750475047  0.78212458085809  3.85699480348035
 1 -2.70527601950195  2.18588363806381  3.72968316351635
 1 -3.54448404530453  0.56495167966797  4.05889106530653
 1 -2.45376088448845 -1.53123785688569 -0.57280172737274
 1 -2.04101744114411  0.38960515151515 -0.43843053725373
 1 -0.09434525432543  0.13390724432443  1.04588494979498
 1 -0.48959929922992 -1.71363332193219  1.39297680608061
 1 -4.48771358785879  5.97547191529153  0.83335613541354
 1 -5.67694290069007  6.78626354105411  1.22261155575558
 1 -5.00231831863186  5.72349039303930  2.66247038103810
 1 -7.96941195059506  6.95387526202620  1.04562611651165
 1 -9.31707705960596  5.97348750925092 -1.35385697179718
 1 -9.62957770437044  7.55307403490349 -0.68044826772677
 1 -12.64520888288829  3.41055024222422 -0.17022483558356
 1 -11.86286013431343  3.74425838323832 -1.72651196799680
 1 -13.32215323812381  2.49220705640564 -1.56714106950695
 1 -12.79506187938794 -1.27876680338034 -1.02435718681868
 1 -13.57048407290729  0.33991814651465 -1.46404876367637
 1 -12.12890852075207  0.37374418751875 -3.81660900520052
 1 -11.81568653665366 -1.24465203880388 -3.48747769986999
 1 -13.59108586208621 -0.99655875067507 -3.46140368266827
 1 -9.42841939073907 -4.77211653145315  0.24673237123712
 1 -10.06777075597560 -4.21243918991899 -1.65126202440244
 1 -8.38185336003600 -5.39236750375037 -1.49812776827683
 1 -3.65133698509851 -3.62610890109011 -0.17526887548755
 1 -1.97622801580158 -6.44845994169417  2.48980231433143
 1 -1.76226467286729 -4.61501498539854  3.31329577217722
 1 -3.02573558995900 -5.62268736033603  3.65810268586859
 1  2.56329023652365 -2.03987163066307 -0.97490865786579
 1  2.31978687318732 -0.58720630143014 -2.06427419461946
 1  4.11397416911691 -1.05959827412741  0.50928883188319
 1  5.08879070827083  1.90865337433743 -2.55549026882688
 1  5.33653027022702  0.19638560106011 -3.33667506910691
 1  3.79812993119312  0.81927311411141 -3.15792661776178
 1  6.67525554175417  1.57210333533353 -0.51462165326533
 1  6.14169221392139  0.05072518291829  0.65422312971297
 1  7.16033281818182 -1.54799152375237 -1.18067882748275
 1  7.54879442194219 -0.08797677707771 -2.14170899989999
 1  8.82302779017902  1.04057289858986 -0.22104195589559
 1  9.00081314411441 -0.26590074157416  0.73501631403140
 1  10.08386105470547 -0.38467591089109 -2.03488806380638
 1  9.06306662286229 -2.61357005020502 -1.52690123792379
 1  10.83516854795480 -2.69631123092309 -1.78241884678468
 1  10.06744176427643 -2.65616730233023  0.05744747544755
 1  11.19840513791379  0.98608738883888 -0.50396181098110
 1  11.06205216871687 -0.14626986348635  0.91438136833683
 1  12.67486219681968 -1.74316588778878 -0.91352456545655
 1  12.58093624582458 -0.22235231423142 -1.69206073977398
 1  13.73224437933793  0.98715842664266  0.15498840974097
 1  13.84699892689269 -0.31723815161516  1.07770461636164
 1  15.10309265346535  0.16067727382738 -1.58628064136414
 1  15.00668622152215 -2.19919250105011 -1.43330266346635
 1  16.64760863436344 -1.92647668426843 -1.13236902080208
 1  15.62372765156516 -2.24248938153815  0.36310558195820
 1  16.22994326752675  1.47143371367137  0.65109556855686
 1  16.31598625542554  0.04604522782278  1.30900432303230
 1  18.01338255995599 -0.39423363386339 -0.19072894069407
 1  17.64835942154215  1.05617750605061 -1.20721915441544
 1  18.26574126362636  2.42231862776278  0.51829721942194
 1  18.58328058225823  1.20001581108111  1.79877702770277
 1  20.34374070647065  0.51554951595160  0.19132028822882
 1  19.81226858345835  3.37198546864686 -0.78085998839884
 1  21.40638788248825  2.62984105380538 -1.36972007860786
 1  19.83735870887089  1.72612823452345 -1.83653583508351
 1  20.82785802230223  1.67502897089709  2.41276231283128
 1  21.96560941814181  2.47485751315131  1.31715587268727
 1  20.61619124852485  3.20795399499950  1.59368810671067
 1 -7.12096392949295  1.82013088628863  0.39130097619762
 1 -7.60867241564156 -0.17650782678268 -0.45900602820282

