%nproc=3
%Mem=2GB
# td=(NStates=1) B3LYP/SVP 

TD

0 1
 6 -5.10935863396340 -1.96387262936294  0.53383825972597
 6 -4.90739105810581  2.70987743944394  1.47036342224222
 6 -9.42092200190019  3.25366616581658 -0.17185565346535
 6 -9.77834588908891 -1.47416822022202 -1.07864041744174
 7 -5.15222438473847  0.32692431533153  0.95257369436944
 6 -4.39054767086709 -0.77320404140414  0.87229067246725
 6 -2.97156684318432 -0.49019545424542  1.47750274607461
 6 -3.19028399379938  0.86862575487549  2.12454155995600
 6 -4.35262445554555  1.36427624552455  1.45593919091909
 6 -3.13024159265927  0.93282079437944  3.63183104570457
 6 -1.99913198389839 -0.83048301000100  0.36019396499650
 6 -0.59688290049005 -0.72707092369237  0.77776022872287
 6  0.40591425282528 -0.77722459535954 -0.43261481908191
 8  0.09878164576458 -1.09186155275528 -1.61380499199920
 8  1.64873507060706 -0.56603337643764 -0.12297474017402
 7 -7.23547814241424  2.64279155095510  0.49303881308131
 6 -6.15102667806781  3.24459887818782  1.05087594449445
 6 -6.44706789248925  4.71546798629863  1.15400189298930
 6 -7.68932802960296  4.97376621212121  0.71138766616662
 6 -8.21608255415542  3.58885737943794  0.21912206760676
 6 -5.53114363086309  5.72400791589159  1.73291455745575
 6 -8.39701698439844  6.19263327492749  0.47657615891589
 6 -8.97911580978098  6.58618834073407 -0.65891837063706
 7 -9.15215341594159  0.82286951995199 -0.67054952335234
 6 -9.86460032293229  1.99706220492049 -0.67641691089109
 6 -11.23987785428543  1.77115067606761 -1.15268910281028
 6 -11.33603755425542  0.55772311241124 -1.42047700240024
 6 -10.15761798749875 -0.07864781648165 -1.06897013951395
 6 -12.13571207210721  2.91185968756876 -1.64775786608661
 6 -12.39359709920992 -0.30646312581258 -2.03294425412541
 6 -12.25673580428043 -0.42955622002200 -3.56937510881088
 7 -7.49594855245525 -1.27457914311431 -0.31726025452545
 6 -8.50711229872987 -2.13202192899290 -0.71340470287029
 6 -8.07848028702870 -3.53658054025403 -0.65981854915492
 6 -6.75800070917092 -3.44579140744074 -0.22350997489749
 6 -6.42124322772277 -2.08700151875188  0.01413648984898
 6 -8.78598135573557 -4.69984073357336 -1.00652964736474
 6 -5.65664260946095 -4.27721275637564  0.04779572517252
 8 -5.55125461566157 -5.52894242434243  0.00014274837484
 6 -4.48889651825183 -3.42522328392839  0.47315637773777
 6 -3.97866166406641 -3.79743383688369  1.89982650835084
 8 -4.33917899139914 -3.38019595349535  2.98964703280328
 8 -2.96673536113611 -4.76962193509351  1.79310973887389
 6 -2.57373207700770 -5.41061050715072  3.09228136773677
 6  2.70479264786479 -0.65592949054906 -1.14528855465547
 6  3.88421166796680 -0.27793829622962 -0.49721182128213
 6  4.94085634223422  0.39082013691369 -1.06983093969397
 6  5.00007920362036  1.00449118081808 -2.36337345414541
 6  6.24542628782878  0.51712945214521 -0.27651656585659
 6  7.43415465586559 -0.21431761466147 -0.97160402730273
 6  8.77231883298330  0.11186720162016 -0.27018536603660
 6  9.99625055075508 -0.64133846044604 -0.86683403820382
 6  9.91548758735874 -2.19962376527653 -0.98605789068907
 6  11.22035588578858 -0.25494980968097 -0.02410296599660
 6  12.63462513671367 -0.65668098529853 -0.62840736383638
 6  13.82703129252925 -0.07430465666567  0.11758381388139
 6  15.20483939573957 -0.26401728322832 -0.52732629052905
 6  15.57169674147415 -1.80397926332633 -0.64369313761376
 6  16.26454719901990  0.46115063236324  0.30394941724172
 6  17.60480536933693  0.55282820052005 -0.41103500490049
 6  18.66169709400940  1.30617494639464  0.59523033923392
 6  20.14137603920392  1.41026883148315  0.02620434793479
 6  20.17036773567357  2.04681125722572 -1.41039911771177
 6  21.04568709000900  2.16141748054805  1.01358314651465
 1 -4.09831749204920  3.22839407140714  2.00014489538954
 1 -10.14139199229923  4.00187742984298 -0.23944526722672
 1 -10.55637989438944 -2.27228438393839 -1.40675014811481
 1 -2.97115944294429 -1.44124335953595  2.32109298499850
 1 -2.09478079257926  1.41235145834583  1.87137004920492
 1 -2.01568182618262  0.46791315971597  3.77702680668067
 1 -3.16150164206421  1.72038708840884  4.05407560276028
 1 -3.81512110901090  0.32006719121912  3.94547972417242
 1 -2.26595210361036 -1.93561829492949 -0.07397184438444
 1 -2.12239557895790 -0.20466427542754 -0.45271196539654
 1 -0.34525034483448  0.14993884748475  1.39700006130613
 1 -0.24650498979898 -1.57494945354535  1.43123063146315
 1 -4.56687150365037  5.80967533563356  0.96405920572057
 1 -5.74968017441744  6.78895381008101  1.85245454005400
 1 -5.35164325112511  5.31249929392939  2.76419055305531
 1 -8.21608661806181  7.11992186668667  1.14711626552655
 1 -8.98168352025202  5.94881504200420 -1.49037062316232
 1 -9.50905565216522  7.44873360086009 -0.81619184208421
 1 -12.32268663066307  3.76759594679468 -0.85118293139314
 1 -11.69141298959896  3.55194915231523 -2.46128544534453
 1 -13.18081910471047  2.69168700440044 -1.89573392879288
 1 -12.56854922812281 -1.41615054175418 -1.72748749984998
 1 -13.36954397889789  0.21488564326433 -1.94196655545555
 1 -11.62175780568057  0.56541335443544 -3.98061540584058
 1 -11.64036900490049 -1.06442401600160 -3.82764171627163
 1 -13.37304405790579 -0.34474356915692 -4.25654319661966
 1 -9.40711726052605 -5.03554287408741 -0.22698500050005
 1 -9.38772275117512 -4.45540348634863 -2.04010090829083
 1 -7.90152532723272 -5.43047131413141 -1.20098805430543
 1 -3.58091994339434 -3.60280657085709 -0.25429677827783
 1 -1.82895328832883 -6.04385948164816  2.71009434353435
 1 -2.27706615301530 -4.66983046694669  3.78314275687569
 1 -3.55083810021002 -6.09900499209921  3.25370224582458
 1  2.53095700320032 -1.56574421792179 -1.59370053705370
 1  2.27486238073807 -0.07161474227423 -2.02634040124012
 1  3.85461823352335 -0.37985029932993  0.69958786178618
 1  5.65202703190319  1.86702921192119 -2.44782950275028
 1  5.84380099729973  0.49082504500450 -2.99250065166517
 1  4.04878499669967  1.06365755255525 -2.79082990809081
 1  6.49955797199720  1.74578070307031 -0.37060725182518
 1  6.13904194889489  0.28856896729673  0.83154086148615
 1  7.34486127102710 -1.22256898149815 -0.86556731633163
 1  7.81893143564356 -0.04939291869187 -1.93644847384738
 1  9.01673716111611  1.13261210251025 -0.18812866456646
 1  8.68660172297230 -0.41381553305331  0.76441925432543
 1  10.01430409900990 -0.10693813711371 -1.98656323132313
 1  8.97918823502350 -2.62131082428243 -1.45642419021902
 1  10.88564359545954 -2.68789038883888 -1.53794439933993
 1  10.03140816091609 -2.52425411101110 -0.07587585688569
 1  10.99300459785979  0.97494627472747 -0.05617703250325
 1  11.02657862136214 -0.71219645614561  1.03244317451745
 1  12.43562827342734 -1.77915948714871 -0.68013122612261
 1  12.92923107530753 -0.24605468446845 -1.65021655535554
 1  13.65849700460046  1.01185089588959  0.33769668056806
 1  13.83688791579158 -0.35888231603160  1.15947279317932
 1  15.08991133533353  0.08710991709171 -1.55878789208921
 1  14.72723827672767 -2.40706328812881 -1.11373070627063
 1  16.59400327382738 -2.11014505110511 -1.20051583548355
 1  15.62221750055005 -2.16150128272827  0.41167043844384
 1  15.95857613081308  1.58196476677668  0.61521198019802
 1  16.45643029982998 -0.25392476917692  1.14815823842384
 1  18.09181040274027 -0.32874708520852 -0.82042190999100
 1  17.35442002760276  1.03865575387539 -1.28841727422742
 1  18.46540122962296  2.31852824872487  0.71964735443544
 1  18.76740899509951  0.61181699119912  1.56162331233123
 1  20.49257558995900  0.32840080108011 -0.08614745854585
 1  19.75427278387839  3.05719398949895 -1.48555045744574
 1  21.21685892959296  2.01481955165517 -1.59848295489549
 1  19.47655262826283  1.50497611931193 -2.09548172967297
 1  21.20217545404541  1.78009947794779  2.10833186978698
 1  22.06783964116412  2.30903093049305  0.47840199729973
 1  20.69713934333434  3.24599779937994  1.12352109000900
 1 -7.24563639673967  1.64483335653565  0.53701554765477
 1 -7.39643119151915 -0.29818999499950 -0.43795392299230

