%nproc=3
%Mem=2GB
# td=(NStates=1) B3LYP/SVP 

TD

0 1
 6 -5.03794149224923 -1.86820306240624  0.35883075897590
 6 -4.83977429642964  2.89798625032503  1.21626801270127
 6 -9.38597850755075  3.27471827102710 -0.20288875677568
 6 -9.80981903640364 -1.49655045844584 -0.83368592199220
 7 -5.16392555485549  0.46141776467647  0.78642707970797
 6 -4.39829844594459 -0.67693441444144  0.70084352775278
 6 -3.01350103660366 -0.46311274597460  1.17005200100010
 6 -3.10190515591559  0.99928882118212  1.80741984778478
 6 -4.37378657175717  1.44263408130813  1.20463406040604
 6 -3.10617918641864  1.02394990729073  3.32423028562856
 6 -2.03646571727173 -0.68045800750075  0.11400934653465
 6 -0.50632384458446 -0.42895111171117  0.57276972967297
 6  0.38408206960696 -0.80025689858986 -0.63869542714271
 8  0.06117788538854 -1.35937830443044 -1.71755536703670
 8  1.63564376147615 -0.55899267236724 -0.42103454615462
 7 -7.14280887548755  2.76253352515252  0.35711522072207
 6 -6.04873644904490  3.44625904420442  0.87285814271427
 6 -6.36572975867587  4.78859529902990  1.13015950875088
 6 -7.74530362716272  5.02669150465046  0.58943547094709
 6 -8.20953189908991  3.70292878657866  0.25698585398540
 6 -5.47246776327633  5.83581909700970  1.61973323932393
 6 -8.43149043174317  6.26094010561056  0.31497999929993
 6 -9.22416031423142  6.53622334423442 -0.67770024882488
 7 -9.20742894349435  0.89320655365537 -0.40351281968197
 6 -9.91295515841584  2.00376287498750 -0.56395566476648
 6 -11.30422428892889  1.72506606760676 -0.83226706060606
 6 -11.46420037053705  0.46404374447445 -1.01476643134313
 6 -10.08133035873587 -0.08335828752875 -0.87463070557056
 6 -12.43514201510151  2.86388489008901 -1.05992908320832
 6 -12.55013275277528 -0.47433991349135 -1.45617657735774
 6 -12.66050618131813 -0.75774903930393 -3.01521969326933
 7 -7.41801075867587 -1.31697338253825 -0.20816934543454
 6 -8.51828341584158 -2.07474620142014 -0.54345770817082
 6 -8.15541798079808 -3.47535441764176 -0.64058662596260
 6 -6.77871278037804 -3.48663549184919 -0.23366098999900
 6 -6.37430853425343 -2.05060787938794 -0.00359528332833
 6 -8.95182794039404 -4.53800454995500 -0.95632462686269
 6 -5.68156510171017 -4.27344237933793  0.08882982858286
 8 -5.57602709290929 -5.47321685178518 -0.09024629052905
 6 -4.40410803940394 -3.44441520312031  0.44994405650565
 6 -3.92040583848385 -3.81794588808881  1.80925745144514
 8 -4.04709978347835 -3.21507944184418  2.84394246234623
 8 -3.23699238683868 -5.00046501940194  1.70198062596260
 6 -2.63381808560856 -5.56478592469247  2.85577771737174
 6  2.68799096769677 -0.87788168576858 -1.42422644844484
 6  4.06164941174117 -0.69223972637264 -0.72911501160116
 6  5.02401465806581  0.30533158805881 -1.07837179377938
 6  5.00438963466347  1.00419115081508 -2.45957307410741
 6  6.27763950915091  0.41409914911491 -0.31419033323332
 6  7.40079131953195 -0.34608079097910 -0.86654352125213
 6  8.77734933603360 -0.25866985208521 -0.13352169966997
 6  10.06838776447645 -0.73583791039104 -0.78483583838384
 6  10.03326936553655 -2.28424222712271 -1.13861314621462
 6  11.39892374257426 -0.26491080578058 -0.08935949164917
 6  12.66557823202320 -0.64474979217922 -0.80460498359836
 6  13.84348293769377 -0.08282550875088 -0.03446139063906
 6  15.33335224702470 -0.31730261176118 -0.58915247314731
 6  15.63753332513251 -1.79966883228323 -0.62912168046805
 6  16.29383012731273  0.51416593389339  0.34971399369937
 6  17.69680456925693  0.59288220592059 -0.13720762216222
 6  18.67718864316432  1.51449577847785  0.82171298749875
 6  20.19354125572557  1.53535133973397  0.39921164866487
 6  20.52961366026603  2.00603717981798 -1.00997907570757
 6  20.95406792809281  2.31160249904990  1.50467225542554
 1 -4.11988964926493  3.73482471447145  1.67869275017502
 1 -10.23977183028303  3.98346558865887 -0.23007433013301
 1 -10.68351260766077 -2.08295545104510 -1.17167664076408
 1 -2.80609293629363 -1.19015825102510  1.90144101980198
 1 -2.15194650915092  1.63352357555756  1.69912282448245
 1 -2.22307256525653  0.50435680408041  3.75228433243324
 1 -3.23736922882288  2.10275532523252  3.64849504470447
 1 -4.04689428632863  0.66884206870687  3.54131930813081
 1 -2.04630013841384 -1.49695442854285 -0.36276072327233
 1 -2.13820716011601  0.31230742174218 -0.54803149734973
 1 -0.35498131793179  0.55202905650565  1.06250661196120
 1 -0.48242858215822 -1.19259121772177  1.16766427482748
 1 -4.75546036253625  6.02263663176318  0.69810261006101
 1 -6.01425663206321  6.75472038673867  1.67391668626863
 1 -4.78698678547855  5.62047009100910  2.65476961096110
 1 -8.44474948434843  7.06975685018502  1.13127468136814
 1 -9.35199055095510  5.93424358485848 -1.39513109920992
 1 -9.67075182178218  7.54350307780778 -0.85167539043904
 1 -12.80069443144314  3.31289047624762 -0.09514732783278
 1 -12.11726557485749  3.60054401180118 -1.64701401820182
 1 -13.23213423622362  2.26556439213921 -1.48951330673067
 1 -12.55330770397040 -1.47133606030603 -0.79120387148715
 1 -13.55190221472147 -0.22632847814782 -0.99500185898590
 1 -12.38866449634963  0.08529534263426 -3.59879722402240
 1 -11.80368533653365 -1.49297687128713 -3.23240219231923
 1 -13.57194394789479 -1.19731882668267 -3.29786732903290
 1 -10.26222277107711 -4.10597991779178 -0.88691099309931
 1 -8.85779975887589 -4.84435238123812 -2.25347224542454
 1 -8.57095226992699 -5.51149941694169 -0.43723167866787
 1 -3.53879573097310 -3.57229351955196 -0.21100244884488
 1 -2.08860925392539 -6.67222231793179  2.58801213531353
 1 -1.88786723312331 -5.05230871477148  3.55177962056206
 1 -3.39312232863286 -5.86612170377038  3.51610848644864
 1  2.50674458195820 -1.76453409690969 -1.96809797679768
 1  2.72439733423342 -0.00151773257326 -2.25451321852185
 1  4.16102887458746 -1.20504281858186  0.15993389638964
 1  5.44204603380338  2.06755926492649 -2.51307602740274
 1  5.77008362556256  0.43968993149315 -3.20883228482848
 1  4.12544266246625  0.88787997479748 -2.84510533563356
 1  6.47902591879188  1.47555368036804 -0.19010920202020
 1  6.23981202590259  0.03125323572357  0.74592229962996
 1  7.13462024692469 -1.44226095069507 -0.95941670127013
 1  7.45770531303130 -0.02956093549355 -1.88096292529253
 1  8.91725721312131  0.84027286858686  0.28216836513651
 1  8.82150521332133 -0.67972212371237  0.81591440384038
 1  10.02838550715071 -0.50792823612361 -1.73688826382638
 1  9.14489480568057 -2.43377207040704 -1.66489503730373
 1  10.75563059415942 -2.80685228502850 -2.02998360326033
 1  10.19819483958396 -2.85604729032903 -0.23527179647965
 1  11.20281557895790  0.79437821792179  0.07741632683268
 1  11.49161512501250 -0.61188642514251  0.94870480068007
 1  12.67854256485649 -1.70864243544354 -1.02935614861486
 1  12.90628878107811 -0.25197527652765 -1.84925645934593
 1  13.65161631653165  0.95110482128213  0.09785269616962
 1  13.77493172017202 -0.37319374717472  1.06181302720272
 1  15.21847419161916  0.19183038913891 -1.57102911621162
 1  14.89103465636564 -2.45677825962596 -1.35737507070707
 1  16.69274314781478 -2.18642267886789 -0.79714549844984
 1  15.50403568236824 -2.29050418301830  0.27587685908591
 1  15.81424169736974  1.48703527382738  0.61959241824182
 1  16.07319197599760  0.03900452375238  1.41482490509051
 1  18.06713793549355 -0.42932714321432 -0.25369523732373
 1  17.68438302390239  1.02011389968997 -1.22901133363336
 1  18.35055974547455  2.63701009690969  0.72156754645465
 1  18.38377063126313  1.15984179367937  1.87299444944494
 1  20.28956528892889  0.48152611361136  0.32619377557756
 1  20.44787214381438  3.09035730583058 -1.17662956535654
 1  21.60840808450845  2.02977104680468 -1.03940704730473
 1  20.12508748174817  1.38735435713571 -1.87575975747575
 1  20.97954319081908  1.84091555955596  2.58288932553255
 1  22.03218607580758  2.56986701410141  1.00345450255026
 1  20.49533916331633  3.33592679227923  1.59815855375538
 1 -6.95897773087309  1.85117399059906  0.04463630973097
 1 -7.58303985238524 -0.44479465546555  0.15083495589559

