%nproc=3
%Mem=2GB
# td=(NStates=1) B3LYP/SVP 

TD

0 1
 6 -5.18174587268727 -1.92830907300730  0.40959583548355
 6 -4.68798911791179  2.75361181288129  1.43999038493849
 6 -9.27803771347135  3.30179097829783 -0.25653412131213
 6 -9.86939499399940 -1.36231703510351 -0.81635418881888
 7 -5.08917808010801  0.37124874777478  0.78276671367137
 6 -4.45603421952195 -0.82004872587259  0.71060450385039
 6 -3.05591527802780 -0.60130656535654  1.18060305610561
 6 -3.02795776117612  0.73307219951995  1.77443654945495
 6 -4.31768096119612  1.40585040294029  1.36386998399840
 6 -2.91075964446445  0.74066157845785  3.49344720732073
 6 -2.05968803950395 -0.78629859155916  0.07524547014701
 6 -0.57321053325333 -0.88066628322832  0.60666311901190
 6  0.36522018341834 -1.11556842974297 -0.48085964356436
 8  0.15737750535053 -1.49379174577458 -1.61273488498850
 8  1.61233143024302 -0.82306908000800 -0.13206564926493
 7 -7.04171876647665  2.72181945374537  0.51857136633663
 6 -5.89844141954195  3.30946536483648  1.11868272517252
 6 -6.18965215091509  4.68814525402540  1.17317381018102
 6 -7.49231832863286  4.99961879737974  0.55891241864186
 6 -7.99730067596760  3.66993548724872  0.27766792219222
 6 -5.18441895839584  5.77881339643964  1.53236450245025
 6 -8.13969125182518  6.26950096169617  0.39904840614061
 6 -8.94945284348435  6.61006072797280 -0.61786426522652
 7 -9.19992819341934  0.94547178017802 -0.46756922532253
 6 -9.82773663656366  2.07589008770877 -0.66210547974797
 6 -11.22773664016402  1.97491105210521 -1.14643847774777
 6 -11.38458240874087  0.62024936503650 -1.35577053175318
 6 -10.12690491619162 -0.01038098979898 -0.86694993749375
 6 -12.23365186608661  3.10563906550655 -1.26829992029203
 6 -12.59229696919692 -0.10754323382338 -1.82671363106311
 6 -12.47018714941494 -0.48647191159116 -3.40772894419442
 7 -7.59942890049005 -1.17561924712471 -0.06275480398040
 6 -8.65911749924993 -1.96484521132113 -0.59323268566857
 6 -8.26082852185219 -3.35327220942094 -0.55570813811381
 6 -6.91026593569357 -3.38486531483148 -0.14508213211321
 6 -6.48943004640464 -2.00880369896990  0.06518159435944
 6 -9.14247700530053 -4.50402115161516 -0.96838583298330
 6 -5.74200114531453 -4.23853888898890  0.06731767736774
 8 -5.72607209740974 -5.48591812191219 -0.05279254515452
 6 -4.60408803740374 -3.33480424202420  0.38968803090309
 6 -4.00994479237924 -3.86685077857786  1.70517704340434
 8 -4.30736581008101 -3.42803073697370  2.83925199329933
 8 -3.22978166576658 -4.89399437233723  1.46262669056906
 6 -2.48084278807881 -5.39248869496950  2.60406254585459
 6  2.66578874747475 -1.17726162376238 -1.07061108690869
 6  4.00785403220322 -0.74667516991699 -0.53132523262326
 6  4.93606586318632  0.02814386928693 -0.97434139073907
 6  5.01708090379038  0.60773150485048 -2.39232634943494
 6  6.27756950215021  0.23870160936094 -0.17307622182218
 6  7.56494773517352 -0.41133731663166 -0.78718558545855
 6  8.84201580268027 -0.23476746184618 -0.05994434193419
 6  10.14791571727173 -0.82335666226623 -0.74818217301730
 6  10.12082812141214 -2.31465526842684 -0.92034131903190
 6  11.30252410261026 -0.35620993569357  0.00788023232323
 6  12.67596927112711 -0.84494981218122 -0.56105062816282
 6  13.78170676007601 -0.10265749194919  0.20881293679368
 6  15.24616352815281 -0.19470035153515 -0.31500505840584
 6  15.69590916271627 -1.68108697409741 -0.50951972027203
 6  16.20877162146215  0.63714823212321  0.51461048334833
 6  17.56311119991999  0.77634055175518 -0.06315021642164
 6  18.59364028832883  1.82167649654966  0.49994081028103
 6  20.01813371497150  1.88813661826183 -0.03263153565357
 6  20.04757545644565  2.42548912501250 -1.47361543934393
 6  20.81773429472948  2.78847018581858  0.77669945814581
 1 -3.97613527382738  3.26170740274027  1.77419230013001
 1 -9.80488834193419  4.27904514661466 -0.17292861556156
 1 -10.70360461686169 -1.98419557505751 -1.00624009710971
 1 -2.88375070207021 -1.39309854505451  1.97788866456646
 1 -2.06491780628063  1.37221744494449  1.43914682688269
 1 -2.03520377837784  0.27189355775578  3.79936904090409
 1 -3.03139863176318  1.66859190889089  3.96663685888589
 1 -3.85945554245425  0.22476766126613  3.69669484568457
 1 -2.16798230663066 -1.86324105720572 -0.60413486068607
 1 -2.24405774517452 -0.11863567256726 -0.62507920212021
 1 -0.38195401520152  0.13586744034403  1.29374973627363
 1 -0.57936827612761 -1.70773273187319  1.11677918631863
 1 -4.50114493099310  6.02409677777778  0.67402020182018
 1 -5.73851905830583  6.65893080778078  2.06878617321732
 1 -4.67196528332833  5.22359040304030  2.40840497449745
 1 -7.88930393979398  7.02814268876888  1.20440199409941
 1 -9.11798715061506  5.93870403090309 -1.47026861296130
 1 -9.40092483908391  7.64826355385539 -0.80049027192719
 1 -12.04656901890189  3.71608079527953 -0.29174698779878
 1 -12.23962781108111  3.52576653405341 -2.27509682648265
 1 -13.13918494129413  2.58446628232823 -1.39258361376138
 1 -12.73774614781478 -1.03366229292929 -1.19703445454545
 1 -13.56045306980698  0.45862001670167 -1.69469182798280
 1 -12.51002663256325  0.53356016911691 -3.96971431573157
 1 -11.39911487948795 -1.09587716131613 -3.57965691779178
 1 -13.08460521402140 -1.23121221602160 -3.77885542784278
 1 -9.79751630043004 -4.72566188598860 -0.12393469546955
 1 -9.52095607450745 -4.53217116311631 -2.07339423762376
 1 -8.32832800750075 -5.28427669466947 -0.88456641214121
 1 -3.64088593999400 -3.51252754295430 -0.23483483208321
 1 -1.99662005500550 -6.44353944964496  2.29377271137114
 1 -1.50886933333333 -4.58343182708271  2.75040948354835
 1 -3.14203722012201 -5.46909200080008  3.46615349094909
 1  2.72632654015402 -2.29999764326433 -1.31885305230523
 1  2.58550344484448 -0.69816739753975 -2.05430319751975
 1  4.20393316501650 -1.02654496879688  0.59350725372537
 1  5.89263109230923  1.59278178717872 -2.66134085388539
 1  5.35668228542854 -0.30328436593659 -3.06159756135614
 1  3.83487360556056  1.04015520232023 -2.53417424252425
 1  6.29008702490249  1.31186731173117  0.02799260816082
 1  6.08260630533053 -0.34545443504350  0.84266197359736
 1  7.02246903180318 -1.33420014461446 -1.09831059065907
 1  7.69882942544255  0.24867688828883 -1.77944277327733
 1  8.81117660506050  0.81702054335434  0.07364751305131
 1  8.49639270207021 -0.66534068556856  0.87603041544154
 1  10.22876554515452 -0.32566000930093 -1.69238381338134
 1  8.97243755995600 -2.67155584878488 -1.41074962276228
 1  11.22034706580658 -2.80797239703970 -1.14643524842484
 1  9.82744776487649 -2.79989167476748  0.03830556125613
 1  11.26913221062106  0.79726850695070 -0.00341175597560
 1  11.16611257475748 -0.72096733323332  0.96549647984798
 1  12.70438514911491 -1.83992556375638 -0.52202541554155
 1  12.59881803400340 -0.39805988498850 -1.52445397909791
 1  13.38837999289929  1.02102181298130  0.26198910981098
 1  13.78532275927593 -0.14629105690569  1.26763360926093
 1  15.27858020222022  0.06745795189519 -1.29895190849085
 1  14.97667322022202 -2.23297587938794 -1.09891922512251
 1  16.52806668016802 -1.77302133873387 -1.14079986388639
 1  15.75436071487149 -2.41380651325133  0.51549082048205
 1  15.71364163736374  1.61100767106711  0.41390184918492
 1  16.51579623642364  0.32728335163516  1.60199362196220
 1  17.97040826252625 -0.31552576307631 -0.23847371517152
 1  17.62968755435543  0.96890877917792 -1.36413484598460
 1  18.03120781028103  2.75417181308131  0.55784117381738
 1  18.69420167436744  1.39281509100910  1.53210036003600
 1  20.43782011441144  0.89271723272327 -0.15830467426743
 1  19.48276563316332  3.28602687278728 -1.62548445084508
 1  21.24926216991699  2.42453052275228 -1.80328343494349
 1  19.50456542954295  1.68481410311031 -2.18606078757876
 1  20.81461669816982  2.47745921392139  1.80268130473047
 1  21.89501235843585  2.64666469386939  0.57925208230823
 1  20.47539716911691  3.71273447304731  0.69649838773877
 1 -7.15867770087009  1.76006487968797  0.21167301340134
 1 -7.61226277467747 -0.11468164416442  0.16697657005701

