%nproc=3
%Mem=2GB
# td=(NStates=1) B3LYP/SVP 

TD

0 1
 6 -5.14259195729573 -1.90152639473947  0.34895977187719
 6 -4.64737505650565  2.74689114081408  1.41572795869587
 6 -9.16950686038604  3.28969976917692 -0.15939440734073
 6 -9.86243429792979 -1.41490229362936 -0.84958751215122
 7 -5.19135829812981  0.49265088798880  0.84655309230923
 6 -4.57351596769677 -0.73540026102610  0.74910835423542
 6 -3.07295698219822 -0.64471090579058  1.29658465426543
 6 -3.04274924032403  0.88613750605061  1.91479058485849
 6 -4.35682487558756  1.43872369026903  1.44870846784678
 6 -3.08567713621362  0.99558707100710  3.50560842344234
 6 -1.97876994769477 -0.72576253795380  0.22423036863686
 6 -0.54690790299030 -0.82638085468547  0.65704815751575
 6  0.36423008440844 -1.17500437333733 -0.46898845644564
 8  0.10149191679168 -1.66023839043904 -1.55352896439644
 8  1.69417961506151 -0.74378115121512 -0.02533497619762
 7 -6.93487808240824  2.74240151195119  0.46773628282828
 6 -5.85382695809581  3.42473689198920  1.00974183108311
 6 -6.24201738743874  4.85057149664966  1.09106559935994
 6 -7.57213631043104  4.96747558305831  0.59637616501650
 6 -7.97498844474447  3.68872736643664  0.20341049644964
 6 -5.17459797629763  5.80704621972197  1.51010227622762
 6 -8.20454773747375  6.16297030863086  0.41448995029503
 6 -9.01363926212621  6.71510123202320 -0.58930140894089
 7 -9.17193539413941  0.93393062606261 -0.57088955735574
 6 -9.85742960586059  2.04423692239224 -0.60399966916692
 6 -11.20834470097010  1.95530909190919 -1.00491432533253
 6 -11.37727167766777  0.57250459055906 -1.21380633533353
 6 -10.10444266996700 -0.12242219391939 -0.91561480398040
 6 -12.33083158405841  2.92613111471147 -1.10303339363936
 6 -12.65635337483748 -0.14461694119412 -1.66085704540454
 6 -12.77822795349535 -0.47734099849985 -3.14168233953395
 7 -7.47265622322232 -1.26829851505151 -0.24638316681668
 6 -8.66416800430043 -2.03213193999400 -0.61550491289129
 6 -8.26867930693069 -3.27268415061506 -0.73150571787179
 6 -6.90350525962596 -3.43228005630563 -0.29206683058306
 6 -6.50343144654465 -2.07249006760676 -0.11284620842084
 6 -9.12499525712571 -4.46514726422642 -0.89009800420042
 6 -5.70881782698270 -4.24944998009801 -0.05898495289529
 8 -5.61731122132213 -5.42659218931893 -0.15125239113911
 6 -4.52657028562856 -3.30418117971797  0.37643670577058
 6 -3.86292008990899 -3.75084917841784  1.71102762846285
 8 -4.28096316981698 -3.43808174207421  2.77292536063606
 8 -2.96925561316132 -4.70333530643064  1.33064349224922
 6 -2.23022772657266 -5.32231167726773  2.47274941454145
 6  2.59211137973797 -1.08447234483448 -1.11975600140014
 6  3.97898114491449 -0.78229873227323 -0.51557365746575
 6  4.96851910851085 -0.06434537963796 -1.09417337393739
 6  4.87465666136614  0.29117984968497 -2.64259137593759
 6  6.31088283348335  0.12128986818682 -0.33700261446145
 6  7.52706394679468 -0.59111529442944 -1.01905877277728
 6  8.76359796089609 -0.27702168726873 -0.06029437693769
 6  10.10174109980998 -0.85843016961696 -0.77327468226823
 6  10.02974901350135 -2.37926172907291 -0.84299358425843
 6  11.29907375757576 -0.40695501020102  0.10923036733673
 6  12.55063673787379 -0.71533685088509 -0.51891641474147
 6  13.84792338173818 -0.02683991019102  0.22734478997900
 6  15.25361427322732 -0.19481036253625 -0.32940649854985
 6  15.61424099589959 -1.72840170557056 -0.36009477777778
 6  16.23318406270627  0.68130264756476  0.39877890019002
 6  17.70026491529153  0.75975889358936 -0.16705060646065
 6  18.55545646994699  1.83379770867087  0.58041885808581
 6  19.97594949654965  1.87112491709171  0.10046177367737
 6  20.07484818371837  2.33620019611961 -1.39977805560556
 6  20.77442996429643  2.81155249404940  0.98943073127313
 1 -3.81738939923992  3.27617884988499  1.93568844974497
 1 -10.06298415151515  4.05780302240224  0.03795247254726
 1 -10.63721797819782 -2.04179133463346 -1.37285675877588
 1 -2.93516584358436 -1.44152338753875  2.03466434213421
 1 -2.16535785028503  1.31539176237624  1.42453536573657
 1 -1.99854011201120  0.71302767116712  4.01711081508151
 1 -3.09217470937094  2.00308535823582  3.90492068726873
 1 -4.06256585348535  0.49643482798280  3.87525270147015
 1 -2.38851435983598 -1.66749148224822 -0.55075952315232
 1 -2.16021936133613 -0.00428423742374 -0.57714440864086
 1 -0.40216603640364  0.17262111571157  1.03218357965797
 1 -0.53187352665267 -1.70387234583458  1.38502601100110
 1 -4.47013182968297  5.91366573467347  0.70492329212921
 1 -5.54380958735874  6.75405031973197  1.64220351495150
 1 -4.80278836563656  5.40429847384738  2.48922305630563
 1 -7.99503451285128  6.90098997349735  1.44711626552655
 1 -9.14257960986099  6.19349951045105 -1.43646523262326
 1 -9.57683242984298  7.56173490099010 -0.50467068996900
 1 -12.72464682668267  3.55487467466747 -0.14347216031603
 1 -12.01862571087109  3.94073803120312 -1.66151546834683
 1 -13.29257027982798  2.54881271697170 -1.70802515791579
 1 -12.81003337653765 -0.98325725242524 -0.93202795389539
 1 -13.58487551205121  0.41369552425243 -1.49351170997100
 1 -12.59452508240824  0.32787960106011 -3.79111645594559
 1 -11.99801476947695 -1.29729730333033 -3.41875082718272
 1 -13.95063181668167 -1.04095319011901 -3.35305284758476
 1 -9.93690023882388 -4.57552687248725 -0.28787108910891
 1 -9.72396637553755 -4.56430437643764 -1.87054395259526
 1 -8.43267844254425 -5.50473874087409 -0.64364231973197
 1 -3.67553940534053 -3.61544783498350 -0.50927227582758
 1 -1.75406579957996 -6.05821091679168  2.01620495459546
 1 -1.70368881528153 -4.47705118901890  2.94896933953395
 1 -2.88780179657966 -5.62127721932193  3.27633450905091
 1  2.48440234773477 -2.28554619811981 -1.33576474347435
 1  2.53269816431643 -0.53298087888789 -1.97194496169617
 1  3.96751952365236 -0.67024933923392  0.60829873287329
 1  5.67461929112911  1.20207271627163 -2.79197391719172
 1  5.56857347454746 -0.56368040554055 -3.06820822242224
 1  4.12194231243124  0.23604479127913 -3.36394721982198
 1  6.61884990119012  1.07333345834583 -0.60792098319832
 1  6.19651769646965  0.13529363976398  0.72862056945695
 1  7.38560534543454 -1.61969869446945 -0.95147590719072
 1  7.67821736423642 -0.03156113551355 -1.97048187718772
 1  8.78015350275027  0.84713355465547 -0.06847669936994
 1  8.79334239703970 -0.55348950045005  1.03555636803680
 1  10.16674934353435 -0.66546398969897 -1.96156073107311
 1  9.10454077027703 -2.80138883208321 -1.38401694949495
 1  11.10939597069707 -2.58717031683168 -1.50028063296330
 1  9.96970199029903 -2.73301498709871  0.31256298699870
 1  11.29331462886289  0.70065884598460  0.18476706190619
 1  11.34390035353535 -0.87850308680868  1.16615654585459
 1  12.77411212181218 -1.98772034323432 -0.33205641864186
 1  12.68770692289229 -0.49684976397640 -1.63556509020902
 1  13.61929308420842  1.17877758855886  0.16714962586259
 1  13.81465569256926 -0.28217464526453  1.35424227012701
 1  15.34480682488249  0.15240644674467 -1.32548456175618
 1  14.80435598849885 -2.49138171997200 -0.90260959415942
 1  16.45963983748375 -1.95083912051205 -1.06551233513351
 1  15.62784806360636 -2.21427656025603  0.65898516991699
 1  15.87054732793279  1.65608217851785  0.48963942294229
 1  16.15000965776578  0.45147577087709  1.53316673927393
 1  18.29129035073507 -0.23105731623162 -0.41073094089409
 1  17.63540812641264  1.11902379067907 -1.09312774527453
 1  17.97244193369337  2.91447784368437  0.57122251195119
 1  18.40643289748975  1.37285309480948  1.56919406940694
 1  20.40542687508751  0.94774273527353  0.22245340154015
 1  19.52522987958796  3.20082835293529 -1.58530043244324
 1  21.31121836553655  2.35697376707671 -1.63287639423942
 1  19.42852782578258  1.65857147884789 -2.11624380588059
 1  20.62237747424743  2.27587905590559  1.86857789438944
 1  21.83448630583058  2.65798582598260  0.85121927902790
 1  20.59068869826983  3.89560275987599  0.96625536343634
 1 -6.98394022712271  1.71334020722072  0.38050989708971
 1 -7.49944149254925 -0.25754593059306 -0.16831695929593

