%nproc=3
%Mem=2GB
# td=(NStates=1) B3LYP/SVP 

TD

0 1
 6 -5.06298399649965 -1.86401264336434  0.39717459335934
 6 -4.81853217221722  2.76077252895290  1.35742212811281
 6 -9.36324623432343  3.36269706890689 -0.28022649054905
 6 -9.86758481298130 -1.60472127552755 -0.82829538293829
 7 -5.34867402970297  0.47683930683068  0.79148758575858
 6 -4.43160177627763 -0.62303902490249  0.74928837223722
 6 -3.00707039353935 -0.53157959265927  1.15978097389739
 6 -3.04473943934393  0.93999289158916  1.64006311211121
 6 -4.55002419551955  1.45093491139114  1.28697229422942
 6 -2.93339190769077  1.10228774107411  3.20846870947095
 6 -2.02771484218422 -0.68378834053405  0.01744969056906
 6 -0.47414062626263 -0.59571778837884  0.41894434713471
 6  0.45467912931293 -0.98179505240524 -0.78168972657266
 8  0.10586235383538 -1.68039040564056 -1.70258386988699
 8  1.64959515661566 -0.44848162126213 -0.47545998869887
 7 -7.09944453905391  2.76651392319232  0.33392290149015
 6 -6.02044361976198  3.36692111041104  0.98195905280528
 6 -6.40878406410641  4.77933437293729  1.11482797559756
 6 -7.73849294609461  4.98049688518852  0.53159968736874
 6 -8.08726967286729  3.70270876457646  0.16800695609561
 6 -5.53991450795079  5.80979649474948  1.72732399839984
 6 -8.43660094279428  6.23213722532253  0.48716721802180
 6 -9.20268816701670  6.66910663256326 -0.51015349414942
 7 -9.24401260186018  0.76624385738574 -0.48934140254025
 6 -9.87609147204721  2.03890638933893 -0.50562983218322
 6 -11.41086495299530  1.71265482648265 -0.91987582148215
 6 -11.52262621312131  0.40489782988299 -1.09459441414141
 6 -10.16115834153415 -0.13974392609261 -0.81020426292629
 6 -12.37370587148715  2.81470997259726 -0.96163925422542
 6 -12.64215195469547 -0.50237271677168 -1.49700065976598
 6 -12.73287341804181 -0.56821008540854 -3.08655682698270
 7 -7.52063102070207 -1.29036072127213 -0.18682721122112
 6 -8.59848143564357 -2.08264699149915 -0.57748111051105
 6 -8.12457489648965 -3.47471435363536 -0.63555612291229
 6 -6.84474938403840 -3.35068189648965 -0.22887051095109
 6 -6.39258036143614 -1.96763958255826  0.03400847704770
 6 -9.04348710631063 -4.63768451795180 -0.75428442284228
 6 -5.59307625282528 -4.19916495159516  0.06686763236324
 8 -5.50614010421042 -5.37648717881788  0.05381811591159
 6 -4.36370399899990 -3.12122288388839  0.35460452255226
 6 -3.82589638753875 -3.70573466696670  1.70727725342534
 8 -4.06167124062406 -3.16871480538054  2.81537960606061
 8 -2.98970765836584 -4.70410538343834  1.48308873677368
 6 -2.54922962676268 -5.43036248234823  2.61802394199420
 6  2.62568473707371 -0.86697059465947 -1.36662068786879
 6  3.95843909070907 -0.57488799119912 -0.71368346844684
 6  5.04251650825083  0.06717777267727 -1.18500245684568
 6  5.08428762446245  0.77562829452945 -2.53614073087309
 6  6.28109985518552  0.24793253245325 -0.38238715291529
 6  7.58456969736974 -0.48242442534253 -1.00086695359536
 6  8.84806640774077 -0.26824080918092 -0.02581092859286
 6  10.14357528322832 -0.86398072467247 -0.67629498429843
 6  10.01725776437644 -2.36332013491349 -0.91160044494449
 6  11.33005685588559 -0.43631794649465  0.16020546484648
 6  12.74115578977898 -0.61554687188719 -0.46191071417142
 6  13.87730632003200 -0.15662288848885  0.36056811231123
 6  15.27349626142614 -0.25033591509151 -0.38281183908391
 6  15.69563913571357 -1.56648551395140 -0.67521628992899
 6  16.24262500680068  0.57983250055006  0.40245926822682
 6  17.65488037683768  0.67180009770977 -0.17987188858886
 6  18.63353427772777  1.52442677157716  0.65967678387839
 6  20.05612751435143  1.62917072167217  0.23715544304430
 6  20.36420711961196  2.16151272737274 -1.15993407120712
 6  20.98858137943795  2.20625196399640  1.21793358155816
 1 -4.10470813111311  3.54695592759276  1.75354023492349
 1 -10.21160901400140  4.19455669776978 -0.13146446914692
 1 -10.64459871627163 -2.41840899639964 -1.10633010611061
 1 -2.73103543054305 -1.22423165836584  2.10411128682868
 1 -2.15165648014801  1.74194441764176  1.24158707090709
 1 -2.14370462846285  0.58054442284228  3.48060716471647
 1 -3.09160465236524  2.10932598229823  3.52894308950895
 1 -3.69288888578858  0.41345653015302  3.65416059225923
 1 -2.10405591399140 -1.71341607470747 -0.51157560476048
 1 -2.04291763116312  0.13909010001000 -0.56719341354135
 1 -0.14107992779278  0.42539639323932  0.83681404270427
 1 -0.05024536383638 -1.48764072267227  1.16593410181018
 1 -4.47595241174117  5.76426079417942  1.44368716851685
 1 -5.91082628902890  6.84820973567357  1.59472876747675
 1 -5.32780086688669  5.72301034503450  2.93796793079308
 1 -8.31253626302630  6.78795867036704  1.46334788868887
 1 -9.23531888378838  6.18155831633163 -1.42616420252025
 1 -9.80136488308831  7.56783551105111 -0.36669689258926
 1 -12.49348371037104  3.62161134833483 -0.18779659275928
 1 -12.28134198249825  3.51419537693769 -1.99828914571457
 1 -13.37758878167817  2.30323815951595 -1.21505586098610
 1 -12.70938331153115 -1.53513243994399 -0.94311906300630
 1 -13.51920894539454  0.07936209090909 -1.16037839663966
 1 -12.78820445034503  0.53705051815182 -3.52771011531153
 1 -11.84943991199120 -1.02807038063806 -3.58409736183618
 1 -13.59851660516052 -0.97809690449045 -3.59593713601360
 1 -9.77728427722772 -4.59441876167617  0.11503920192019
 1 -9.56281025992599 -4.50594854085409 -1.72520941914191
 1 -8.46705187988799 -5.80272853985399 -0.85279323482348
 1 -3.53863571497150 -3.32886917711771 -0.32251359996000
 1 -2.01976236923692 -6.27225232093209  2.33414674877488
 1 -1.83408185458546 -4.92815629952995  3.36127056965697
 1 -3.23587660406041 -5.69567465906591  3.32623949954995
 1  2.70634454195420 -2.00156780028003 -1.65842700970097
 1  2.35344023852385 -0.18881646244624 -2.11186895409541
 1  4.22628540024002 -1.11936425072507  0.20077798079808
 1  5.27429925912591  1.87424993399340 -2.25532025182518
 1  6.00596721392139  0.45547150965097 -3.05812721432143
 1  4.34073419161916  0.76297748454845 -3.16474729982998
 1  6.78366638283828  1.27323344834483 -0.23306349744975
 1  5.90645869056906 -0.26876676627663  0.55253296069607
 1  7.29001578647865 -1.46857358195820 -1.19400015961596
 1  7.79145868836884 -0.11461944134413 -1.90204503350335
 1  8.81828731613161  0.83869271057106  0.02896304460446
 1  8.75840890369037 -0.68228237973797  0.87998081048105
 1  9.95156782538254 -0.50590803410341 -1.65360993599360
 1  9.05953626982698 -2.90722941614161 -1.24586313411341
 1  10.83764879597960 -2.76799839963997 -1.59042964786479
 1  10.11096611671167 -2.76711839743974  0.18484021472147
 1  11.27399269666967  0.69774855495550  0.47081566676668
 1  11.23568953245325 -0.89321455795580  1.11639156935694
 1  12.57668237883788 -1.74308587978798 -0.69252246524652
 1  12.69744789698970 -0.16053613261326 -1.63502503620362
 1  13.76381753665367  1.00115982678268  0.66358926982698
 1  14.04552877987799 -0.57781420922092  1.31579842574257
 1  14.77340968516852  0.33593479957996 -1.35643765706571
 1  15.07389294219422 -2.21412399419942 -1.36376570977098
 1  16.77609148264827 -1.43498753535354 -0.98090387428743
 1  15.77111239003900 -2.32040717331733  0.20267953935394
 1  15.87699797299730  1.67420399069907  0.59103956295630
 1  16.34291894869487  0.15350597389739  1.50951437403740
 1  18.18541976367637 -0.25687989848985 -0.27557742554255
 1  17.58671325692569  1.13089497779778 -1.22786121862186
 1  18.26553124262426  2.52538893479348  0.59398478817882
 1  18.70854310851085  1.35446125562556  1.93171032103210
 1  20.32880921332133  0.40394835583558 -0.02108095189519
 1  19.74443179977998  3.02983125322532 -1.25168707110711
 1  21.50889813351335  2.52072014171417 -1.25368847544754
 1  19.81992696569657  1.46926254795480 -1.98424060556056
 1  20.74876011251125  2.01386285428543  2.35627666426643
 1  22.09081193839384  1.96225625302530  1.16930108720872
 1  20.89333896329633  3.30189338893889  1.19246798469847
 1 -7.12336416951695  1.70010888408841  0.25347719381938
 1 -7.49404095249525 -0.24302447844784 -0.16869699729973

