%nproc=3
%Mem=2GB
# td=(NStates=1) B3LYP/SVP 

TD

0 1
 6 -5.08214591269127 -1.99416565866587  0.53686856275628
 6 -4.66697701670167  2.77455390709071  1.35985237113711
 6 -9.26864677437744  3.34352515171517 -0.15589405730573
 6 -9.77105516001600 -1.50682148554856 -0.86474902830283
 7 -5.12236139843984  0.41686330923092  0.82143058005801
 6 -4.54353296939694 -0.79705642664266  0.90494393779378
 6 -3.07144683118312 -0.57361379607961  1.37259225502550
 6 -3.02724769016902  0.86724561686169  1.97451655745575
 6 -4.37751694479448  1.40884070197020  1.36720031703170
 6 -3.05019358785879  0.83014052635264  3.46720458305831
 6 -2.12372444314431 -0.78754871657166  0.15990393599360
 6 -0.58309152135214 -0.77686590319032  0.55471792449245
 6  0.37420108150815 -1.05140201310131 -0.55622718031803
 8  0.06428819641964 -1.56189855645565 -1.57000061156116
 8  1.60045024212421 -0.56915368846885 -0.30201264396440
 7 -6.97748234283428  2.76883415521552  0.43916342554255
 6 -5.82130370577058  3.41474589288929  1.01060191709171
 6 -6.22792597829783  4.86113255275528  1.02005849864986
 6 -7.46126522332233  4.90183901940194  0.51753828122812
 6 -7.94722566846685  3.59666816051605  0.18185834123412
 6 -5.19650016651665  5.88473398849885  1.33350461646165
 6 -8.16791407410741  6.23585759735974  0.15801430273027
 6 -8.85106300450045  6.50585030693069 -0.90539301810181
 7 -9.13796199679968  0.84111134413441 -0.42900536893689
 6 -9.76309017191719  2.01980447914791 -0.60327959715972
 6 -11.12882674917492  1.85256881788179 -1.10602443634363
 6 -11.28520247074707  0.46557389748975 -1.15856081078108
 6 -10.01833405910591 -0.12030198189819 -0.90482372487249
 6 -12.09064756565657  2.99041754335434 -1.31064415471547
 6 -12.48053579307931 -0.16455893539354 -1.68266922662266
 6 -12.63599373007301 -0.35037830223022 -3.25787395869587
 7 -7.45386434403440 -1.27938962416242 -0.21783031153115
 6 -8.61572315981598 -2.07168589538954 -0.57894125652565
 6 -8.26371881088109 -3.43602048424842 -0.61823439073907
 6 -6.87803271237124 -3.47377420572057 -0.17958558245825
 6 -6.49077018041804 -2.11193401200120  0.16080115631563
 6 -9.14072683028303 -4.64684543404340 -0.80077907230723
 6 -5.72439938513851 -4.33024805990599 -0.00001905630563
 8 -5.68254774497450 -5.50313984408441  0.02844557865787
 6 -4.51829945854585 -3.41446220782078  0.44556361846185
 6 -3.85693949184919 -3.92777687118712  1.73198972467247
 8 -4.12873794729473 -3.47337527142714  2.84347241534153
 8 -3.00163885148515 -4.90751572447245  1.51063149104910
 6 -2.61990669446945 -5.61690113621362  2.63466560616062
 6  2.67127929652965 -0.89052294989499 -1.16112013781378
 6  3.98926217301730 -0.62207270967097 -0.59886198629863
 6  4.92667492409241  0.26792784768477 -0.94495845244524
 6  4.74499369506951  1.27477820952095 -2.04963208000800
 6  6.24144588978898  0.35033277247725 -0.04902381658166
 6  7.31130237063706 -0.19077526042604 -1.01278814571457
 6  8.68299990109011 -0.02470645574557 -0.17041538903890
 6  9.91649257495750 -0.62243657025703 -0.72725007980798
 6  9.79044508310831 -2.14858866176618 -1.03735302020202
 6  11.17460131033103 -0.20808512321232  0.00777022132213
 6  12.52054372857286 -0.55255057225723 -0.59208373147315
 6  13.70260885028503 -0.11763899009901  0.18868092359236
 6  15.16325523732373 -0.30143102460246 -0.58692225012501
 6  15.64403397519752 -1.81806067146715 -0.65536430473047
 6  16.24301504580458  0.41177569486949  0.27047606990699
 6  17.64224911371137  0.63514643234323 -0.26946084748475
 6  18.66561748604860  1.48632296119612  0.53254407060706
 6  20.03522542414241  1.66474427902790  0.08011973947395
 6  20.20240093899390  2.67443401950195 -1.25802388018802
 6  21.08674119541954  2.10549188798880  1.29362115031503
 1 -3.92149981028103  3.52570380238024  1.68797367826783
 1 -10.08364621772177  3.96598384048405 -0.24626594929493
 1 -10.69146340274027 -2.05006216171617 -1.11905137823782
 1 -2.80886321332133 -1.34098333353335  2.19253012871287
 1 -2.21371268576858  1.36521674487449  1.69370228242824
 1 -2.18170842884288  0.41995836423642  3.62569167316732
 1 -3.10080557245725  1.84285933563356  3.92547274247425
 1 -3.81258085498550  0.19021420592059  4.12876805300530
 1 -2.24469997839784 -1.80899563266327 -0.46025047224722
 1 -2.36322966236624 -0.03622743174317 -0.58347504170417
 1 -0.23364918471847  0.17059091269127  1.15926628792879
 1 -0.32431277057706 -1.52501446004600  1.19125663406341
 1 -4.38681349784978  5.96743111121112  0.36475927572757
 1 -5.46853205960596  6.93322823752375  1.24178347294729
 1 -4.62399048584858  5.69686773077308  2.23687782178218
 1 -8.12954796419642  6.96174604910491  0.99224077797780
 1 -9.21478683058306  5.95605576607661 -1.92146373247325
 1 -9.20720546714671  7.52010073757376 -0.82655287818782
 1 -12.33888825082508  3.81822100930093 -0.32229004210421
 1 -11.80421426972697  3.63784774217422 -2.11120043684368
 1 -13.22761378417842  2.45698353405340 -1.64631898729873
 1 -12.55865823902390 -1.24782370907091 -1.43657840894089
 1 -13.43669069356936  0.22454660936094 -1.48881123992399
 1 -12.43573920382038  0.63609042214221 -3.70856820112011
 1 -11.71938690669067 -0.84403197679768 -3.68076702880288
 1 -13.47622437593759 -0.96426552135214 -3.36627416971697
 1 -10.18955550435044 -4.25639495929593 -0.13476577857786
 1 -9.27570154905490 -5.15874382038204 -2.03171006920692
 1 -8.56186136083608 -5.56948521552155 -0.16313426892689
 1 -3.73557540894089 -3.62314860506051 -0.33393474207421
 1 -1.85319571257126 -6.27997309300930  2.20194352845285
 1 -2.05743418981898 -4.99894337823782  3.38393283588359
 1 -3.33233625002500 -6.04155924752475  3.08750562616262
 1  2.67905181268127 -2.06633427692769 -1.74797596459646
 1  2.56244113861386 -0.41282886368637 -2.20369813701370
 1  4.15786855855586 -1.19157147144714  0.28428633163316
 1  5.40050187938794  2.31756426542654 -1.99184390419042
 1  5.33620023722372  1.13719968246825 -2.94394579617962
 1  3.71406152435243  1.51505269206921 -2.49384020912091
 1  6.38793680988099  1.41298742374237  0.25822563146315
 1  5.78642668736874 -0.21754164376438  0.75618332573257
 1  6.93860064496450 -1.20553727832783 -1.40222098169817
 1  7.34778432093209  0.53959598019802 -1.90495532453245
 1  8.81544703210321  0.92132097339734  0.19843999229923
 1  8.44915797859786 -0.60583473497350  0.70414322672267
 1  9.91317398599860  0.07701025772577 -1.72273684868487
 1  8.82961327752775 -2.51634032723272 -1.53253180098010
 1  10.52325735683568 -2.71313291309131 -1.73935454035404
 1  9.75210023012301 -2.79522120772077 -0.03486175547555
 1  11.31258655605561  0.85956473657366  0.01012959815982
 1  11.06488245174518 -0.46231146764676  1.05026495669567
 1  12.73506821742174 -1.57179875107511 -0.66973018601860
 1  12.46370452265227 -0.24231431043104 -1.60469200290029
 1  13.69335048994899  0.91038074887489  0.61211412231223
 1  13.86976120312031 -0.63693012081208  1.13542038793879
 1  15.09043138733873  0.27097830393039 -1.46759877317732
 1  14.64977052995299 -2.59592217401740 -0.91252058525853
 1  16.46547042054205 -1.88822285888589 -1.23004878877888
 1  16.04048932773277 -2.02950808340834  0.38374764616462
 1  15.81807208040804  1.39533610391039  0.35690614961496
 1  16.11852650945094  0.14386500980098  1.43154657725773
 1  18.07887910961096 -0.38476268676868 -0.14892476027603
 1  17.63177776337634  0.92675456375638 -1.28768720122012
 1  17.81748643814381  2.34047044294429  0.58509389908991
 1  18.70165241944195  1.25936174567457  1.70298744874488
 1  20.23443977637764  0.62709067006701 -0.30063890769077
 1  19.72405976257626  3.58190646074608 -1.11558346074608
 1  21.15427267096710  2.64363243294329 -1.51189429602960
 1  19.66182115511551  2.07155277697770 -2.15607778927893
 1  20.94951018751875  1.31538300630063  2.17360839743974
 1  22.13455631283128  2.38035806320632  0.95194935203520
 1  20.65559518891889  3.20206340594059  1.76824556245625
 1 -7.08519035213521  1.60149902310231  0.60533237933793
 1 -7.62678422682268 -0.31686186218622 -0.22218234583458

