%nproc=3
%Mem=2GB
# td=(NStates=1) B3LYP/SVP 

TD

0 1
 6 -5.10582828092809 -2.03098934103410  0.55716059195920
 6 -4.69090940994099  2.77231368306831  1.28040442634263
 6 -9.34444435413541  3.29046984618462 -0.23530199809981
 6 -9.92324037853785 -1.58229903330333 -0.78980153355336
 7 -5.13262242454245  0.41597322022202  0.62085052205221
 6 -4.42657127322732 -0.83006972797280  0.77019046244624
 6 -3.05874556105611 -0.59530596529653  1.36081107690769
 6 -3.08899386478648  0.91119001130113  1.80249935573557
 6 -4.33708290139014  1.43694351225123  1.16492008900890
 6 -3.10743931243124  0.94426193849385  3.39014687728773
 6 -2.11304337503750 -0.75431539323932  0.09728767436744
 6 -0.55566877907791 -0.58672688928893  0.50859331203120
 6  0.39946360776078 -0.84544141704170 -0.56866842444244
 8 -0.03511174357436 -1.06489885648565 -1.78823243474347
 8  1.66191638873887 -0.62985975907591 -0.30140258295830
 7 -6.99358395299530  2.70378765056506  0.44948445764576
 6 -5.83299487488749  3.41174559285929  0.95173603050305
 6 -6.17871105680568  4.80866730623062  0.90323681648165
 6 -7.48089718651865  5.00052888838884  0.42707923532353
 6 -8.02366331223122  3.70766926062606  0.21597175257526
 6 -5.12198271477148  5.82792830793079  1.22918418441844
 6 -8.14627190989099  6.32278629022902  0.22451095239524
 6 -9.10090798899890  6.58907862976298 -0.66567904670467
 7 -9.18811701230123  0.80516774977498 -0.45067753615362
 6 -9.86545040794079  2.02709520822082 -0.48932820202020
 6 -11.32924679117912  1.81017457845785 -0.91606544044404
 6 -11.51095504600460  0.48683602370237 -0.99855481018102
 6 -10.15694792049205 -0.14661461316132 -0.73797704020402
 6 -12.37350585148515  2.98796729832983 -0.96785987628763
 6 -12.74470220972097 -0.44303678317832 -1.37701866156616
 6 -12.98188831953195 -0.51822508690869 -2.96268443974397
 7 -7.50623958155816 -1.28504018921892 -0.18310683918392
 6 -8.71260284778478 -2.06204493129313 -0.61556491889189
 6 -8.16705914491449 -3.42637952015202 -0.63526609390939
 6 -6.80806571567157 -3.44296112441244 -0.24934255815582
 6 -6.44265536893689 -2.09327214581458  0.08974405060506
 6 -8.93217597519752 -4.66910766026603 -1.04878387278728
 6 -5.58732567776778 -4.27950298539854 -0.01232028642864
 8 -5.55463495369537 -5.50829035913591 -0.10943820972097
 6 -4.47718534713471 -3.32955371697170  0.54307336943694
 6 -3.95847964586459 -3.93980807430743  1.78217474317432
 8 -4.39052412591259 -3.58784671857186  2.88729679777978
 8 -2.94466315391539 -4.80580555345535  1.64325475337534
 6 -2.41050575437544 -5.41026047214721  2.87434957455746
 6  2.68968113671367 -0.98312220982098 -1.30647467326733
 6  3.95255850265026 -0.70288079047905 -0.63353545364536
 6  4.95552780938094  0.11076213111311 -1.12745670227023
 6  4.91800099579958  0.78536926862686 -2.57825494229423
 6  6.14409615481548  0.32704044324432 -0.34744365856586
 6  7.48603984438444 -0.17530371327133 -1.02708957585759
 6  8.79726132723272 -0.16816080118012 -0.17459580708071
 6  10.11283220892089 -0.55700002660266 -0.92910026482648
 6  10.09942598119812 -2.11031483438344 -1.37551683658366
 6  11.32371622182218 -0.12067638233823 -0.03152370807081
 6  12.63188486268627 -0.44054937213721 -0.58631315441544
 6  13.77496608600860  0.06387916171617  0.22258431393139
 6  15.17291620342034 -0.20352123362336 -0.35861941984198
 6  15.55703527532753 -1.63781264666467 -0.59467823612361
 6  16.22805354965497  0.47192170947095  0.49527855015502
 6  17.65294018281828  0.70738365606561 -0.06641054245425
 6  18.64637556185619  1.45151948084808  0.80250106630663
 6  20.07747964956496  1.44061186578658  0.30482220972097
 6  20.34662536143614  2.09752632873287 -1.11945002280228
 6  21.00720324162416  2.08151949074907  1.38883067126713
 1 -3.76193385368537  3.46077730973097  1.46558143904390
 1 -9.99527738083808  4.12858010011001 -0.20796211891189
 1 -10.78515277167717 -2.09171632713271 -1.16162563566357
 1 -2.76313864086409 -1.27538677387739  2.14249512521252
 1 -2.12209352385239  1.39999022222222  1.40024293649365
 1 -2.04939519751975  0.66893326172617  3.79000810481048
 1 -3.22426791869187  1.98055310501050  3.66584677987799
 1 -4.00563015991599  0.32955814031403  3.72858803500350
 1 -2.12375788418842 -1.90938567166717 -0.36799124632463
 1 -2.37481082048205 -0.14526833583358 -0.60842753695369
 1 -0.45027084688469  0.40332418601860  1.08700906220622
 1 -0.31612195149515 -1.51538349694969  1.38845635403540
 1 -4.43326814331433  6.26814118221822  0.17097989778978
 1 -5.63590879727973  6.65315022972297  1.68861815641564
 1 -4.56543463026303  5.53155119911991  2.04674880888089
 1 -7.88375338473847  6.93958383288329  0.89211076497650
 1 -9.40922627452745  5.75006516701670 -1.46628821492149
 1 -9.42666741334133  7.63200192769277 -0.72700292319232
 1 -12.55434979697970  3.40703989118912 -0.09803761686169
 1 -12.17881172947295  3.69448340574057 -1.74382369916992
 1 -13.42071309410941  2.61679951565156 -1.26708106350635
 1 -12.74919729292929 -1.30106903360336 -0.86258100920092
 1 -13.40350737523752  0.22537669236924 -0.93741610041004
 1 -13.34475010491049  0.55735254835484 -3.34296164046405
 1 -11.97122209020902 -0.72988056165616 -3.49303825592559
 1 -13.71957871137114 -1.26519561436144 -3.27433497579758
 1 -9.68423497229723 -4.96679599939994 -0.42273457545755
 1 -9.38284226312631 -4.47686563256326 -1.97513441164116
 1 -8.32095727042704 -5.58583685068507 -0.97103505900590
 1 -3.66416826822682 -3.35863215341534 -0.34558590719072
 1 -1.53374376737674 -5.97799289498950  2.37692102620262
 1 -2.09986843324332 -4.62629611351135  3.63773821642164
 1 -3.26013903030303 -6.06973206480648  3.31157803340334
 1  2.61267517501750 -1.98446609010901 -1.51405257225723
 1  2.53575847034704 -0.39990757155716 -2.38110587778778
 1  4.33923669536954 -1.36180849514951  0.26835473847385
 1  5.31932376157616  1.73067557655766 -2.33887860766077
 1  5.91468808600860  0.16483244574457 -3.20173157475748
 1  4.00955107330733  0.61789297609761 -3.07302812791279
 1  6.23620163636364  1.39480560556056 -0.08900909200920
 1  6.06616466116612 -0.39100899049905  0.64230193759376
 1  7.30699748464846 -1.10226695129513 -1.38137889748975
 1  7.54132367486749  0.52461448204821 -1.84733956295630
 1  8.96636212361236  0.82617145844584  0.48170831913191
 1  8.93780684348435 -1.07189134063406  0.66305911831183
 1  10.27078974757476  0.10121267796780 -1.87130170517052
 1  9.03722403860386 -2.30776947014701 -2.01749029682968
 1  11.08191322242224 -2.18252985278528 -1.91605221012101
 1  10.30937595769577 -2.77690937653765 -0.41348961826183
 1  11.12973827122712  1.04840362046205  0.38817740294029
 1  11.28850481398140 -0.89595483198320  0.86205613581358
 1  12.72375708630863 -1.59568113931393 -0.58451166416642
 1  12.74998315051505 -0.22534261326133 -1.74201573527353
 1  13.59344049894989  1.08079779057906  0.49151206210621
 1  13.84015824282428 -0.19510593839384  1.36868371427143
 1  15.28006035023502  0.24943614971497 -1.34070608390839
 1  14.89564511741174 -2.09721230303030 -1.47562689588959
 1  16.49083295679568 -1.73446748334834 -0.72186797069707
 1  15.45892117091709 -2.20503563616362  0.37103637503750
 1  15.79696997019702  1.52306887718772  0.86567702670267
 1  16.20910556735674  0.08451907520752  1.62944636723672
 1  18.13877509920992 -0.17147135763576 -0.45754562236224
 1  17.58088267386739  1.37700958925893 -1.00542897539754
 1  18.38291298079808  2.55514191009101  0.69218460816082
 1  18.53934618881888  1.10024583408341  1.89994714471447
 1  20.46731306370637  0.28054601560156  0.28683984018402
 1  20.06545390199020  3.01831010111011 -0.98635053745375
 1  21.30958820252025  1.96277434713471 -1.57466057265727
 1  19.78139311231123  1.55867148884889 -1.83266544804480
 1  21.03190842734274  1.64672614061406  2.43506454305431
 1  22.20774363156316  1.96681670907091  1.06420057715772
 1  20.73923355275528  3.22783598319832  1.80025876377638
 1 -7.33553538663866  1.69218809200920  0.76199804590459
 1 -7.60332188058806 -0.30494067006701  0.06674654705471

