%nproc=3
%Mem=2GB
# td=(NStates=1) B3LYP/SVP 

TD

0 1
 6 -5.16394409250925 -1.93566980908091  0.35857073297330
 6 -4.72183250225023  2.78322477417742  1.27036342224222
 6 -9.30387029672967  3.33081388058806 -0.17639610751075
 6 -9.95577363186319 -1.46502730613061 -0.86671922532253
 7 -5.18398756105611  0.42335395829583  0.72208064506451
 6 -4.50185880198020 -0.74234095509551  0.75785922932293
 6 -3.09640932743274 -0.56240267496750  1.21374637043704
 6 -3.07983294869487  0.93012190449045  1.68948805460546
 6 -4.43759295239524  1.33052287018702  1.20965456245625
 6 -2.96267483598360  0.98599611191119  3.22819068166817
 6 -2.10666273697370 -0.84679464116412  0.00326827242724
 6 -0.63403661586159 -0.75768398499850  0.53213566626663
 6  0.39672333373337 -1.08198507140714 -0.59102065966597
 8  0.05290705830583 -1.69572193879388 -1.72299591109111
 8  1.57618781588159 -0.60619739283928 -0.30517295999600
 7 -7.02429702430243  2.83249052085208  0.36750625982598
 6 -5.93010458585859  3.40192461076108  0.88246910381038
 6 -6.17173035873587  4.85549198869887  1.06697319011901
 6 -7.48366746354635  4.98958779427943  0.62116864426443
 6 -8.03146409230923  3.73455194889489  0.26531668706871
 6 -5.23123363986399  5.94780029512951  1.54086535253525
 6 -8.26706398909891  6.21466547814781  0.48273677497750
 6 -9.03252115031503  6.56475619751975 -0.62314479327933
 7 -9.16901510211021  0.85814304730473 -0.57329979837984
 6 -9.83376723962396  2.02346484518452 -0.40414968416842
 6 -11.23671753825383  1.92088564956496 -0.85199903380338
 6 -11.44961891239124  0.52999033913391 -1.06866182088209
 6 -10.10847307300730 -0.08342829452945 -0.87456069856986
 6 -12.25673417431743  2.98167666926693 -0.86506959725973
 6 -12.61501924142414 -0.21784426392639 -1.48365932563256
 6 -12.83220335103510 -0.33694695909591 -2.99023719501950
 7 -7.57412637023702 -1.27347903310331 -0.28357688618862
 6 -8.74683627112711 -2.06804553135314 -0.54525788818882
 6 -8.29171161016102 -3.43168005020502 -0.58371093839384
 6 -6.97398230733073 -3.47161398969897 -0.17111473537354
 6 -6.53077418081808 -2.09235205380538  0.04495957215722
 6 -9.09927268486849 -4.79143989348935 -0.93520251465147
 6 -5.72615956115612 -4.25727076217622  0.04218516411641
 8 -5.61169065926593 -5.44003353345335 -0.03564082998300
 6 -4.61941957055706 -3.28437919951995  0.32139120122012
 6 -3.82060585848585 -3.76221031453145  1.59299582528253
 8 -4.00195526902690 -3.35342327622762  2.69805787388739
 8 -2.93121180878088 -4.74442941584158  1.25005543344334
 6 -2.22814751855186 -5.33077252335234  2.33984612421242
 6  2.65211738033803 -0.90562446004600 -1.17255128092809
 6  3.99923317011701 -0.78464896729673 -0.54158625872587
 6  4.95497775437544 -0.03581252635264 -1.09633358995900
 6  5.02414160986099  0.43789452115211 -2.59865698249825
 6  6.29265101030103  0.11220896009601 -0.37386630083008
 6  7.54092533293329 -0.58765494839484 -0.98142500940094
 6  8.82119372047205 -0.34403838893889 -0.08493684118412
 6  10.13569449514952 -0.84907923452345 -0.52791014581458
 6  10.21898793739374 -2.28246204910491 -0.66316560146015
 6  11.33082693289329 -0.26878119281928  0.27148659295930
 6  12.62677435163516 -0.39958527572757 -0.36861138423842
 6  13.79343793319332  0.09221199499950  0.48228028352835
 6  15.16119503130313 -0.21348222972297 -0.27096065396540
 6  15.52694226602660 -1.67222608800880 -0.21123989228923
 6  16.27291803610361  0.75099961726173  0.46495551785179
 6  17.60098498729873  0.82614553225323 -0.15418932033203
 6  18.64335525982598  1.69541387028703  0.49248006420642
 6  20.08284018561856  1.73268107270727  0.01981370887089
 6  20.14699539843985  2.04228080418042 -1.46712479027903
 6  20.93753627492750  2.53936527532753  0.87834962316232
 1 -4.23248090839084  3.52185341734173  1.67301218211821
 1 -10.01072892599260  4.22094933703370 -0.33844516721672
 1 -10.68764302070207 -2.25141229672967 -1.04166363946395
 1 -2.82601492849285 -1.36838607380738  2.04672554825483
 1 -2.12284359885989  1.40702092529253  1.28148106030603
 1 -1.99780003800380  0.69120548894889  3.47820692469247
 1 -2.96403189508951  1.97322237193719  3.46335653085309
 1 -3.76440603750375  0.30660584508451  3.91236641284128
 1 -2.34088959735974 -1.94873960706071 -0.32872731993199
 1 -2.17885122452245 -0.09512332133213 -0.84255094929493
 1 -0.42993881368137  0.04842869646965  0.99101946324632
 1 -0.59031937123712 -1.71529348794879  1.25465297369737
 1 -4.07809262576258  5.89587395549555  1.05062786258626
 1 -5.77448265466547  6.95088000270027  1.72063135773577
 1 -4.96917500430043  5.55710375437544  2.52529666366637
 1 -8.30371538093809  7.06152602710271  1.49016056995700
 1 -8.94225957785779  5.67306746724672 -1.39288087418742
 1 -9.58430317691769  7.62372109960996 -0.98624884778478
 1 -12.34901926392639  3.50397958515852  0.12720490739074
 1 -11.90631447974797  3.67152110951095 -1.69820913771377
 1 -13.36538756155615  2.67555539123912 -1.26081043644364
 1 -12.66314868806881 -1.33015194189419 -1.12246699779978
 1 -13.53681070557056  0.25696985168517 -1.00656301510151
 1 -13.09050468036804  0.68273508660866 -3.58452579687969
 1 -12.05770073807381 -0.72629020262026 -3.31513046514651
 1 -13.75749250275027 -1.16078517331733 -3.25946348864886
 1 -10.02975952475248 -4.95248456825683 -0.46086838883888
 1 -9.24221820072007 -4.72575052105210 -2.04396129432943
 1 -8.50052522722272 -5.61518978597860 -0.66328428392839
 1 -3.90050190159016 -3.23483977417742 -0.40597194579458
 1 -1.44103449644965 -6.06038113381338  1.86172950705071
 1 -1.61135958235824 -4.65932941684168  2.84433887648765
 1 -2.90738375477548 -5.81799689128913  3.08354523012301
 1  2.35151905940594 -2.06999464296430 -1.45871703870387
 1  2.50539543404340 -0.34369194999500 -2.01428919611961
 1  4.07797056875688 -1.12481479577958  0.47466536953695
 1  5.24041587078708  1.59522203120312 -2.62641736153615
 1  6.04165078227823  0.12185814831483 -3.10552195379538
 1  3.95625574377438  0.32943413021302 -3.10161098619862
 1  6.46180419661966  1.08065419041904 -0.20193038413841
 1  6.14457250195020 -0.43095298489849  0.70538824622462
 1  7.56862364726473 -1.53787051165117 -1.34534529412941
 1  7.91032057455746 -0.14680265966597 -1.89751458045805
 1  8.86547203460346  0.94390323162316  0.02865301360136
 1  8.58162122492249 -0.45532968446845  0.97463027542754
 1  10.11826449504951 -0.26932437573757 -1.42032660766077
 1  9.43712402860286 -2.69061775497550 -1.33091163896390
 1  11.14932996409641 -2.61805340514051 -1.04983558845885
 1  10.05969098919892 -2.89722140774077  0.26264799549955
 1  11.11522682008201  0.87709648974897  0.56333491869187
 1  11.18419438293829 -0.57321255775578  1.19086901710171
 1  12.83987869846985 -1.67886945814581 -0.41177439043904
 1  12.66822497469747  0.10621054205420 -1.29439097279728
 1  13.70281143604360  1.21654136493649  0.66448935983598
 1  13.88425265226522 -0.51226765456546  1.50151699759976
 1  15.03835617981798  0.09750095619562 -1.18833084638464
 1  14.91989754265427 -2.41865444724472 -0.69976931013101
 1  16.44154802830283 -1.75212924952495 -0.62981876577658
 1  15.45275055385538 -2.02696782938294  0.86895616701670
 1  15.85590586378638  1.80736730703070  0.37636809580958
 1  16.59179383618362  0.27220784408441  1.58080150275027
 1  18.08548977067707 -0.22299651015101 -0.26520638843884
 1  17.31624621022102  1.14929681798180 -1.14066249874988
 1  18.57285197469747  2.76297269316932  0.59267465716572
 1  18.67136939113912  1.18519432893289  1.79897704770477
 1  20.39579591199120  0.72858081908191 -0.03913275707571
 1  19.60805816241624  3.13415168526853 -1.53077497989799
 1  21.06916416011601  1.84449251895189 -1.63997710431043
 1  19.82219719271927  1.20205582728273 -2.20728290979098
 1  20.95670090659066  2.29594106210621  1.83356439303930
 1  22.12178503570357  2.45603563096310  0.82438659575958
 1  20.62490211961196  3.65739893949395  0.82708144604460
 1 -7.06752858595860  1.73312218541854  0.46282812891289
 1 -7.64009555795579 -0.23592376837684 -0.16483661126113

