%nproc=3
%Mem=2GB
# td=(NStates=1) B3LYP/SVP 

TD

0 1
 6 -5.15356305440544 -1.95529177127713  0.49649452535254
 6 -4.69314963396340  2.64312076377638  1.41483786968697
 6 -9.22711262096210  3.30778157735774 -0.26447491539154
 6 -9.75887394189419 -1.43076387978798 -1.01778433183318
 7 -5.11536069836984  0.43441506440644  0.82734117111711
 6 -4.55454407050705 -0.77272399339934  0.89701314471447
 6 -3.12590227672767 -0.62375881058106  1.42244724052405
 6 -3.07050201560156  0.86665555785579  1.92485159095910
 6 -4.33115230833083  1.34769458735874  1.36045964296430
 6 -2.99716828532853  0.91337885018502  3.46103396599660
 6 -2.03915598629863 -0.97715767746775  0.30038798439844
 6 -0.56386959915992 -0.73296151275128  0.62651510421042
 6  0.31875553695370 -1.07938481138114 -0.47114867246725
 8  0.03113488108811 -1.31186355295530 -1.57474108560856
 8  1.62007220432043 -0.73455022812281 -0.13103554625463
 7 -6.96030062466247  2.74969224102410  0.39840935013501
 6 -5.91258283368337  3.33212763106311  0.93202405930593
 6 -6.19331251695170  4.71011745124513  1.20076656945695
 6 -7.39072816961696  5.00155899139914  0.56961348874887
 6 -7.97400834673467  3.65674416811681  0.23997415281528
 6 -5.21031154765477  5.67671318641864  1.78491975797580
 6 -8.18223550625062  6.31327533913391  0.38250675197520
 6 -8.88996689488949  6.54070379227923 -0.57437991679168
 7 -9.14754295489549  0.90939817281728 -0.62526499489949
 6 -9.78850271317132  2.03421592029203 -0.62153142234223
 6 -11.15981984848485  1.88266182718272 -1.13363719761976
 6 -11.25553950445044  0.57318465856586 -1.38151310601060
 6 -10.03981620732073  0.00310035833583 -1.02945618811881
 6 -12.15770427132713  3.00456895849585 -1.25416850715072
 6 -12.39554729422942 -0.11071355085509 -1.96048700840084
 6 -12.44693482418242 -0.46666993139314 -3.44008217951795
 7 -7.44669362696270 -1.28148983418342 -0.29306783528353
 6 -8.56066765426543 -2.05477420422042 -0.67539090149015
 6 -8.12819525852585 -3.45867274947495 -0.65110767806781
 6 -6.85893080218022 -3.45894272257226 -0.12665028892889
 6 -6.41067217061706 -2.10160297889789  0.05800087628763
 6 -8.93629638723872 -4.67072782228223 -0.96911590599060
 6 -5.73030997619762 -4.27772280738074  0.17591853745375
 8 -5.67215670587059 -5.56282581268127  0.00896363046305
 6 -4.58377600620062 -3.32936369796980  0.53103216531653
 6 -3.96859065696570 -3.86155024852485  1.83713023872387
 8 -4.10200527402740 -3.45841377527753  3.01288935703570
 8 -3.14260294789479 -4.90952592549255  1.55709613751375
 6 -2.68874357815782 -5.49313875997600  2.80685282488249
 6  2.60894306290629 -0.96394029162916 -1.15399942574257
 6  3.89186243304330 -0.51595209760976 -0.56484858495850
 6  4.88405066166617  0.17337839273927 -1.16847080368037
 6  4.76101529722972  0.95244597629763 -2.36007312411241
 6  6.23825557075708  0.30480822002200 -0.40505942014201
 6  7.49702094249425 -0.43534971787179 -1.08727559445945
 6  8.68726032713271  0.02276829172917 -0.27917626512651
 6  10.02703362906291 -0.73934826142614 -0.88909626442644
 6  9.97098313691369 -2.29768357125713 -0.85456474137414
 6  11.22799664986499 -0.10613492819282  0.04913435773577
 6  12.58266994119412 -0.42365768296830 -0.48398292139214
 6  13.73380196959696  0.05125789958996  0.23906596209621
 6  15.08762767456746 -0.19074995649565 -0.39084264216422
 6  15.48184775657566 -1.69038790419042 -0.46560532883288
 6  16.17446819111911  0.47689220652065  0.43857287958796
 6  17.54171906070607  0.71046396409641 -0.29826372777278
 6  18.54540546484649  1.57872220112011  0.55378619481948
 6  19.92890479207921  1.62353015761576 -0.01743001550155
 6  19.97838853775378  2.25502207830783 -1.34597267506751
 6  20.95332785408541  2.30611194999500  0.97270905910591
 1 -3.86092375267527  3.26934816681668  1.87154203510351
 1 -9.90369822292229  4.13216045814581 -0.03770509320932
 1 -10.69626388278828 -2.24753190869087 -1.32772224532453
 1 -2.98590091709171 -1.12821205640564  2.47610848654866
 1 -2.18125944044404  1.23860408360836  1.30240315251525
 1 -1.97725798379838  0.47092346074607  3.61997110111011
 1 -2.94464995689569  1.88280333003300  3.79811000620062
 1 -3.84463406030603  0.34212939743974  3.73265844204420
 1 -2.11922743114311 -1.96214094719472 -0.14871931913191
 1 -2.19275261466146 -0.33597740674067 -0.52229892409241
 1 -0.45290110991099  0.12571642524252  0.88012837413741
 1 -0.24866520582058 -1.34216617521752  1.59284679307931
 1 -4.16828164466447  5.87010137823782  1.33294609440944
 1 -5.53547875427543  6.62890780548055  1.69988928352835
 1 -5.13650173697370  5.50386843084308  3.00428456245625
 1 -7.84412942234223  7.03532340684068  1.25039659355936
 1 -8.92396774867487  5.86681684218422 -1.47753934003400
 1 -9.27250199679968  7.54856358385839 -0.85235545844585
 1 -12.49666402840284  3.58761794899490 -0.37025483858386
 1 -11.52552640094009  3.67625158255826 -2.11133044984498
 1 -13.17686870967097  2.67490532623262 -1.61954631003100
 1 -12.57204957815782 -0.97367629432943 -1.57252200330033
 1 -13.44328135263526  0.41458561326133 -1.66331869066907
 1 -12.29091472137214  0.57712452555255 -3.97834517881788
 1 -11.41156612461246 -1.04732230583058 -3.79497844994499
 1 -13.30371712521252 -1.11557065186519 -3.73270081238124
 1 -9.87179372817282 -4.50545986578658 -0.27498980098010
 1 -9.25931991089109 -4.79332727872787 -2.12649954815482
 1 -8.32262743744374 -5.45261352835284 -0.83024097959796
 1 -3.67668952035204 -3.45287157735774 -0.49411075967597
 1 -2.11171156415642 -6.38111320702070  2.54127746184618
 1 -2.23951239763976 -4.72491597549755  3.56304074667467
 1 -3.46838985538554 -5.92061715331533  3.42148902450245
 1  2.83504741224122 -2.04208185168517 -1.14592575957596
 1  2.67072196669667 -0.26415399619962 -2.19709747694769
 1  4.40098286998700 -1.12876519081908  0.38351625462546
 1  4.95417724692469  2.04354686368637 -2.15587030683068
 1  5.48316493369337  0.53765972847285 -3.09478087968797
 1  3.60770088828883  0.63074426122612 -2.87821864696470
 1  6.17888590479048  1.48637476247625 -0.47065725682568
 1  6.07117516221622  0.04432454285429  0.57687539493949
 1  7.21976876177618 -1.49441616621662 -1.02309306890689
 1  7.53627316981698 -0.16947492689269 -2.14906973597360
 1  9.16520200760076  1.18273711501150 -0.09021887358736
 1  8.50523358615862 -0.37515166666667  0.72830564296430
 1  10.11943461206121 -0.29368681198120 -1.98134270927093
 1  8.99395971217122 -2.40147884108411 -1.33159170697070
 1  10.83445847694769 -2.67436903670367 -1.30163076797680
 1  9.72913793389339 -2.61016270187019  0.19231096179618
 1  11.11048634603461  0.91070985108511 -0.04625604040404
 1  11.04746070957096 -0.44676991349135  0.91141107130713
 1  12.66202091269127 -1.56032760396040 -0.68371158415842
 1  12.69296744894489  0.05925584658466 -1.38570010371037
 1  13.73939509440944  1.27235694649465  0.34108701960196
 1  13.70001422842284 -0.26543297109711  1.38642548844884
 1  14.98105044924492  0.03229443554355 -1.31028304160416
 1  14.70320587348735 -2.45395797759776 -0.96045537873787
 1  16.22030590409041 -1.93937797439744 -1.40581636553655
 1  15.73889916871687 -2.04561969456946  0.59600887228723
 1  15.76828710191019  1.45944251455146  0.60804126312631
 1  16.32997765456546 -0.07907728442844  1.44377780038004
 1  18.02496371807181 -0.12785699619962 -0.61746161396140
 1  17.54730931653165  1.36120800910091 -1.28914734723472
 1  18.22429711921192  2.59725612151215  0.80276566626663
 1  18.65743799799980  1.12175798529853  1.51051820182018
 1  20.42773910631063  0.56621458245825 -0.24132297609761
 1  19.70512786938694  3.35523379347935 -1.26576847924792
 1  21.05489273297330  2.33346141584158 -1.90384349094910
 1  19.51527650065006  1.64114973667367 -1.96133831533153
 1  20.71740697719772  1.93922539053905  2.04151518811881
 1  21.97906076327633  2.08190821822182  0.74414857195720
 1  20.61979160856086  3.40642384198420  0.81641037893789
 1 -7.34191602470247  1.69694856805681  0.53339518561856
 1 -7.35631718011801 -0.28863903990399 -0.18723885148515

