%nproc=3
%Mem=2GB
# td=(NStates=1) B3LYP/SVP 

TD

0 1
 6 -5.02041974007401 -1.83457970007001  0.39429430533053
 6 -4.68094841384138  2.81725817751775  1.34484086998700
 6 -9.36597650735073  3.38637943714371 -0.20406887478748
 6 -9.86913496799680 -1.42952375577558 -0.93163571697170
 7 -5.09709887218722  0.46445806870687  0.73317175417542
 6 -4.52375099119912 -0.65414213521352  0.80353379677968
 6 -2.99733942044204 -0.41005744044404  1.23266826262626
 6 -2.96575154055406  0.94958385068507  1.82120122592259
 6 -4.34550374347435  1.52185200310031  1.33447704470447
 6 -2.98672724122412  1.04136164846485  3.35295315791579
 6 -1.95888795949595 -0.69613957565757  0.08839678527853
 6 -0.47392060426043 -0.73656187278728  0.52763521622162
 6  0.45129879127913 -1.04973184608461 -0.62662422002200
 8  0.00633240084008 -1.48233059965997 -1.66505011651165
 8  1.72046224332433 -0.89413618671867 -0.23245568826883
 7 -7.03913850845085  2.78952622442244  0.46043555275528
 6 -5.96455803120312  3.40811522982298  0.98806966386639
 6 -6.32311549724972  4.85087152665267  1.00232672547255
 6 -7.56062515931593  4.98878771427143  0.54970149754976
 6 -8.11234218011801  3.65355384908491  0.20411056645665
 6 -5.38974949144914  5.81943745884588  1.56921818781878
 6 -8.36907419011901  6.28409242084208  0.51545004630463
 6 -9.23183108130813  6.61021074297430 -0.41728420722072
 7 -9.19832803340334  0.92319955295530 -0.48656112451245
 6 -9.85447931083108  2.09366186488649 -0.66778604780478
 6 -11.27994186068607  1.81643520452045 -1.03458729262926
 6 -11.50101405190519  0.48827616771677 -1.18953390809081
 6 -10.10125235093509  0.01368141644164 -0.83450669316932
 6 -12.33680218111811  2.97899640124012 -1.13584667496750
 6 -12.71168890839084 -0.24135661516152 -1.67734869456946
 6 -12.54946507720772 -0.71303456785679 -3.16108427972797
 7 -7.51544050165016 -1.21128281348135 -0.20606913541354
 6 -8.62031361886189 -1.98456718351835 -0.51352471487149
 6 -8.19569200820082 -3.39986686888689 -0.57394996229623
 6 -6.81962687178718 -3.28329515781578 -0.28868649254925
 6 -6.41487259065907 -1.98004082268227  0.00445552175218
 6 -8.98846160376038 -4.65545629512951 -0.91112010641064
 6 -5.72026897209721 -4.28193322842284  0.07098804440444
 8 -5.65026451665167 -5.45255478557856 -0.09935720162016
 6 -4.45411303990399 -3.28758952055206  0.40945000710071
 6 -3.72820661856186 -3.76253034653465  1.67720424612461
 8 -3.88532360586059 -3.15411334523452  2.76839490759076
 8 -3.00245893349335 -4.82297727062706  1.47304773267327
 6 -2.39437414121412 -5.54450389648965  2.54214635423542
 6  2.70425259385939 -1.17647154475448 -1.14883890969097
 6  4.04629787658766 -1.00226072847285 -0.52150425052505
 6  5.02885514211421 -0.14823376847685 -0.99105306190619
 6  4.88785798149815  0.72248297999800 -2.18295541234123
 6  6.34847659285929  0.03504124332433 -0.28477739193919
 6  7.52035327572757 -0.48023420632063 -0.92678954585459
 6  8.80451205230523 -0.19293327842784 -0.14685303280328
 6  10.09222014771477 -0.84405873247325 -0.79125648044804
 6  9.99926596519652 -2.33911771467147 -0.93029231413141
 6  11.32697654785479 -0.35712002670267 -0.06029658535854
 6  12.68308998319832 -0.78037335453545 -0.62803732683268
 6  13.76990557995800 -0.08780600680068  0.15927798329833
 6  15.29552846464646 -0.29061994349435 -0.39080263816382
 6  15.61701127292729 -1.85411427682768 -0.46384515281528
 6  16.27241798609861  0.54623914121412  0.44539356165617
 6  17.57777266606661  0.78433135083508 -0.22512641404140
 6  18.50921184548455  1.66612094099410  0.66353716991699
 6  19.95717761936194  1.78356616121612  0.20205193269327
 6  19.98409910881088  2.35891246734673 -1.29013709150915
 6  20.75457797909791  2.79916125492549  1.04541632983298
 1 -3.98065572587259  3.67261849384938  1.78257313821382
 1 -10.11743959705971  4.34167140924092 -0.16273759645965
 1 -10.66173042944294 -2.23271042654265 -1.25013448654865
 1 -2.86139846684668 -1.08628786398640  2.02652352805281
 1 -2.06488780328033  1.26466668986899  1.53085599779978
 1 -1.99099935793579  0.60766713511351  3.61319042304230
 1 -3.21931742364236  1.93901895159516  3.90898109330933
 1 -3.87811740864086  0.31338652315232  3.84072924912491
 1 -2.07101260966097 -1.62216694979498 -0.49862430963096
 1 -2.27222056145615  0.20724691569157 -0.50756745094509
 1 -0.25767158695870  0.31461531513151  1.07429779107911
 1 -0.36844718401840 -1.45234719331933  1.47737524592459
 1 -4.63613843034303  6.05237960606061  0.99326212601260
 1 -5.84888009440944  6.84346926162616  1.79575887048705
 1 -5.18624671147115  5.46727477147715  2.55454958895890
 1 -8.19064407380738  7.05202507700770  1.33876543044304
 1 -9.35015036693669  5.98999916041604 -1.28935052115212
 1 -9.76313105970597  7.57975670317032 -0.46145636853685
 1 -12.35120948294830  3.53717290449045 -0.24837265036504
 1 -12.38278212651265  3.62964692209221 -2.05097441424142
 1 -13.36291731453145  2.51509934563456 -1.17055141054105
 1 -12.89749212241224 -1.21519044574457 -1.14270902200220
 1 -13.57601462596260  0.54481863656366 -1.42738509730973
 1 -12.46587221712171  0.13638045114511 -3.82231957625763
 1 -11.59392436043604 -1.24736230983098 -3.30029898199820
 1 -13.34955170867087 -1.27885698049805 -3.46188373067307
 1 -9.61680822962296 -4.77085640544054  0.00643834183418
 1 -9.82286626552655 -4.44259220522052 -1.74202110031003
 1 -8.31089626432643 -5.57583585058506 -1.16729468496850
 1 -3.81245309670967 -3.37098338853885 -0.34734608320832
 1 -1.48679907290729 -6.26562165786579  1.97757109120912
 1 -1.92481092749275 -4.78640212411241  3.29848429102910
 1 -3.17316033243324 -6.24992008360836  3.10758763436344
 1  2.62268617611761 -2.23695133863386 -1.33546471347135
 1  2.66630152465247 -0.72962054285429 -1.94820258745875
 1  4.27737050875087 -1.69862217651765  0.37907581058106
 1  5.29257108630863  1.90433294229423 -2.00794551435143
 1  5.32023864106411  0.49567553005301 -3.38032943454345
 1  3.93390350855086  1.01563275007501 -2.64459528462846
 1  6.55059307550755  1.10135626062606 -0.22545273637364
 1  6.35517356205621 -0.17530742034203  0.77634534193419
 1  7.19203598849885 -1.53797052165216 -0.98489924952495
 1  7.62636217871787  0.06942896349635 -1.97487231623162
 1  8.89862534993499  0.82107094839484 -0.01530138183818
 1  8.53180624342434 -0.74045819731973  0.92442525492549
 1  10.00864353295330 -0.57443488678868 -1.78099267426743
 1  9.29711002720272 -2.86703539673967 -1.69796834463446
 1  11.03789882098210 -2.90714231403140 -1.23299390429043
 1  9.84471949204921 -2.78009969556956  0.01839357005701
 1  11.30976627402740  0.60751953205321  0.26211479667967
 1  11.08833479697970 -1.06535177167717  0.80442037223722
 1  12.62251696229623 -1.94056562776278 -0.59702291529153
 1  12.76311446364636 -0.57928800780078 -1.66454798849885
 1  13.62200335523552  0.90639034983498  0.10297320822082
 1  13.67674190119012 -0.30509693749375  1.24516136203620
 1  15.18800114431443  0.03997520362036 -1.39062107540754
 1  14.91082663556356 -2.49897247904791 -0.82874220742074
 1  16.69171304480448 -2.16687072367237 -0.78080386428643
 1  15.69696497529753 -2.27326245884588  0.67038631003100
 1  15.70710098329833  1.51494806510651  0.57763822282228
 1  16.41713637043704  0.06923754705471  1.45062848544854
 1  17.99037025872587 -0.14408861936194 -0.56685655345535
 1  17.44897948354836  1.07535942424242 -1.23907233973397
 1  17.71104579407941  2.55647204310431  0.76085147484748
 1  18.42927518171817  1.26905271477148  1.70444759475948
 1  20.54940127252725  0.92629059005901  0.21717287348735
 1  19.35258261486149  3.43089135923592 -1.35823772617262
 1  21.09092633633363  2.50114818451845 -1.53073618021802
 1  19.68650362336233  1.51146676837684 -1.99186136763676
 1  21.08160339683969  2.31204267226723  2.16626766336634
 1  21.72997585478548  2.65478550595059  0.69545370247025
 1  20.08178780818082  3.74621782138214  1.16964570247025
 1 -6.95376720982098  1.67049592279228  0.23444529062906
 1 -7.73487503590359 -0.35040521652165 -0.27942807040704

