%nproc=3
%Mem=2GB
# td=(NStates=1) B3LYP/SVP 

TD

0 1
 6 -5.03202090019002 -1.81573781588159  0.37801267716772
 6 -4.84369468846885  2.88270472217222  1.23046943284328
 6 -9.47262717241724  3.19260005920592 -0.18958742664266
 6 -9.91372942744274 -1.60620142354235 -0.78969152255226
 7 -5.24815397769777  0.53003462636264  0.80273871087109
 6 -4.47213582968297 -0.71001772277228  0.83443688708871
 6 -3.03143282978298 -0.49020545524552  1.19488448424842
 6 -3.10740570597060  0.99534842714271  1.70486959275928
 6 -4.44831402450245  1.51356117401740  1.29924352135214
 6 -2.78289685818582  1.26215372767277  3.22385024762476
 6 -2.05076714741474 -0.72970293199320 -0.01795384978498
 6 -0.58133134533453 -0.70521873847385  0.41316376907691
 6  0.34716837823782 -0.92181905480548 -0.76796835443544
 8  0.03843561116112 -1.31965433203320 -1.88594220572057
 8  1.57913811091109 -0.50996776987699 -0.41385382808281
 7 -7.13322791739174  2.77031430323032  0.55088459765977
 6 -6.07445902130213  3.56952137043704  0.90927178407841
 6 -6.47191037673767  4.92181862136214  0.88231472427243
 6 -7.85356445324532  4.88869770527053  0.59272579998000
 6 -8.27018796469647  3.67024551825182  0.22472262766277
 6 -5.48813933043304  5.91647716281628  1.35125639163916
 6 -8.47313459615962  6.22729674127413  0.46216471777178
 6 -9.27009490769077  6.56111583348335 -0.60071255005501
 7 -9.25299349994999  0.72553978697870 -0.49059152755276
 6 -10.03253711661166  1.83355585428543 -0.46915618481848
 6 -11.52181604810481  1.66485004600460 -0.79233306720672
 6 -11.52626657715772  0.29495683578358 -0.99515447014701
 6 -10.18012023772377 -0.26348630033003 -0.77150039253925
 6 -12.46044454535454  2.89549805140514 -0.87508059835984
 6 -12.70136787628763 -0.46046852635263 -1.41292225192519
 6 -12.69294942564257 -0.87870113451345 -2.93022119341934
 7 -7.52208116571657 -1.34510619581958 -0.25377390589059
 6 -8.60123171067107 -2.13653238003800 -0.65659902230223
 6 -8.14746718571857 -3.43141002320232 -0.57353992129213
 6 -6.69035394449445 -3.37099392769277 -0.24991261516152
 6 -6.31338244164417 -2.05527834643464 -0.02853777757776
 6 -8.81057381498150 -4.68981973147315 -0.99454844924492
 6 -5.51956890209021 -4.18735377047705  0.05633657925793
 8 -5.42278176837684 -5.43544307440744  0.07145988008801
 6 -4.35794342294229 -3.22803356495650  0.32857191929193
 6 -3.78604240214021 -3.59986407990799  1.66592311801180
 8 -4.05491056455646 -3.16281421532153  2.73332140024002
 8 -2.98432712031203 -4.74959993289329  1.49126955485549
 6 -2.23972867666767 -5.17535698179818  2.58320045964596
 6  2.58700086868687 -0.89368326592659 -1.43448747454746
 6  3.99163241004100 -0.65246574897490 -0.74630673077308
 6  4.96031828842884  0.27639869476948 -1.04086804340434
 6  4.98369756545654  1.20673140484048 -2.17822493929393
 6  6.33206495169517  0.31727946714671 -0.14580349454945
 6  7.60474171457146 -0.22987917081708 -0.88393526042604
 6  8.87194879597960 -0.16915090019002 -0.04930327782778
 6  10.03937486318632 -0.78130245684568 -0.78726608140814
 6  9.87733377197720 -2.28929273217322 -0.95040432533253
 6  11.40045389558956 -0.31434574927493  0.01025046934693
 6  12.70914258845885 -0.60132544974497 -0.64695921902190
 6  13.90701929132913 -0.14061128732873  0.24923697919792
 6  15.33363227502750 -0.39615049654966 -0.35846940484048
 6  15.71888145994599 -1.84290315571557 -0.68907767606761
 6  16.30127087138714  0.39906442374237  0.46942596489649
 6  17.70933582238224  0.44976789448945 -0.12183608500850
 6  18.75169609390939  1.18937326622662  0.82418323452345
 6  20.14033593519352  1.48534633923392  0.27424915241524
 6  20.30831153005300  2.13980055615562 -1.13462153995400
 6  21.03706622792279  2.17162850165017  1.29274106230623
 1 -4.06491415171517  3.67518875087509  1.32498737963796
 1 -9.97015486858686  4.03892113421342 -0.33711503420342
 1 -10.68883313971397 -2.30026718221822 -1.07589706280628
 1 -2.72716504350435 -1.15097433263326  1.96395727142714
 1 -2.40438175267527  1.63860408360836  1.28866177837784
 1 -1.75343560156016  0.69964633303330  3.42901200520052
 1 -2.63936942884289  2.30459550925093  3.18666886208621
 1 -3.54642423932393  0.77240242474247  3.74893006920692
 1 -2.51093660206021 -1.69146387948795 -0.44759920712071
 1 -2.21669500890089 -0.10113392239224 -0.92536923112311
 1 -0.27159297909791  0.15684953855386  1.03194355565557
 1 -0.45004534383438 -1.39607156575658  1.29382689108911
 1 -4.56401121762176  5.81939630773077  0.72503530333033
 1 -5.67744295069507  7.10948586328633  1.34224351895189
 1 -5.15137322412241  5.75132317631763  2.35358949294930
 1 -8.20559556895690  6.79254912941294  1.39836139003900
 1 -9.57695304720472  5.73282344284428 -1.33777536363636
 1 -9.80995574217422  7.69490821832183 -0.54577480038004
 1 -12.07067142914292  3.47970715791579  0.30690287718772
 1 -12.20334418271827  3.60917487488749 -1.60749006580658
 1 -13.56227725052505  2.48020585628563 -0.99088344374437
 1 -12.83887626082608 -1.50205913261326 -0.81208595969597
 1 -13.50494751925192  0.09525368006801 -1.00877323612361
 1 -12.72450808070807  0.09685649874987 -3.41384872917292
 1 -11.80544551255126 -1.52329990359036 -3.30145909800980
 1 -13.54856160966097 -1.74864395919592 -3.38656619891989
 1 -9.49197574637464 -5.02291161096110 -0.23326562856286
 1 -9.16434041294129 -4.43600154615461 -1.95911280948095
 1 -8.07026220092009 -5.51342960996100 -1.04990294579458
 1 -3.53354520592059 -3.25782207240724 -0.51024237283728
 1 -1.65591598459846 -5.87707280298030  2.05151848594860
 1 -1.55753419981998 -4.37904138803880  3.14287873047305
 1 -2.72014503090309 -5.69934502610261  3.59682655825583
 1  2.43882779027903 -1.85648329182918 -1.83055422242224
 1  2.52166706120612 -0.07295487628763 -2.17344511171117
 1  4.03786655835584 -1.32731504580458  0.18877678067807
 1  5.14705653485349  2.26814932393239 -2.04525924572457
 1  5.81450806800680  0.91207717021702 -3.11602300390039
 1  4.04216433463346  1.11386257305731 -2.68905973107311
 1  6.55146316251625  1.36646277127713 -0.01725191629163
 1  6.11436948164816 -0.09458934853485  0.96542424982498
 1  7.60625741064106 -1.34746147074707 -1.42943370297030
 1  7.79929947244725  0.57994001460146 -1.77119194819482
 1  9.09013450085008  0.89726856815682  0.28205835413541
 1  8.71916497929793 -0.41768592009201  0.93530634303430
 1  10.28958162676268 -0.39718716201620 -1.84485906090609
 1  9.01811212741274 -2.20423911711171 -1.39071761956196
 1  10.71907693879388 -2.70963256305631 -1.59128973387339
 1  9.86680170027003 -2.86021770737074 -0.12127039633963
 1  11.26115141254125  0.51883066316632  0.37447603280328
 1  11.06158212171217 -0.87786302280228  0.98471840204020
 1  12.69406411701170 -1.72417398859886 -0.80168338133813
 1  12.74369252145214 -0.14045412441244 -1.62670420412041
 1  13.59757091199120  0.87849756055606  0.60841375227523
 1  13.77620184718472 -0.58231465926593  1.32316916281628
 1  15.39489183338334  0.16559776587659 -1.36501851515151
 1  14.89704525742574 -2.43801638343834 -1.44933426662666
 1  16.77091096459646 -1.94915895249525 -1.05280106400640
 1  15.75979125792579 -2.47104223682368  0.25085435683568
 1  15.85953622682268  1.56673324362436  0.61353181218122
 1  16.42808746554655  0.00120074337434  1.43944736733673
 1  18.22596381808181 -0.48905311581158 -0.39470933873387
 1  17.53011759735974  0.96526841514152 -1.05008344084408
 1  18.08569325882588  2.26347274317432  1.16756214591459
 1  18.59756201040104  0.67989379887989  1.89632678267827
 1  20.58511484388439  0.49907786878688 -0.03944278807881
 1  19.99680703730373  3.22766103620362 -1.10596249864986
 1  21.36857410111011  2.23897196689669 -1.49363246984698
 1  19.61585655865586  1.61219684138414 -1.76322850435043
 1  21.18370360686069  1.46551801980198  2.34253529012901
 1  22.02598545574558  2.40318034543454  0.83856801390139
 1  20.58343797319732  3.06446964656466  1.33022176007601
 1 -7.15096692979298  1.86662553575358  0.26844869096910
 1 -7.48775032343234 -0.28305848184819  0.00197006940694

