%nproc=3
%Mem=2GB
# td=(NStates=1) B3LYP/SVP 

TD

0 1
 6 -5.09543724182418 -1.99149539163916  0.45236011191119
 6 -4.83196351535153  2.75536198789879  1.64157054295430
 6 -9.23679358905891  3.28489928912891 -0.31893036093609
 6 -9.79107716221622 -1.45879668306831 -1.05079763316332
 7 -5.11342050435043  0.44939656255626  0.84999343634363
 6 -4.54273288938894 -0.74780150115012  0.89019246264626
 6 -3.03484317081708 -0.62379881458146  1.31547654345435
 6 -3.00409537493749  0.79966885918592  1.91565067086709
 6 -4.38724791789179  1.40623044094409  1.38739233623362
 6 -2.93539210771077  0.87478499079908  3.45648351095110
 6 -2.00947301800180 -0.77477743944394  0.18979692529253
 6 -0.58680189238924 -0.51172938953895  0.58030048274827
 6  0.38834249564956 -0.93343021592159 -0.62685424302430
 8  0.08856062366237 -1.28611097769777 -1.74995860736074
 8  1.66482667976798 -0.86739351245124 -0.14798724142414
 7 -7.12184677927793  2.70139741154115  0.50499000820082
 6 -5.99001057645765  3.33716813511351  1.17098795569557
 6 -6.25407859355936  4.74237067656766  1.12977947074707
 6 -7.53293239003900  4.99598843434343  0.61238776617662
 6 -8.05541648754876  3.65787428112811  0.22189234463446
 6 -5.27897841434143  5.81556707180718  1.58582984898490
 6 -8.08375565826583  6.26601061266127  0.41523002430243
 6 -9.02592049024902  6.74939466136614 -0.53364584338434
 7 -9.19073727432743  0.92096932993299 -0.57831029942994
 6 -9.83543740664066  2.18127062576258 -0.62839210841084
 6 -11.31661552805281  1.92928648964896 -1.03927776167617
 6 -11.40415436593659  0.59877721782178 -1.28155311001100
 6 -10.14038626432643  0.00180022832283 -0.87923116561656
 6 -12.36795529642964  2.98429693129313 -1.29051214151415
 6 -12.64464220372037 -0.26033851335134 -1.79490044974497
 6 -12.58168829952995 -0.65276854125413 -3.27208537983798
 7 -7.45840479807981 -1.26920860606061 -0.22943147164716
 6 -8.55627721522152 -2.07570629742974 -0.62588595099510
 6 -8.22162460146015 -3.42528941114111 -0.74400696799680
 6 -6.80630553965397 -3.45572240054005 -0.26452407630763
 6 -6.42729383278328 -2.19473229182918  0.04582965916592
 6 -8.98096085368537 -4.59320006950695 -1.21652064646465
 6 -5.68189513471347 -4.35365040014001 -0.06859591399140
 8 -5.58135762596260 -5.51388091819182 -0.16446371227123
 6 -4.42265989458946 -3.37867862946295  0.53161222332233
 6 -3.96680047794779 -3.85855994949495  1.89764629032903
 8 -4.37942301580158 -3.46671460536054  2.96459452755276
 8 -2.95438412601260 -4.83988896179618  1.60060048794879
 6 -2.49456416021602 -5.48649809590959  2.79598173777378
 6  2.63971614021402 -1.18900279787979 -1.22349637543754
 6  3.97016026282628 -0.68029853225323 -0.63031513161316
 6  4.94202645924593  0.15069612451245 -1.28099205580558
 6  4.83973316901690  0.70866159785979 -2.50439755655566
 6  6.22882462766277  0.35309304850485 -0.39843875807581
 6  7.48399964036404 -0.40313649654966 -0.95588245514551
 6  8.70288188928893 -0.04052803790379 -0.12006035353535
 6  10.03163408910891 -0.74188851545155 -0.69799715451545
 6  9.99030506910691 -2.20245404830483 -0.68349763466347
 6  11.21394524472447 -0.17598191289129  0.13934337863786
 6  12.53247492169217 -0.41285660286029 -0.50359488258826
 6  13.77280586998700  0.10815358915892  0.30642269776978
 6  15.20988990079008 -0.20282116361636 -0.27348090599060
 6  15.68187775957596 -1.67113597899790 -0.21537030533053
 6  16.21903264756476  0.73664818211821  0.48170719301930
 6  17.58667355615562  0.68849176687669 -0.32833673507351
 6  18.61685260956095  1.48884321322132  0.42469328552855
 6  20.16049795139514  1.56566437103710 -0.13373164566457
 6  20.24215491439144  2.03307988408841 -1.47345542334233
 6  20.89595211651165  2.34660599939994  0.88955074327433
 1 -4.39580724102410  3.54091532353235  2.24971985288529
 1 -9.89468732183218  4.04683192529253 -0.72501382408241
 1 -10.62907716411641 -2.15540269576958 -1.23509298239824
 1 -3.01924425142514 -1.34602383758376  2.17516839253925
 1 -2.22554386888689  1.47884810801080  1.28098101030103
 1 -1.82286254425443  0.61673804220422  3.85587469146915
 1 -3.03497898979898  1.94072912261226  3.90433062826283
 1 -3.74609420632063  0.11924710921092  3.87051222742274
 1 -1.78111361976198 -1.91535626872687 -0.05798024522452
 1 -2.13565690509051 -0.01177498649865 -0.66033272747275
 1 -0.36302212201220  0.59597345094509  1.13953431473147
 1 -0.21641198049805 -1.00741269986999  1.45163267166717
 1 -4.28092290879088  5.77554192229223  1.03601640144014
 1 -5.61634684108411  6.81614652935294  1.30733002760276
 1 -5.20887897469747  5.83842188618862  2.81489562356236
 1 -7.86825183458346  7.08687856235624  1.11662321622162
 1 -9.32808816071607  6.08705886638664 -1.36910849694969
 1 -9.37152189878988  7.89506823432343 -0.40000022292229
 1 -12.45737009900990  3.58295748294829 -0.29678749184918
 1 -12.02878672697270  3.42946690409041 -2.17162647944794
 1 -13.24650567336734  2.40146798249825 -1.36326068146815
 1 -12.78933130633063 -1.17604653135314 -1.06328107920792
 1 -13.58602562706271  0.45138929362936 -1.62438479727973
 1 -12.89951558145814  0.22513932703270 -3.92525987028703
 1 -11.43425839383938 -1.01792936653665 -3.53561251335133
 1 -13.23218997249725 -1.32928202300230 -3.52211975427543
 1 -10.07137368616862 -4.77480680048005 -0.82731503350335
 1 -9.00261424032403 -4.46828477447745 -2.40962786098610
 1 -8.49853502820282 -5.63872213921392 -1.11107906340634
 1 -3.65908776017602 -3.62109840004000 -0.30744209280928
 1 -1.54254464746475 -6.04143923962396  2.49667300140014
 1 -2.27212565896590 -4.73723720762076  3.67259170177018
 1 -3.45444846124613 -6.10485557715772  3.06070294589459
 1  2.73772768026803 -2.35808345184518 -1.27955912291229
 1  2.37449234373437 -0.93102068286829 -2.27150491769177
 1  4.25220799249925 -1.15300761506151  0.33405130813081
 1  5.15224705390539  1.81201371037104 -2.71636635643564
 1  5.51368798599860  0.36089205170517 -3.15477687928793
 1  3.81071118931893  0.67033822062206 -2.87133795889589
 1  6.35323333953395  1.46369249424943 -0.12556274737474
 1  5.74042208690869  0.01024113451345  0.77809551695170
 1  7.18055484038404 -1.35637236183618 -0.89695045464546
 1  7.75645518801880 -0.07396537593759 -1.91480630963096
 1  9.15559104650465  1.06471531283128 -0.25179503120312
 1  8.67609067186719 -0.40626477797780  0.87960077247725
 1  10.31128379697970 -0.55228267156716 -1.59313388838884
 1  9.09250956715672 -2.77002569576958 -1.45877442524252
 1  11.12232726382638 -2.82703430323032 -0.85847645254525
 1  9.69240426052605 -2.67463914951495  0.33697542824282
 1  11.14324962236224  0.92099087918792  0.32770135533553
 1  11.32353831733173 -0.78570380688069  1.07507743794379
 1  12.84385909650965 -1.56599817101710 -0.58938215121512
 1  12.68818697089709  0.02657257825783 -1.60950248394840
 1  13.77781893679368  1.21932164296430  0.58550146104610
 1  13.76311053805381 -0.41961838963896  1.29537638353835
 1  15.26665901010101  0.14239544564456 -1.21929394269427
 1  14.95918147104710 -2.51546412821282 -0.67473680688069
 1  16.64901877537754 -1.91626566316632 -0.72941872577258
 1  15.92575785458546 -1.72407754035404  0.97092636403640
 1  16.03692396559656  1.85290186048605  0.31157161616162
 1  16.35359001580158  0.36856748004801  1.62766618921892
 1  17.98035925762576 -0.59389359985999 -0.16294616241624
 1  17.56520110571057  0.78423031133113 -1.47651608410841
 1  18.28573326282628  2.51438783468347  0.29050444014401
 1  18.55888814301430  1.13748955845585  1.55405255525553
 1  20.34026035843584  0.40709867086709 -0.15349419321932
 1  19.97168452505251  3.20468873897390 -1.47100900330033
 1  21.15290253395340  1.90340841054105 -1.79297240384038
 1  19.52978795179518  1.56439206090609 -2.40194237573757
 1  21.04458969546955  1.97908937693769  2.05788682528253
 1  22.02502535973597  2.64036406380638  0.58888304540454
 1  20.24044367376738  3.41973517311731  0.95960469836984
 1 -7.17139897299730  1.75363423662366  0.54683652975298
 1 -7.69443099149915 -0.39421959795980 -0.06169629722972

