%nproc=3
%Mem=2GB
# td=(NStates=1) B3LYP/SVP 

TD

0 1
 6 -5.12512021012101 -1.88157439953995  0.45943081898190
 6 -4.64839515851585  2.84447089878988  1.30931731763176
 6 -9.39860977067707  3.35458625782578 -0.14119258715872
 6 -9.78318637313731 -1.43249405280528 -0.79907246064606
 7 -5.15256441874187  0.49115073797380  0.64163260026003
 6 -4.50229884598460 -0.71320804180418  0.64411785518552
 6 -3.01821150765077 -0.57713414811481  1.11572656845685
 6 -2.98505347074707  0.92767165946595  1.65701480728073
 6 -4.34234342744274  1.49641945984598  1.15527912491249
 6 -2.97219578807881  0.97311482378238  3.20316817941794
 6 -1.99697176787679 -0.77419738143814  0.00042798839884
 6 -0.50015322752275 -0.82879109570957  0.49526197889789
 6  0.43764742614261 -1.07100397329733 -0.62062361996200
 8  0.14915668326833 -1.34260662726273 -1.79328293979398
 8  1.74260445754575 -0.79889666276628 -0.17215965866587
 7 -7.09809440404040  2.77372464426443  0.51779128832883
 6 -6.02292386778678  3.43118753705371  0.90349120602060
 6 -6.26027921362136  4.72976941644164  1.00878737153715
 6 -7.59307840464046  4.95943477897790  0.50676720412041
 6 -8.16544749064906  3.60836933063306  0.24651480688069
 6 -5.34520503700370  5.81660717581758  1.35094636063606
 6 -8.32494977767777  6.30038405000500  0.37973647494749
 6 -9.08830672887289  6.64349407130713 -0.70669314811481
 7 -9.23255145574557  0.92153938693869 -0.44333680208021
 6 -9.98622248514851  2.00911341004100 -0.44493376257626
 6 -11.40866473297330  1.83974753575358 -0.89648348224822
 6 -11.44691864236423  0.44484182428243 -0.94714966966697
 6 -10.14478670437044 -0.12261221292129 -0.79192243474347
 6 -12.40354885578558  2.90565906750675 -0.95269836013601
 6 -12.66766450595060 -0.37615009450945 -1.46358731843184
 6 -12.82459258995900 -0.50213347774777 -2.96493466476648
 7 -7.47852681028103 -1.23069475467547 -0.24811333983398
 6 -8.50710229772977 -1.89973870067007 -0.63498686108611
 6 -8.20172261126113 -3.40587746994699 -0.55632820012001
 6 -6.86456136523652 -3.35942277057706 -0.17905552945295
 6 -6.41039214261426 -2.03572639123912  0.03363844004400
 6 -9.09293205080508 -4.50626137563756 -0.89475847024702
 6 -5.69081602680268 -4.23494852995300  0.05265621122112
 8 -5.61665115531553 -5.48844837493749  0.03778651275128
 6 -4.46815444404440 -3.33867462906291  0.47710677277728
 6 -3.87734153205321 -3.87307140064006  1.77404393009301
 8 -4.13289836333633 -3.31967990189019  2.83337140524052
 8 -3.05768445604560 -4.92091706460646  1.55739616751675
 6 -2.60269497329733 -5.41300074617462  2.68675081468147
 6  2.67957012561256 -0.98544244184418 -1.25843986978698
 6  4.03502674947495 -0.89778028042804 -0.69474157425743
 6  4.99642189878988  0.06893794869487 -1.06261021762176
 6  4.92259145484548  0.98372910461046 -2.37212432923292
 6  6.28235998119812  0.17914565376538 -0.24854376857686
 6  7.52468370877088 -0.43463964686469 -1.06397326422642
 6  8.83069467056706 -0.47493147824782 -0.23734208170817
 6  10.09880080578058 -0.77531185778578 -0.88868622342234
 6  10.17366340494049 -2.18182198509851 -1.23714299919992
 6  11.35526937713771 -0.43599791449145 -0.01333188888889
 6  12.60397207140714 -0.65453077027703 -0.71198572167217
 6  13.81720030943094 -0.08458568476848  0.24828688418842
 6  15.25470438223822 -0.24902578407841 -0.35720927882788
 6  15.76147571937194 -1.59399826522652 -0.51664043234323
 6  16.18311905620562  0.66221073837384  0.34627364966497
 6  17.71658654745475  0.60173309100910 -0.05521942334233
 6  18.57081800610061  1.72137646654665  0.67716853305331
 6  20.07724962656265  1.69575738033803  0.37902963046305
 6  20.39628032693269  2.05994257035704 -1.06599467726773
 6  20.77324984628463  2.53822516131613  1.38973076127613
 1 -3.74207186748675  3.43965519751975  1.63947882878288
 1 -10.02421027412741  4.19455669776978 -0.28694001670167
 1 -10.61217547394739 -2.17053420892089 -0.96211568466847
 1 -2.81589391639164 -1.27018625382538  1.60058093379338
 1 -2.04630594509451  1.46023624682468  1.33956686888689
 1 -1.85123538153815  0.62518888728873  3.49662876687669
 1 -3.05749124102410  2.03631868156816  3.77754794999500
 1 -3.62500209710971  0.37068225272527  3.80985616181618
 1 -2.52224773317332 -1.68057279037904 -0.31965641284128
 1 -1.98744208360836  0.03670986198620 -0.72661935613561
 1 -0.20303612341234  0.06088994259426  1.13711407270727
 1 -0.38165850515051 -1.56667862646265  1.24773228162816
 1 -4.55381019751975  5.84458882698270  0.54604740454045
 1 -5.70086529292929  6.77539245394540  1.42847214181418
 1 -5.20068815561556  5.54951299529953  2.47941207520752
 1 -7.93386839623962  7.16257613211321  1.01718327222722
 1 -9.39201455335533  5.89751991249125 -1.50653223932393
 1 -9.27068181478148  7.70442917041704 -0.79265948884888
 1 -12.48120248224823  3.61722090929093 -0.07526533963396
 1 -12.38860270857086  3.56940089748975 -1.91340065686569
 1 -13.48951997479748  2.52933076877688 -0.87037139253925
 1 -12.68962133533353 -1.40180910761076 -0.95824057515752
 1 -13.55300232473247  0.19313346804680 -1.05354771357136
 1 -13.20573620352035  0.57521433453345 -3.56918426272627
 1 -11.74828979697970 -0.71251882548255 -3.50609956205620
 1 -13.54405115861586 -1.36594568936894 -3.05060260256026
 1 -10.15483203200320 -4.64452377217722 -0.46496879887989
 1 -9.27148112701270 -4.56346429242924 -2.04849174737474
 1 -8.44040921562156 -5.47575584258426 -0.58921687718772
 1 -3.71468331973197 -3.51447773797380 -0.40674202280228
 1 -2.30942133513351 -6.61596669236924  2.36798013211321
 1 -1.58870731713171 -4.76327981188119  2.92644708730873
 1 -3.22302531893189 -5.39683477507751  3.79453632923292
 1  2.35978988648865 -2.10024766826683 -1.62393356035604
 1  2.51692658715872 -0.24406198699870 -2.07944571177118
 1  4.33874664636464 -1.47047936223622  0.28786668966897
 1  4.99949177837784  2.07964047304730 -2.00191491129113
 1  5.69287590479048  0.58150411291129 -3.33491489308931
 1  3.77137725592559  0.98141932873287 -2.78060888598860
 1  6.64439245544555  1.18741486648665  0.04610441934193
 1  6.10647869256926 -0.57864775437544  0.61933964136414
 1  7.29049583448345 -1.44726145074507 -1.32893365296530
 1  7.63520306280628 -0.00765874527453 -2.03420824982498
 1  8.82324781218122  0.60304914621462  0.26807695599560
 1  8.99479254205420 -0.98101225272527  0.82801561396140
 1  10.19110177877788 -0.05936337963796 -1.76645122012201
 1  9.25574589078908 -2.33306199939994 -1.85505405320532
 1  11.11175620672067 -2.55890749054906 -1.77606821172117
 1  10.13690871097110 -2.86536822242224 -0.47940620992099
 1  11.26073137053706  0.58956773687369  0.24240282548255
 1  11.06662262576258 -0.89630486698670  1.04889481968197
 1  12.74750946154616 -1.73293486468647 -1.15455866886689
 1  12.55919407160716  0.07230715171517 -1.66442797649765
 1  13.65767692259226  1.10343005380538  0.27790070097010
 1  13.89237346434643 -0.51119754755476  1.16954380028003
 1  15.04434677887789  0.35421662776278 -1.33627564086409
 1  14.79384493739374 -2.08245082688269 -0.92644197739774
 1  16.58696256975697 -1.71651568816882 -1.24327011091109
 1  16.28556383518352 -1.99221435403540  0.52464173557356
 1  15.96036630983098  1.81889846014601  0.27078753775378
 1  16.28837349414941  0.17343796709671  1.38249167176718
 1  18.08259948164816 -0.40120433093309  0.10289042124212
 1  17.97498208380838  0.88411029932993 -1.30915934843484
 1  18.19875456495650  2.77312370827083  0.52512790249025
 1  18.51695394959496  1.55793160266027  1.85536268626863
 1  20.42959929232923  0.79781774277428  0.58064922112211
 1  19.99224658125813  3.08436670677068 -1.32968487088709
 1  21.48025526922692  2.03038110781078 -1.21552465906591
 1  19.75121009400940  1.51695731743174 -1.79192137363736
 1  20.36657189368937  1.96381784978498  2.24721575817582
 1  21.98237109430943  2.64261428882888  1.24794895199520
 1  20.15614524392439  3.51927512711271  1.54429316721672
 1 -7.11144297739774  1.82874174737474  0.03515536163616
 1 -7.61288283668367 -0.16257643364336 -0.26583671127113

