%nproc=3
%Mem=2GB
# td=(NStates=1) B3LYP/SVP 

TD

0 1
 6 -5.09193689178918 -1.94842108420842  0.50001487738774
 6 -4.79625994499450  2.80598705040504  1.39590597649765
 6 -9.37834774447445  3.31058185738574 -0.22946141404140
 6 -9.82472052655265 -1.39527033043304 -0.89299185258526
 7 -5.15732489478948  0.37365898879888  0.79031746874687
 6 -4.43833244934493 -0.74004072507251  0.82268571197120
 6 -3.07886757325733 -0.58742517721772  1.20613560936094
 6 -3.08089305470547  0.83400229252925  1.78847795359536
 6 -4.37623681678168  1.39889970787079  1.31107470447045
 6 -2.85463403190319  0.85801331363136  3.36292415501550
 6 -2.03778584928493 -0.83568353005301  0.08828677427743
 6 -0.59056226842684 -0.88957717431743  0.49359181188119
 6  0.44344800620062 -1.06967384028403 -0.66970852845285
 8  0.10786255385539 -1.75132749934993 -1.68315192669267
 8  1.69023922102210 -0.53768054115412 -0.37327977067707
 7 -7.09778437303730  2.77510478227823  0.44269377857786
 6 -5.94624620002000  3.41824624292429  1.01269212611261
 6 -6.31661484718472  4.82808924842484  1.04132062486249
 6 -7.62189128592859  4.90144898039804  0.54083061046105
 6 -8.10546149204921  3.65303379707971  0.12535269066907
 6 -5.30503101960196  5.86343185828583  1.50521178717872
 6 -8.18567585028503  6.16871088268827  0.39405790709071
 6 -9.03185108330833  6.60292001390139 -0.58570104890489
 7 -9.23107130773077  0.96382361536154 -0.48609107750775
 6 -9.89300316321632  2.09182168086809 -0.48825809500950
 6 -11.34741860836084  1.86218977997800 -0.88699253315332
 6 -11.47319126962696  0.60711805190519 -1.16197115181518
 6 -10.09012123782378 -0.01289124082408 -0.83793703620362
 6 -12.31195969686969  2.95761426302630 -0.95643873417342
 6 -12.71358909840984 -0.18555103460346 -1.65689664936494
 6 -12.74518464916492 -0.58059132353235 -3.09731790309031
 7 -7.54622357995799 -1.30068175337534 -0.09132766126613
 6 -8.57281886938694 -2.04003273007301 -0.65317868026803
 6 -8.14834727372737 -3.35270215241524 -0.69267183448345
 6 -6.81091600070007 -3.31722855115512 -0.25180280418042
 6 -6.44580568396840 -2.07652047064706  0.07534261046105
 6 -8.98288104570457 -4.65961671117112 -1.00996999139914
 6 -5.74585153035304 -4.29749478457846  0.10181112671267
 8 -5.73258274847485 -5.52737226732673  0.01990472457246
 6 -4.58967659625963 -3.38746950855085  0.48843790589059
 6 -3.97973177107711 -3.96993108660866  1.79142566826683
 8 -4.29172424592459 -3.52496042994299  2.88352642074207
 8 -3.06760544814481 -4.87020199309931  1.62994342224222
 6 -2.62527723152315 -5.52186163226323  2.75151729132913
 6  2.61138330693069 -0.74500839843984 -1.43945797159716
 6  3.97128037483748 -0.39158966136614 -0.78260036013601
 6  4.98958121472147  0.23596465136514 -1.39400335693569
 6  4.89548874457446  0.88368910061006 -2.76442355915592
 6  6.32226397159716  0.36145388458846 -0.61310022422242
 6  7.50896213661366 -0.51760794369437 -1.15130199709971
 6  8.73644524562456 -0.10940492559256 -0.34876322382238
 6  10.18227915361536 -0.91219554615462 -0.78943629842984
 6  10.19530556915692 -2.35614941784178 -0.61025030993099
 6  11.22594644484449 -0.25209952465247  0.14792423672367
 6  12.61040271447145 -0.50046536373637 -0.36812133523352
 6  13.83545213461346  0.10510328412841  0.41703375887589
 6  15.19237814961496 -0.12512339383938 -0.31857541544154
 6  15.65168474027403 -1.60265913131313 -0.43968273657366
 6  16.21615235953595  0.67674219151915  0.43618264056406
 6  17.69021391019102  0.63427634533453 -0.07223112451245
 6  18.66291721602160  1.54172850175017  0.69032984918492
 6  20.17672957455746  1.52674047864786  0.20581230873087
 6  20.29891058995900  2.17265384148415 -1.26072415021502
 6  21.18000052135214  2.31276261506151  1.12251403960396
 1 -3.83625128542854  3.18755998799880  1.78319320022002
 1 -9.95319317241724  4.31228847094710 -0.43210453315332
 1 -10.65639989638964 -2.12493964946495 -1.37010648374837
 1 -2.77926025302530 -1.33287252245224  2.00724159985999
 1 -2.24819613411341  1.44338456165617  1.29780269246925
 1 -1.86889714771477  0.30931730013001  3.52879198319832
 1 -2.80230572247225  1.95003005270527  3.82454264946495
 1 -3.65223482038204  0.20617580208021  3.79323449964997
 1 -2.22683819221922 -1.69134386748675 -0.60712515971597
 1 -2.19536287568757  0.01535772677268 -0.53540023422342
 1 -0.40382620242024  0.11263511711171  1.27391775307531
 1 -0.59328966826683 -1.51388334693469  1.41537904630463
 1 -4.30908572507251  5.82020638873887  0.78492129192919
 1 -5.73184839123912  7.05205011971197  1.48289758435844
 1 -4.90642872967297  5.48993703770377  2.60935506950695
 1 -7.76244125352535  6.86233610811081  1.18908046194619
 1 -9.10680603250325  5.90970113061306 -1.52029361546155
 1 -9.54552929952995  7.63947267476748 -0.43371359425943
 1 -12.02438680068007  3.68255744294429 -0.07160497359736
 1 -12.17066091439144  3.71078503590359 -1.73877319411941
 1 -13.32519354215422  2.43480131583158 -1.10964531993199
 1 -13.01396376957696 -0.95810473717372 -0.93225797689769
 1 -13.50670769526953  0.49952410711071 -1.33611597039704
 1 -12.33600923082308  0.13216002910291 -3.68752609690969
 1 -12.04385935393539 -1.49102667626763 -3.26784573667367
 1 -13.84602135563556 -1.01909100390039 -3.35530307260726
 1 -9.72583913271327 -4.75576489628963 -0.28339064106411
 1 -9.53614759365936 -4.42868081408141 -2.02622952115212
 1 -8.37530270497050 -5.55973424042404 -0.84449240474047
 1 -3.79174102550255 -3.54874116431643 -0.47515886448645
 1 -2.16922731573157 -6.27002209790979  2.41859519361936
 1 -2.09190763716372 -4.85660914481448  3.49654409700970
 1 -3.34084710111011 -5.91277636923692  3.39056593219322
 1  2.64599850735074 -1.83280092359236 -1.65787695469547
 1  2.17544243874387 -0.08250583138314 -2.27340510771077
 1  4.18324109580958 -0.59028134243424  0.25453335633563
 1  5.20028185738574  1.93386589558956 -2.70272499229923
 1  5.80121673887389  0.44569053155316 -3.41909331093109
 1  3.87790790899090  0.69601078787879 -3.36342716781678
 1  6.60190820702070  1.40316644164416 -0.63835402650265
 1  6.06847489218922 -0.02579246884689  0.27097480488049
 1  7.48932571747175 -1.66138286288629 -1.31814257385739
 1  7.74938448094809 -0.29433741314131 -2.35870069906991
 1  9.01179666706671  1.04565340664066 -0.63343319501950
 1  8.51393445624562 -0.37358150965097  0.74330714311431
 1  10.34665733433343 -0.73887133043304 -1.92060663566357
 1  9.31751206740674 -3.04417311051105 -0.91654020182018
 1  10.97080211131113 -2.92283388318832 -1.21858246314631
 1  10.49543456355636 -2.62621430703070  0.53611534223422
 1  11.27158245564557  0.70746952705271  0.57229581478148
 1  11.14164012751275 -0.88513374987499  1.07483741394139
 1  12.63623833443344 -1.61257282848285 -0.51059427242724
 1  12.67510566276628  0.08732865386539 -1.40231176487649
 1  13.68089924482448  1.29172888368837  0.33347625852585
 1  13.71517574457446  0.03814738693869  1.49944679057906
 1  14.93231557575758  0.31552275837584 -1.25679769306931
 1  15.04812036493649 -2.28778135993599 -1.05169450265027
 1  16.59044291779178 -1.39925396199620 -1.19803558745875
 1  15.79531481028103 -1.98372350495049  0.63946321772177
 1  15.80428070127013  1.74771134143414  0.37091755075508
 1  16.28203286008601  0.43694431773177  1.42323574617462
 1  18.25643686538654 -0.23980819131913  0.00604073627363
 1  17.76864144974498  0.94357624592459 -1.12855128762876
 1  18.34220891039104  2.74365076097610  0.62538792849285
 1  18.58460071427143  1.10703651315131  1.81969911991199
 1  20.50122645504550  0.49768772977298  0.11375253145315
 1  20.02716007260726  3.36270454055406 -1.19733163556356
 1  21.19848709240924  2.04460252995300 -1.55344845144514
 1  19.69174414741474  1.77223284498450 -2.04926710821082
 1  21.19657489398940  1.96178764676468  2.28736977357736
 1  22.09866272347235  2.52335236263626  0.75530968806881
 1  20.65355498489849  3.29769296889689  1.02800153805381
 1 -7.03929576267627  1.84366323952395  0.43786563266327
 1 -7.46700824922492 -0.30456063206321  0.13909378177818

