%nproc=3
%Mem=2GB
# td=(NStates=1) B3LYP/SVP 

TD

0 1
 6 -5.01238893699370 -1.93286952905291  0.47388226412641
 6 -4.91900221922192  2.79921637333733  1.40318670457046
 6 -9.32759266896690  3.35979677887789 -0.24092256015602
 6 -9.76341439593959 -1.39702050545054 -0.79153170657066
 7 -5.17550671297130  0.37358898179818  0.87582601960196
 6 -4.41048966506651 -0.71274799579958  0.88499194259426
 6 -3.01337102360236 -0.49524595929593  1.41509650545055
 6 -3.00629559495950  0.94942383468347  1.83585269106911
 6 -4.41416060916092  1.45498531643164  1.28418201520152
 6 -2.88965753425343  1.17305481778178  3.38232609520952
 6 -2.07078914961496 -0.81482144384438  0.27484543014301
 6 -0.57192040424042 -0.73568178477848  0.53063551625163
 6  0.37904156555656 -0.98240511341134 -0.67315887348735
 8 -0.03008124052405 -1.33566593319332 -1.75113872537254
 8  1.63632382948295 -0.89008578167817 -0.38188063076308
 7 -7.04489908450845  2.74510178197820  0.39299880908091
 6 -6.07866944234423  3.35960037833783  1.01810266716672
 6 -6.28948213391339  4.83536997649765  1.03356984978498
 6 -7.53089218601860  5.00880971647165  0.51802833023302
 6 -8.04899584548455  3.68532702640264  0.24628478387839
 6 -5.26829734623462  5.83097861296130  1.51949321532153
 6 -8.17648493119312  6.27532154375438  0.24277277857786
 6 -9.07746564476447  6.65039476137614 -0.71380385918592
 7 -9.14972317291729  0.98833606660666 -0.42557502590259
 6 -9.87762162506251  2.17389988868887 -0.57053632283228
 6 -11.25757962446245  1.85505906690669 -0.95476931083108
 6 -11.41461541204120  0.48794613471347 -1.10017497219722
 6 -10.08140036573657 -0.05957590929093 -0.75893913641364
 6 -12.26537503840384  2.91813031463146 -1.18107119741974
 6 -12.59234697419742 -0.24813729322932 -1.59792075177518
 6 -12.59461959265927 -0.48178144254425 -3.08471664296430
 7 -7.46799575717572 -1.21742342754275 -0.11520004850485
 6 -8.52730431793179 -2.02612133893389 -0.57693105550555
 6 -8.16648908790879 -3.39273615581558 -0.62238480578058
 6 -6.87972288138814 -3.36654348264826 -0.14369199309931
 6 -6.32190329372937 -2.10206302490249 -0.00734565836584
 6 -9.04765752335233 -4.53447419691969 -1.04226322072207
 6 -5.82866981218122 -4.23071810691069 -0.04768382278228
 8 -5.74604409460946 -5.54448397849785  0.03787652175218
 6 -4.51842947154716 -3.46201696329633  0.44666372847285
 6 -3.87487128502850 -3.90494458795880  1.79199572527253
 8 -4.17131220472047 -3.58456639053905  2.90753882198220
 8 -3.01895058265827 -4.93638861176118  1.53080350825083
 6 -2.44023872767277 -5.51268071417142  2.71027316691669
 6  2.74859702830283 -1.21156505410541 -1.29752377817782
 6  3.93042628942894 -0.75850635303530 -0.69537163726373
 6  4.97526978357836 -0.00844979007901 -1.24005796239624
 6  4.84202339803980  0.67072780448045 -2.59330644744474
 6  6.20762250745075  0.17535527472747 -0.54475338953895
 6  7.43788502890289 -0.32770895379538 -1.18829569646965
 6  8.72698429952995 -0.22869685478548 -0.25468381588159
 6  10.11990291599160 -0.76393071967197 -0.82331968676868
 6  10.15939197779778 -2.16834063696370 -0.93863314821482
 6  11.34697854805481 -0.09823413811381 -0.04531508720872
 6  12.64532620682068 -0.46873219041904 -0.63196771987199
 6  13.87081567096710 -0.06562378857886  0.24302635813581
 6  15.25817472927293 -0.25186606810681 -0.31128468636864
 6  15.62747231903190 -1.66450531593159 -0.53130189848985
 6  16.27491823612361  0.51629614691469  0.46634565686569
 6  17.64431932073207  0.84769768746875 -0.16546044744474
 6  18.60817174147415  1.56322065096510  0.72536335253525
 6  19.99206110771077  1.68916672127213  0.22597432493249
 6  20.12873357225723  2.45162173827383 -1.08147622542254
 6  20.87982050335034  2.14935627442744  1.30644243244324
 1 -4.25784344464446  3.41439267126713  1.93990887178718
 1 -9.97681553465346  4.16058330043004 -0.34813613631363
 1 -10.52335659205920 -2.15901305680568 -1.03478295139514
 1 -2.54558688568857 -1.31693092829283  2.33322419811981
 1 -2.36190750525052  1.60885110831083  1.37416032823282
 1 -1.97227748574857  0.79362573097310  3.87902700670067
 1 -2.93239873177318  2.21080613031303  3.78563875907591
 1 -3.47711730863086  0.51185637013701  3.95896107230723
 1 -2.47275278367837 -1.90020475357536  0.02630818361836
 1 -2.27242058145815 -0.13735754475448 -0.43959065326533
 1 -0.22178799859986  0.09966381998200  0.97340770207021
 1 -0.25283562286229 -1.33945590419042  1.43895140354035
 1 -4.51282609910991  6.06309067716772  0.85125792559256
 1 -5.66386159255926  6.78945386008601  1.83904319891989
 1 -4.77324541134113  5.49378742274227  2.43388752275228
 1 -7.88096310571057  6.87079695419542  1.01996355025503
 1 -9.29010436233623  5.93048320882088 -1.36772835893589
 1 -9.53158790539054  7.58470719821982 -0.68848907180718
 1 -12.41697605960596  3.66069525672567 -0.51427924102410
 1 -12.07889173747375  3.69896385378538 -2.15841515831583
 1 -13.34733575637564  2.39638747444745 -1.38808316371637
 1 -12.52468484168417 -1.29739866656666 -1.05781053215322
 1 -13.42780980548055  0.35074922962296 -1.34227658645865
 1 -12.82161779167917  0.55437225032503 -3.58050539483948
 1 -11.64110907890789 -1.04689226282628 -3.58371732383238
 1 -13.50925767926793 -1.09178827362736 -3.23949149144914
 1 -9.83608015681568 -4.81888120792079 -0.29543184518452
 1 -9.48955293419342 -4.29653759975997 -2.11980887908791
 1 -8.67057223192319 -5.59861812881288 -1.28081603710371
 1 -3.66592844424442 -3.72894918511851 -0.10195154375438
 1 -1.59900029302930 -6.19055415111511  2.46120945504551
 1 -2.05752419881988 -4.69792327622762  3.39854429702970
 1 -3.24857787418742 -6.09693478507851  3.19579645524552
 1  2.77215112261226 -2.23091073457346 -1.22699386638664
 1  2.47932282678268 -0.90994857565757 -2.23905167236724
 1  4.10109288098810 -1.27103941824182  0.32976087908791
 1  5.32923475267527  1.61189369836984 -2.81054577437744
 1  5.52161877907791  0.06647260976098 -3.25833723532353
 1  3.65872599079908  0.68491967876788 -2.84366519161916
 1  6.32068008420842  1.35624174917492 -0.48074826592659
 1  5.97322536723672 -0.35522541214121  0.39708741614161
 1  7.08043482838284 -1.51553827842784 -1.58914967456746
 1  7.74247378987899  0.20080210081008 -2.18231306030603
 1  8.93579906730673  0.82328116941694 -0.17515736743674
 1  8.74507757055706 -0.66258040954095  0.68655146754675
 1  10.35914858345835 -0.27854529782978 -1.89209378437844
 1  9.33571388758876 -2.61288998219822 -1.54495304310431
 1  11.12662769386939 -2.65690729052905 -1.16241684658466
 1  9.80624564466447 -2.60089177477748 -0.00992926222622
 1  11.05099039643964  0.99401818191819 -0.01648306310631
 1  11.07003296679668 -0.71401663816382  0.99502943314331
 1  12.70849556015602 -1.50509208040804 -1.04004721772177
 1  12.60572872507251  0.01945186618662 -1.67592912661266
 1  13.60367152205221  0.99930964176418  0.54851776267627
 1  13.85743997099710 -0.68545497329733  1.15909275517552
 1  15.24989733393339  0.35198640474047 -1.28545055835584
 1  14.89719527242724 -2.12887546934693 -1.18006733993399
 1  16.52549642314231 -1.90741477807781 -1.07007279117912
 1  15.59424470327033 -2.24928006060606  0.48440771217122
 1  15.80447072027203  1.60009657995800  0.85279573857386
 1  16.13074773157316  0.34300492379238  1.54433785638564
 1  17.96785800750075 -0.16960117061706 -0.69545941374137
 1  17.45464004960496  1.47143903220322 -1.10576900940094
 1  18.19462415191519  2.56883327922792  1.07603299299930
 1  18.67585984018402  0.90631644114411  1.64139128912891
 1  20.39858619101910  0.65719368036804 -0.05845468926893
 1  19.45706306290629  3.40840911101110 -1.11620352275228
 1  21.22819006270627  2.69968803850385 -1.13990709730973
 1  19.65178015101510  1.72728835053505 -2.08695087658766
 1  21.06458169466947  1.61348281628163  2.31262229882988
 1  21.77437029422942  2.29117914531453  0.96649080618062
 1  20.64764439383939  3.34948814841484  1.55804454235424
 1 -7.15422725582558  1.77849672287229  0.15807765386539
 1 -7.42132368076808 -0.28417859385939  0.07394726712671

