%nproc=3
%Mem=2GB
# td=(NStates=1) B3LYP/SVP 

TD

0 1
 6 -5.19484718281828 -1.89549579167917  0.52177705360536
 6 -4.81702202120212  2.78927537923792  1.56965335123512
 6 -9.37136704640464  3.15283608280828 -0.17299576747675
 6 -9.81059911441144 -1.58389919331933 -0.92391494489449
 7 -5.14418358065807  0.50263188608861  0.73781221822182
 6 -4.53056167226723 -0.66776349734974  0.79676311971197
 6 -3.02737242374237 -0.55741217591759  1.14248924472447
 6 -3.04215918131813  0.84270316261626  1.88427753355336
 6 -4.47349654275428  1.43523334123412  1.31987558455846
 6 -2.96372494099410  0.87881539383938  3.37197506010601
 6 -1.95633770447045 -0.74316427812781 -0.02286434083408
 6 -0.57391060326033 -0.67000521712171  0.42683513621362
 6  0.40413407480748 -0.93176004890489 -0.71919347694770
 8  0.09874164176418 -1.36272863946395 -1.77086069756976
 8  1.64797499459946 -0.53843061616162 -0.41101354405441
 7 -7.02736733133313  2.70744801660166  0.48582809200920
 6 -5.99647122252225  3.38652307060706  1.03381423832383
 6 -6.37922110781078  4.79865630513051  1.08991548434843
 6 -7.69429852665266  4.95314414991499  0.54647117451745
 6 -8.13299424532453  3.56163465716572  0.19190934633463
 6 -5.46888740524052  5.86322183728373  1.68065933193319
 6 -8.28188547124712  6.17384139573957  0.32694119541954
 6 -9.12337023522352  6.57377709960996 -0.70616309510951
 7 -9.21375957655765  0.76188342134213 -0.54734720312031
 6 -9.88843270617062  1.96875937463746 -0.55683495269527
 6 -11.40728459495950  1.77090065106511 -0.79314314821482
 6 -11.45808975947595  0.52317965806581 -1.14279923462346
 6 -10.08379060476048 -0.18088804050405 -0.91735497799780
 6 -12.35928442934293  3.02621112271227 -1.00389347964796
 6 -12.66634437393739 -0.28394087358736 -1.70938189788979
 6 -12.65529566026603 -0.50334359875988 -3.22697086838684
 7 -7.48750770837084 -1.32581426662666 -0.35352388088809
 6 -8.59550113761376 -2.11022974977498 -0.66350971337134
 6 -8.10845328432843 -3.49028591079108 -0.66423899119912
 6 -6.81439634873487 -3.38552538083808 -0.31032865676568
 6 -6.47661876527653 -2.05081790039004 -0.08040296409641
 6 -8.97207996559656 -4.69784053355336 -0.89952894729473
 6 -5.69471641684168 -4.25749078417842  0.08948989458946
 8 -5.72146163636364 -5.42472200230023  0.13245597969797
 6 -4.52236986558656 -3.36772753435344  0.41504056615662
 6 -3.95322912081208 -3.77066115961596  1.81776830253025
 8 -4.04206928042804 -3.22556048994899  2.90494856295630
 8 -3.17239592719272 -4.86447142004200  1.68000842874287
 6 -2.60754545834584 -5.51967141324132  2.86210835043504
 6  2.73186535513551 -0.85082898049805 -1.31329535533553
 6  4.06175942274227 -0.64594509690969 -0.62247434753475
 6  5.02363462006201  0.19240029492949 -1.08335229182918
 6  4.89906910261026  1.11658238993899 -2.41664878167817
 6  6.28207995319532  0.27062480168017 -0.31065998019802
 6  7.56279752015201 -0.23980016291629 -1.04142100900090
 6  8.83215481658166 -0.08798278337834 -0.18555690319032
 6  10.10186111181118 -0.66851117771777 -0.85197255205521
 6  10.08600463906391 -2.17827163006301 -1.27376666156616
 6  11.29884373457346 -0.24678899359936  0.09646909120912
 6  12.78765043924393 -0.54448976617662 -0.61663618671867
 6  13.87913650305031 -0.04856208240824  0.29231128662866
 6  15.33557246904690 -0.36132701420142 -0.24885844374437
 6  15.66954652645264 -1.91045991139114 -0.13789255755576
 6  16.28327907220722  0.50586510381038  0.41624064636464
 6  17.81738662746275  0.56847976567657 -0.16569047044704
 6  18.65372629692969  1.57717204610461  0.53230404660466
 6  20.16091799339934  1.52401020562056  0.17369909740974
 6  20.33382408130813  2.01122769886989 -1.29688776657666
 6  20.97500002130213  2.44104544334433  1.15088687688769
 1 -4.03152081238124  3.46140737273727  1.94470935183518
 1 -10.14819267236724  4.08991623372337 -0.31862318501850
 1 -10.61771602800280 -2.27089424492449 -1.11158063116312
 1 -2.96199852685269 -1.16668590379038  2.06906778247825
 1 -2.19168048254825  1.55475569876988  1.53774668686869
 1 -1.90423068106811  0.55026139453945  3.78773787778778
 1 -3.01740723262326  1.92122717241724  3.73239343454345
 1 -3.80909050595059  0.22269745424542  4.04962013821382
 1 -2.35603111151115 -1.65642037513751 -0.53165761296130
 1 -2.26305964536454  0.09987617861786 -0.64959165336534
 1 -0.36381220102010  0.42046590019002  1.00001036233623
 1 -0.43900423972397 -1.29845180378038  1.21034854325433
 1 -4.57663247974798  5.97848221632163  0.97768056785679
 1 -5.97149235563556  6.83585850055006  1.38598789338934
 1 -5.46151423822382  5.36776482048205  2.83746788078808
 1 -7.95923093249325  6.97271714621462  1.13999555345534
 1 -9.42971832373237  5.99412957345734 -1.47318890499050
 1 -9.53651839843984  7.63897262476248 -0.60334055695569
 1 -12.21432579457946  3.92553174037404 -0.23093090619062
 1 -12.13902775107511  3.68950290769077 -2.12861217801780
 1 -13.40859188198820  2.79999783548355 -1.00236459185919
 1 -12.66454882808281 -1.38901782848285 -1.39708445954595
 1 -13.66196322082208 -0.13322916821682 -1.51317367616762
 1 -13.04205983588359  0.58699551265127 -3.86199354365437
 1 -11.76770173817382 -0.87050462406241 -3.69836878897890
 1 -13.67901465496550 -1.17620671547155 -3.43535107740774
 1 -9.68773532233223 -4.87153647344735  0.09455715371537
 1 -9.54220819971997 -4.51852979897990 -1.87205410361036
 1 -8.29783495819582 -5.50434870187019 -1.04907286278628
 1 -3.66709856125613 -3.50548683888389 -0.26292764136414
 1 -1.96874726772677 -6.30544564026403  2.60455378947895
 1 -2.12345079147915 -4.89741322522252  3.56500094269427
 1 -3.51646466286629 -5.91177626922692  3.38536541214121
 1  2.68986289378938 -1.98818646214621 -1.44497566456646
 1  2.76649154365437 -0.45544312511251 -2.15754352155216
 1  4.18515128682868 -1.11773408770877  0.42666056905691
 1  4.99338116731673  2.19534204320432 -2.13374809460946
 1  5.65810242744274  0.78430439293930 -3.08177957955796
 1  3.86977709590959  0.98095928272827 -3.01449227432743
 1  6.78998701490149  1.21671779677968 -0.11005119621962
 1  6.05489353405340 -0.19626951655166  0.61822953035303
 1  7.30153693859386 -1.24820154475448 -1.27660842044204
 1  7.65797534003400  0.27025904650465 -1.86082091109111
 1  9.04998048544854  0.85736457775778 -0.01647149884988
 1  8.68459152195220 -0.59856400790079  0.84839765216522
 1  10.29075174377438  0.16640919761976 -1.75344991999200
 1  9.30202051825183 -2.39175786898690 -1.99748829662966
 1  10.92241727282728 -2.52925452525253 -1.71038164306431
 1  9.95098011811181 -2.71595328092809 -0.17807607690769
 1  11.25756105350535  0.79970875097510  0.31524010921092
 1  11.11769773327333 -0.68989422592259  0.92989291949195
 1  12.87799250985099 -1.82602417361736 -0.91401461446145
 1  12.85489364156416 -0.06483656265627 -1.60819235293529
 1  13.88878003290329  0.98368807960796  0.23659657055706
 1  13.69493372037204 -0.54888131593159  1.21882872877288
 1  15.31500384458446  0.04969617571757 -1.36637865116512
 1  14.84568012091209 -2.73032561436144 -0.68264759795980
 1  16.77420129362936 -2.02001603820382 -0.68986477037704
 1  15.85672095089509 -2.47211234383438  0.97465673707371
 1  15.97566783998400  1.67732430273027  0.44137459645965
 1  16.18854351115112  0.12782340564056  1.34510793339334
 1  18.13101432313231 -0.48432264276428 -0.17154702250225
 1  17.54668925452545  0.78039992829283 -1.18558699119912
 1  18.33454814431443  2.66516291219122  0.39926531623162
 1  18.74594684888489  1.33974978447845  1.65404255425543
 1  20.43130946334633  0.58670663166317  0.42206336253625
 1  20.29640699729973  3.23615188528853 -1.59876177857786
 1  21.30537778147815  1.64427249694969 -1.86467957455746
 1  19.67406237923792  1.53377899959996 -1.97521970347035
 1  20.88550378687869  1.90897236523652  2.12606364296430
 1  21.93118597579758  2.40151017841784  0.84218837593759
 1  20.67362699209921  3.49913311291129  1.42866160406041
 1 -6.99878171127113  1.63127200040004  0.63444529062906
 1 -7.81090263866387 -0.33325350135013 -0.02967309490949

