%nproc=3
%Mem=2GB
# td=(NStates=1) B3LYP/SVP 

TD

0 1
 6 -5.16736443454345 -1.98510475257526  0.42214709060906
 6 -4.78656897589759  2.65897234893489  1.40695708160816
 6 -9.30713062276228  3.35586638583858 -0.25821428932893
 6 -9.83789184368437 -1.33302410581058 -0.96842939633963
 7 -5.21703086538654  0.35001662456246  0.77561599859986
 6 -4.50490910701070 -0.85026174717472  0.80239368276828
 6 -3.10709039553955 -0.65734216891689  1.18827382318232
 6 -3.10422538793879  0.84702359465947  1.68626773257326
 6 -4.50238943204320  1.30802061996200  1.22721631863186
 6 -3.06853542204220  0.86337384968497  3.22886074867487
 6 -2.05457752845285 -0.85154511621162  0.03702164776478
 6 -0.51754496669667 -0.93646186278628  0.57473992669267
 6  0.38847250865087 -1.15375224812481 -0.47270882848285
 8  0.05732750035004 -1.58002036863686 -1.54790840234023
 8  1.61188138523852 -1.02149892299230 -0.09529197189719
 7 -7.01081567616762  2.84855212701270  0.37159666886689
 6 -5.89350092549255  3.36273069136914  0.97174803170317
 6 -6.20014320002000  4.77896433593359  1.05782227502750
 6 -7.42870196699670  5.00403923942394  0.55700222762276
 6 -8.10752169806981  3.72211070477048  0.13231338673867
 6 -5.25286580308031  5.86995251035104  1.53609487548755
 6 -8.09128641134113  6.32984699629963  0.52544104540454
 6 -9.13073097129713  6.71186090799080 -0.30838331713171
 7 -9.22397059765976  0.94842207520752 -0.49871233963396
 6 -9.79014287718772  2.08643114181418 -0.52520178937894
 6 -11.15215908240824  2.00463402440244 -0.95833966786679
 6 -11.33738768926893  0.65492283238324 -1.25698065276528
 6 -10.14271649734973  0.00714076237624 -0.87233047554755
 6 -12.15301380228023  3.12444094569457 -1.36907999829983
 6 -12.66583432293229  0.00738825932593 -1.64182514221422
 6 -12.58062819351935 -0.41762502690269 -3.19465763706371
 7 -7.51710066766677 -1.24577626282628 -0.20199872837284
 6 -8.54417600510051 -1.96018474527453 -0.68330169256926
 6 -8.22194463346335 -3.32785966816682 -0.70748331563156
 6 -6.85053996309631 -3.35694252255226 -0.42237986188619
 6 -6.47714881828183 -2.04184700330033  0.00434551075107
 6 -9.13870662826283 -4.53428417791779 -0.94277327172717
 6 -5.78089503470347 -4.33941897699770 -0.09097815221522
 8 -5.71461095129513 -5.49634916501650 -0.21861912781278
 6 -4.60774840344034 -3.33785454705471  0.47085614771477
 6 -4.09074287218722 -3.79949404290429  1.81850837653765
 8 -4.44383945744574 -3.41151908580858  2.87624569266927
 8 -3.16565525312531 -4.83880885378538  1.70797122502250
 6 -2.83557826162616 -5.54543398949895  2.82356449604961
 6  2.71397356595660 -1.19161305890589 -1.03991801760176
 6  4.01462470927093 -0.80113061546155 -0.27921002110211
 6  5.05204746134613 -0.07933687878788 -0.89246320292029
 6  5.16168536423642  0.47285801750175 -2.29962707950795
 6  6.32120386558656 -0.02197445824582 -0.07088600280028
 6  7.52932417281728 -0.59455563846385 -0.79600646754675
 6  8.82061366246625 -0.31900588568857 -0.02007035453545
 6  10.13555448114811 -0.77121144774477 -0.78606596139614
 6  10.15775181378138 -2.25511931483148 -0.94148343324332
 6  11.39302315251525 -0.37815212991299  0.06010545484548
 6  12.78499017321732 -0.48648396559656 -0.56029055215522
 6  13.87037562696270  0.00004277807781  0.17103915941594
 6  15.24422333413341 -0.17418830033003 -0.42685624352435
 6  15.69095866766677 -1.63243210861086 -0.39274804310431
 6  16.28295904020402  0.71781629892989  0.33046206850685
 6  17.69706459525953  0.83114603230323 -0.35174907630763
 6  18.65607653195319  1.80317464636464  0.39324014021402
 6  20.13904580618062  1.94708251285128 -0.01233950645064
 6  20.14682538143814  2.56016259235924 -1.43831190899090
 6  20.89514203550355  2.80307164596460  0.93239502770277
 1 -3.94187184748475  3.40107133913391  1.74264914581458
 1 -9.99754760786079  4.22718996109611 -0.40769209190919
 1 -10.70532478887889 -1.86641379687969 -1.09630910401040
 1 -2.85070739773977 -1.51104033923392  1.82833370907091
 1 -2.20933224772477  1.36728695189519  1.17403031523152
 1 -2.02323258125812  0.61829819821982  3.54930403440344
 1 -3.50037552945295  1.90949599929993  3.64669486468647
 1 -3.85625522242224  0.08916410091009  3.45218039423942
 1 -2.39455496389639 -1.73192792589259 -0.33963841104110
 1 -2.12175551495150 -0.08363217221722 -0.77781447564756
 1 -0.22116793659366 -0.00344649104911  1.29366972827283
 1 -0.55432577187719 -1.75179713831383  1.42668017641764
 1 -4.37775259175918  5.74542891099110  0.85008780858086
 1 -5.56889209560956  6.81925684038404  1.55555485008501
 1 -4.78884697149715  5.51041908590859  2.49693382738274
 1 -7.87256226562656  7.01925179967997  1.38476002990299
 1 -9.29784513641364  6.03577373787379 -1.03154474057406
 1 -9.58875362196219  7.73496222372237 -0.20161038393839
 1 -12.51276563856386  3.70508969616962 -0.45311312441244
 1 -11.61261510981098  3.68222217961796 -2.06878619541954
 1 -13.09148017081708  2.85486332203220 -1.85100945634563
 1 -12.68299067226723 -0.98924785148515 -0.97369212031203
 1 -13.36722374687469  0.48490264496450 -1.57413977277728
 1 -12.58377400730073  0.66610342344234 -3.65406275057506
 1 -11.65908087608761 -1.15119269286929 -3.42607155925593
 1 -13.54196094959496 -1.00693978877888 -3.56053359565957
 1 -9.85755230403040 -4.53333265306531 -0.09473177517752
 1 -9.81688566746675 -4.60678862486249 -1.85470236843684
 1 -8.35986116081608 -5.47033530053005 -1.07909586508651
 1 -3.83221507290729 -3.62652894309431 -0.27234858345835
 1 -2.25389578257826 -6.41974707040704  2.43679701380138
 1 -2.38937738413841 -5.09704318821882  3.46799124172417
 1 -3.80973398979898 -5.99753484508451  3.42176905250525
 1  2.61129503700370 -2.14600224372437 -1.25346651365137
 1  2.27895278977898 -0.62265984678468 -1.95152291949195
 1  4.01488426012601 -1.09549186348635  0.90042794579458
 1  5.73240506970697  1.42403491249125 -2.36324104390439
 1  5.56837345454545 -0.37551158865887 -2.85371677327733
 1  4.21308142634263  0.69564075087509 -2.92010283538354
 1  6.38221623782378  1.13540966596660 -0.02240243134313
 1  6.18172621732173 -0.44141403100310  0.82164987238724
 1  7.57201398629863 -1.70294701930193 -0.68464922452245
 1  7.74680422292229 -0.22365034443444 -1.73487831683168
 1  9.03985947334733  0.67214605590559  0.13016316461646
 1  8.87583064586459 -0.92136628812881  0.88371118351835
 1  10.04432710131013 -0.29300674397440 -1.83876845184518
 1  9.32751306750675 -2.56550524372437 -1.64355290309031
 1  11.09753478457846 -2.64668626842684 -1.42022262716272
 1  9.94427944804480 -2.90689237483748 -0.01149941924192
 1  11.32568786618662  0.63859263936394  0.34739332453245
 1  11.31317728122812 -0.99313454995500  0.98477840804080
 1  12.91301601220122 -1.60630220142014 -0.56551976497650
 1  12.60909906210621 -0.09666974597460 -1.59116064976498
 1  13.65042619751975  1.12285199599960  0.41157406830683
 1  13.88535276227623 -0.53989041684168  1.27167401330133
 1  15.17854019821982  0.14309551565157 -1.49576158945895
 1  15.05976152905290 -2.19472205400540 -0.99559889308931
 1  16.65676955045505 -1.69718375497550 -0.84852063596360
 1  15.78783406220622 -1.89129426202620  0.73834310571057
 1  15.73842411561156  1.73693026332633  0.40832129112911
 1  16.41369602640264  0.09890051335134  1.18259168176818
 1  18.21710293199320 -0.16853106360636 -0.25429529732973
 1  17.53600818641864  1.24712660096010 -1.40624905740574
 1  18.08072276177618  2.55370176607661  0.48695408510851
 1  18.81737399159916  1.37004281378138  1.52846999699970
 1  20.73079941234123  1.03970193119312 -0.13967281108111
 1  19.52320967756776  3.65648391849185 -1.51083298569857
 1  21.08733597729773  2.52962103180318 -1.82584569116912
 1  19.59037401040104  1.75993161486149 -2.06344852635264
 1  20.86707194369437  2.26849831783178  1.96786782338234
 1  21.99204206140614  3.06221624902490  0.55533969106911
 1  20.41334096349635  3.74972817241724  0.92087082498250
 1 -7.02947478057806  1.71987086028603  0.59263110921092
 1 -7.76562811121112 -0.37539771577158 -0.08809893749375

