%nproc=3
%Mem=2GB
# td=(NStates=1) B3LYP/SVP 

TD

0 1
 6 -5.17420511861186 -1.93550979307931  0.49680455635564
 6 -4.78363868286829  2.66167261896190  1.39612599849985
 6 -9.23021293099310  3.35942674187419 -0.30415888378838
 6 -9.85563361786179 -1.38758956235624 -0.89255180858086
 7 -5.14262342464246  0.33861548444844  0.66143458045805
 6 -4.46174479057906 -0.69396611761176  0.75661910531053
 6 -3.04878456495650 -0.64189062376238  1.22475747154715
 6 -3.12783774917492  0.81497038933893  1.92395150095010
 6 -4.44560375347535  1.32887270517052  1.29489308630863
 6 -3.14745331383138  0.69993750605061  3.43094095669567
 6 -1.96372844354435 -0.80709067076708  0.12630057565757
 6 -0.58422163436344 -0.77122533913391  0.56836928962896
 6  0.37857151855186 -1.05474234713471 -0.58431998959896
 8 -0.03781201360136 -1.37922028862886 -1.66939055055506
 8  1.59503970107011 -0.86326309940994 -0.26323876657666
 7 -6.90311490609061  2.84382165396540  0.31293080228023
 6 -5.83184475987599  3.35919033733373  0.90799165606561
 6 -6.17432061776178  4.81466790629063  0.97688418121812
 6 -7.42051114791479  4.97616645214521  0.45906243364336
 6 -7.94672561846185  3.69627812151215  0.14348450385039
 6 -5.10768128462846  5.78703421852185  1.41623288928893
 6 -8.08670595329533  6.22977698929893  0.36013451475148
 6 -8.80534843304330  6.71046076797680 -0.67685016381638
 7 -9.26199440004000  0.89006623962396 -0.57258972737274
 6 -9.82809667256726  2.10474297299730 -0.63379264846485
 6 -11.19664353085309  2.00160372137214 -0.87997183108311
 6 -11.46916086658666  0.63475081518152 -1.01765672037204
 6 -10.16366859255925  0.00542059035904 -0.89177241974197
 6 -12.23954245514551  3.01927042864286 -0.85683877417742
 6 -12.68255599509951 -0.21427390689069 -1.44667562726273
 6 -12.55007513821382 -0.60420368476848 -2.95334350565056
 7 -7.49471842944294 -1.25113679887989 -0.24117264576458
 6 -8.64093568106811 -1.99233796059606 -0.67021038343834
 6 -8.17453989298930 -3.43105998819882 -0.62462502980298
 6 -6.88355326442644 -3.40343717201720 -0.16875449934993
 6 -6.54532563596360 -2.04049686828683  0.03050812701270
 6 -9.07831058865887 -4.48079882938294 -0.96015500990099
 6 -5.72329927512751 -4.31224625972597  0.11664260986099
 8 -5.63310280048005 -5.52806233633363 -0.09053631953195
 6 -4.59882751135114 -3.36574733633363  0.41782084418442
 6 -4.04264806270627 -3.88924301780178  1.76795332103210
 8 -4.32986806030603 -3.45840377427743  2.85812388048805
 8 -3.14522320992099 -4.95584055695570  1.50361078897890
 6 -2.56909161296130 -5.47750719681968  2.70711285088509
 6  2.64786695529553 -1.05002890049005 -1.25055908170817
 6  4.02884613141314 -0.81176167856786 -0.64239633973397
 6  4.96267852445245 -0.04944388948895 -1.16736069266927
 6  4.89771896759676  0.79627035873587 -2.41564868166817
 6  6.24007575277528  0.18131587078708 -0.37943685788579
 6  7.50095133553355 -0.29722590549055 -1.08090495739574
 6  8.80265186628663 -0.13193717881788 -0.27088543604360
 6  10.17591851755176 -0.69977430403040 -0.95692304710471
 6  10.07179321792179 -2.28661246414641 -1.07738702360236
 6  11.27190104030403 -0.29824413911391 -0.05045560126013
 6  12.66618829302930 -0.69729504670467 -0.51579610271027
 6  13.86531512091209 -0.03877110331033  0.28388044354435
 6  15.26569548134813 -0.28216909840984 -0.31591514941494
 6  15.53898347014701 -1.73389225462546 -0.16133490179018
 6  16.18858960326033  0.69032354965497  0.49860888318832
 6  17.77236212501250  0.60606352405241  0.03337943654365
 6  18.58242916721672  1.57279160806081  0.66600741694169
 6  20.01074297589759  1.86478428302830  0.01523325082508
 6  20.01289198809881  2.60575715181518 -1.26160423822382
 6  20.94949747104711  2.60259159795980  1.11530331853185
 1 -4.04554221452145  3.30640187218722  1.72139702060206
 1 -9.96600445354535  4.23716095819582 -0.50576189888989
 1 -10.71280553695370 -2.11946910241024 -1.02953242634263
 1 -2.78444077107711 -1.19639887508751  2.08323919961996
 1 -2.29815112961296  1.31798202140214  1.45518843104310
 1 -2.12855311331133  0.74843121152115  3.75272437643764
 1 -3.61219671157116  1.61905695539554  4.07062725792579
 1 -3.61957155405541 -0.38751356685669  3.66882205840584
 1 -2.10584609300930 -1.78235296839684 -0.35906035323532
 1 -2.22315565496550 -0.23312712171217 -0.72752944714471
 1 -0.03979979977998  0.17222107570757  0.78105846714671
 1 -0.34251459075908 -1.35383734233423  1.49425693409341
 1 -4.21237605410541  6.01403577167717  0.64692749254925
 1 -5.42282748914891  6.95561047574757  1.78120741534153
 1 -4.50470855765577  5.52268031203120  2.21721585558556
 1 -7.55365037443744  6.99391926642664  0.95184673857386
 1 -9.10110546244625  6.00334049454945 -1.47508909500950
 1 -9.01999674627463  7.74428315581558 -0.69341956485649
 1 -12.35843020502050  3.43437262446245  0.10327251415142
 1 -11.80979482778278  3.79808376577658 -1.51219053585359
 1 -13.15662668546855  2.76341417711771 -1.26654100950095
 1 -12.89354172737274 -1.07917684438444 -0.90168491959196
 1 -13.62839986448645  0.47039119381938 -1.41823418221822
 1 -12.53997962786278  0.39890670377038 -3.69274661896190
 1 -11.66504147214721 -1.25102267586759 -3.10750970307031
 1 -13.49800655415542 -1.11638073287329 -3.20347789008901
 1 -9.66917346614662 -4.51178049784979  0.17711540954095
 1 -9.90984496339634 -4.28548649464946 -1.82393929212921
 1 -8.59273444814481 -5.37836610361036 -1.30029798529853
 1 -3.70384223562356 -3.82594888508851 -0.21942329092909
 1 -1.48644903790379 -5.95872096779678  2.57836117021702
 1 -2.33388183458346 -4.51317480138014  3.36448089068907
 1 -3.10114313071307 -6.18318340994099  3.33725060066007
 1  2.52287619511951 -2.09245688918892 -1.56848801580158
 1  2.44244913941394 -0.77282486328633 -2.43042080928093
 1  4.14586735843584 -1.19390170447045  0.32606050905091
 1  5.28448027722772  1.83121563056306 -2.02113683348335
 1  5.64928154535454  0.60841680418042 -3.16658806040604
 1  3.77957807600760  0.72685387218722 -2.91393221832183
 1  6.26243425962596  1.30751687668767 -0.13472366346635
 1  6.19672771747175 -0.28458834843484  0.59781748914891
 1  7.46353313821382 -1.42620934553455 -1.39569032863286
 1  7.69781932443244  0.28929094969497 -2.07538236723672
 1  8.86432191959196  1.00223906520652  0.01852200050005
 1  8.89545260806081 -0.55310946244625  0.82751556395640
 1  10.61327399599960 -0.33160060336034 -1.95253982898290
 1  9.32529284548455 -2.68404709790979 -1.82644119191919
 1  11.16371140224022 -2.83529512931293 -1.36673727862786
 1  9.90981600170017 -2.75013669926993 -0.01183945324532
 1  11.34054935233523  0.77391617171717  0.02444102930293
 1  11.28937490099010 -0.56464170067007  0.95692562276228
 1  12.76191090169017 -1.83360493169317 -0.69354256725673
 1  12.89016716891689 -0.44590466946695 -1.47555908960896
 1  13.49557071197120  0.97571728252825  0.45216812771277
 1  13.62586681368137 -0.45158158595860  1.31835868176818
 1  15.19286163036304 -0.08414720862086 -1.59708172147215
 1  14.81928748164816 -2.30489307110711 -0.68875820902090
 1  16.41547542104210 -2.00030406700670 -0.87625340924092
 1  15.66486176497650 -1.99410454305431  0.93593286468647
 1  15.70689096229623  1.75493206350635  0.27180763976398
 1  16.24942959975998  0.38787941124112  1.56170959355936
 1  18.08280950265026 -0.51204541504150  0.02301243344334
 1  17.60272485808581  0.60216210451045 -1.17359579207921
 1  18.16526121562156  2.68183457935794  0.42342773247325
 1  18.71059331353135  1.42476828632863  1.72557970797080
 1  20.34012034443444  0.79924788578858  0.06565772197220
 1  19.52992034863486  3.63490176027603 -1.05792769516952
 1  21.05955319901990  2.78112618231823 -1.69568267486749
 1  19.31879685268527  2.14516013771377 -2.08547072857286
 1  20.91906714321432  2.01777324532453  2.03232426902690
 1  22.02141499869987  2.71864189158916  0.58822297939794
 1  20.61560118951895  3.72115531513151  1.05950468836884
 1 -7.12659449254926  1.81056993019302  0.04685653175317
 1 -7.65695724412441 -0.39909008500850 -0.09462959055906

