%nproc=3
%Mem=2GB
# td=(NStates=1) B3LYP/SVP 

TD

0 1
 6 -5.10192789088909 -1.95362160426043  0.43812868876888
 6 -4.84087440644064  2.83595004670467  1.22993937983798
 6 -9.41024093379338  3.21765256445645 -0.10716918481848
 6 -9.83121117561756 -1.43110391379138 -0.90642319571957
 7 -5.26938610091009  0.40307193009301  0.78420685768577
 6 -4.49204782088209 -0.77925464646465  0.80742418581858
 6 -3.08295798229823 -0.55022145684568  1.24559955575558
 6 -3.11072603800380  0.94442333463346  1.79758886468647
 6 -4.50455964906491  1.44067388528853  1.26075967296730
 6 -3.06931550005000  1.03186069836984  3.24379224182418
 6 -2.05100717141714 -0.74776473817382 -0.01442349674967
 6 -0.60794400660066 -0.78673689028903  0.51479393209321
 6  0.47406106750675 -0.86075294819482 -0.57661921952195
 8  0.11718348594860 -1.08320068666867 -1.75701931343134
 8  1.71651184828483 -0.72107888098810 -0.16247869056906
 7 -7.08202279687969  2.69153642544254  0.28536804600460
 6 -6.06826840224022  3.35347976627663  0.88843970087009
 6 -6.45031821752175  4.75999243874387  1.07261375417542
 6 -7.68355745254525  4.91686052155216  0.58088461586159
 6 -8.20117106300630  3.62999149284928  0.19084924032403
 6 -5.44980549704970  5.84100961606161  1.56051731773177
 6 -8.33335061776178  6.20593460506051  0.52177067836784
 6 -9.05230312851285  6.52464218611861 -0.69276175497550
 7 -9.23386158675867  0.89759699269927 -0.35745821422142
 6 -9.95827969086909  1.96165866456646 -0.40444971417142
 6 -11.30067393389339  1.78586214721472 -0.76899073297330
 6 -11.46269021952195  0.44975231533153 -1.01325628032803
 6 -10.15224745044504 -0.08940889258926 -0.75822906540654
 6 -12.38711721262126  2.89806830843084 -1.15645873617362
 6 -12.70049778927893 -0.35255773527353 -1.58975993569357
 6 -12.74116424712471 -0.55010827522752 -3.13131130243024
 7 -7.46959591719172 -1.29823150835084 -0.15300382888289
 6 -8.64306589408941 -2.06204493129313 -0.49894325672567
 6 -8.17647008600860 -3.43591047324733 -0.64087665496550
 6 -6.77217212631263 -3.38434526282628 -0.16303392729273
 6 -6.38500960436044 -2.11780459905991  0.03434851105111
 6 -8.88806156375638 -4.65268601810181 -1.05064405880588
 6 -5.72766971217122 -4.38004303940394  0.03774472007201
 8 -5.71584107430743 -5.58108763886389 -0.13425069096910
 6 -4.56176380498050 -3.35624638623862  0.43954301640164
 6 -4.00985478337834 -3.72840693419342  1.76850337603760
 8 -4.25039011251125 -3.30346828072807  2.79171723982398
 8 -2.97989667726773 -4.72338731163116  1.52558298619862
 6 -2.45802050585059 -5.21587103320332  2.75773791339134
 6  2.71460362896290 -0.89662355995600 -1.26283030883088
 6  4.05874912171217 -0.64735523792379 -0.66700880098010
 6  5.07669992659266  0.16441749664967 -1.09702365896590
 6  4.92959215491549  1.02074280598060 -2.36203332013201
 6  6.34369611481148  0.18684642384238 -0.37251616581658
 6  7.53113435383538 -0.50391657455746 -1.09310617751775
 6  8.87024862596260 -0.00787477257726 -0.44002234973497
 6  10.10191111681168 -0.63177750435044 -0.94284163896390
 6  9.99774581318132 -2.24655845874587 -0.91925121002100
 6  11.35690954115412 -0.18300261496150 -0.12894345004500
 6  12.73251492569257 -0.68215353255326 -0.63164768786879
 6  13.96189477887789 -0.14657188338834  0.14248630413041
 6  15.32048095989599 -0.34430531203120 -0.27013057095710
 6  15.63064263606361 -1.91952081748175 -0.10154892319232
 6  16.40190093439344  0.54472899019902  0.31331035333533
 6  17.89248413721372  0.49881279897990 -0.06275017641764
 6  18.64833575787579  1.64729905880588  0.51220203640364
 6  20.22013391499150  1.55432323692369  0.19578130563056
 6  20.49695039393939  1.96617319341934 -1.12762083988399
 6  20.96972949424943  2.51867320612061  1.29634142234223
 1 -4.10965862616262  3.32374360636064  1.88757363826383
 1 -10.03810166326633  4.02151939403940 -0.07351867456746
 1 -10.66429068546855 -2.02111926742674 -1.23089256235624
 1 -2.79432175917592 -1.33771300650065  2.06180705640564
 1 -2.43695501000100  1.55052527572757  1.19829274147415
 1 -2.10310056805681  0.70980734913491  3.61641074507451
 1 -3.35527101900190  1.94331938163816  3.58130832603260
 1 -3.88913851075108  0.25526071057106  3.66870204640464
 1 -2.23905941434143 -1.51981671477148 -0.71106555375538
 1 -2.27856119551955  0.06717290829083 -0.87169386358636
 1 -0.15515133493349  0.00202405600560  1.07245760706071
 1 -0.23263360266027 -1.69476143474347  1.17249475787579
 1 -4.90550536703670  6.17740210831083  0.54402720252025
 1 -5.96304151055106  6.82481739643964  2.11562085668567
 1 -4.73056114291429  5.49674771877188  2.45220935493549
 1 -8.03768877827783  6.83492336683668  1.23697525142514
 1 -9.08010336223622  6.04125428592859 -1.63456504260426
 1 -9.29852459905991  7.52117084458446 -0.71750197309731
 1 -12.81020538253825  3.48366755395540 -0.07332514561456
 1 -11.96969081738174  3.46790074747475 -1.95979529632963
 1 -13.41699272207221  2.51702953865387 -1.61125548094809
 1 -12.56138851205120 -1.09311823852385 -0.96919167026703
 1 -13.66189321382138  0.10073422812281 -1.22938529732973
 1 -12.82361799169917  0.52177899099910 -3.67158450275028
 1 -11.88562353035304 -1.13113068666867 -3.54254320642064
 1 -13.55953270677068 -1.03511260606061 -3.56046358865887
 1 -9.75202175097510 -4.66487580738074 -0.25950825282528
 1 -9.54023800270027 -4.52547049304930 -2.07362426062606
 1 -8.39589476417642 -5.50726899389939 -1.09811776727673
 1 -3.87701955335534 -3.46885317551755 -0.29788113671367
 1 -1.96975736873687 -6.15667076277628  2.33489682378238
 1 -1.71305975237524 -4.40074355825583  3.24199864246425
 1 -3.18254127052705 -5.37160225182518  3.66422329792979
 1  2.68040194769477 -1.79462710621062 -1.66839800680068
 1  2.23826872137214 -0.15882346314631 -2.05601336853685
 1  4.44406717841784 -1.18808112241224  0.28535643864386
 1  5.41417324652465  2.15500800980098 -2.28260298009801
 1  5.40622723992399  0.62857882038204 -3.23267466906691
 1  3.97536765496550  1.28800998779878 -2.57492831793179
 1  6.78464648084808  1.31394751975198 -0.38761895299530
 1  6.10368841354135  0.06208631903190  0.63935164256426
 1  7.33594037893789 -1.58850557515752 -1.16956771637164
 1  7.40901044354436 -0.26886486588659 -2.15693052205221
 1  9.12920840824082  1.06409525082508 -0.67089694139414
 1  8.67300036283628 -0.15568972047205  0.77309012141214
 1  10.25305797439744 -0.53403084638464 -2.02839741474147
 1  9.13756407260726 -2.48431712491249 -1.57698624642464
 1  10.98356338743874 -2.64239583938394 -1.40146075097510
 1  9.95608062816282 -2.65689737533753 -0.09695796509651
 1  11.16827212461246  1.01959073917392 -0.23848526332633
 1  11.20742670617062 -0.48535377187719  1.05429535973597
 1  12.82015672627263 -1.81121269246925 -0.45947916091609
 1  12.98813696589659 -0.28401848084808 -1.53328486218622
 1  13.51500265516552  0.96131584238424  0.28555146604660
 1  13.81373560056006 -0.42556898469847  1.31404825072507
 1  15.42732507670767 -0.28601739563956 -1.50150216351635
 1  15.02391794469447 -2.63872645444544 -0.69626896009601
 1  16.76924079757976 -2.15205924252425 -0.51068685258526
 1  15.59800507930793 -2.40776590919092  0.82247151855186
 1  16.11587186038604  1.56425299559956  0.45037549654966
 1  16.34173883068307  0.29364998829883  1.39505292789279
 1  18.33502472417242 -0.56878108860886 -0.05797566536654
 1  17.68902348794879  0.81305319361936 -1.33341177367737
 1  18.45313000250025  2.59436583248325  0.28280367006701
 1  18.66650890509051  1.52684849434944  1.65969311931193
 1  20.57109344174417  0.65822378337834  0.37435859205921
 1  20.40038739533954  3.13105137523752 -1.23693559595960
 1  21.53552079577958  2.07390546024603 -1.48117122372237
 1  19.92685765876588  1.51514713641364 -1.89750193169317
 1  20.53401863836384  1.96452792079208  2.32427346394639
 1  22.03659651685168  2.67233726112611  1.09377353445345
 1  20.37201683108311  3.54563776337634  1.07003574147415
 1 -7.25572740584058  1.62664153735374  0.40296214231423
 1 -7.56744829322932 -0.40913108910891  0.10130000240024

