%nproc=3
%Mem=2GB
# td=(NStates=1) B3LYP/SVP 

TD

0 1
 6 -5.12568026612661 -1.98347458955896  0.60035491139114
 6 -4.59598991799180  2.71410786248625  1.48104449034903
 6 -9.17415732543254  3.40213101230123 -0.22711117901790
 6 -9.74691274577458 -1.35712651605161 -0.94265681908191
 7 -5.22777193949395  0.39687131003100  0.89345778277828
 6 -4.49341795789579 -0.73943066406641  0.86213965736574
 6 -3.00317000350035 -0.58205464016402  1.26966196199620
 6 -2.95559052445245  0.87826671897190  1.83049215501550
 6 -4.39350854395440  1.31561137903790  1.39834343134313
 6 -2.81451001950195  0.78682619491949  3.41192905550555
 6 -2.14458652935294 -0.82372233393339  0.09931787738774
 6 -0.65607882008201 -0.94024224082408  0.46785923862386
 6  0.30033369476948 -1.10919779267927 -0.68638019561956
 8 -0.07035526792679 -1.61436380298030 -1.76826043754375
 8  1.56685688278828 -0.96355312841284 -0.29344178687869
 7 -6.91747634223422  2.72253952575258  0.45386489568957
 6 -5.82496407180718  3.36161057935794  1.04050490739074
 6 -6.11521470717072  4.73081952145215  1.17402389518952
 6 -7.35802489928993  4.97663649914991  0.55690221762176
 6 -7.91779272517252  3.64382287598760  0.28150830623062
 6 -5.13627414391439  5.89629514461446  1.46833809980998
 6 -7.94599188188819  6.25396940854085  0.37709621092109
 6 -8.89339723792379  6.50272999489949 -0.59949242804280
 7 -9.13109130973097  0.92003923692369 -0.49284175257526
 6 -9.69542340524052  2.09688218691869 -0.52109137833783
 6 -11.17937180368037  1.94369793079308 -0.95752958685869
 6 -11.26987093759376  0.62905024512451 -1.14479943464346
 6 -10.06293851955195 -0.05696564826483 -0.89802304480448
 6 -12.10590909180918  3.09569807140714 -1.25038812911291
 6 -12.52370010951095 -0.14203668316832 -1.59294025372537
 6 -12.79907003770377 -0.10884414881488 -3.16459463076308
 7 -7.43006196379638 -1.27398908410841 -0.09528805730573
 6 -8.51576316381638 -1.97222594939494 -0.62320568296830
 6 -8.18704114311431 -3.33911079327933 -0.60842340964096
 6 -6.79454436353635 -3.42535936423642 -0.19328695259526
 6 -6.38475957935794 -2.10950376897690  0.12466754295430
 6 -9.12060481808181 -4.44982573207321 -0.94551354575458
 6 -5.69710665586559 -4.36313134823482  0.04027497309731
 8 -5.66477596779678 -5.56799632973297 -0.09011627752775
 6 -4.55317294589459 -3.38085884748475  0.49693875597560
 6 -4.00668446634663 -3.89215330883088  1.83332985868587
 8 -4.13793886738674 -3.24505243914391  2.86568463656366
 8 -3.42793148074808 -5.05426039893989  1.60709113701370
 6 -2.84318902270227 -5.68356780288029  2.78483062266227
 6  2.66327849644964 -1.25345924352435 -1.24259828562856
 6  3.95627887468747 -0.68089859225923 -0.68127022712271
 6  4.94213647024702 -0.10439938503850 -1.38397235383538
 6  4.94028322402240  0.23069380108011 -2.85999311611161
 6  6.15314705990599  0.34000173937394 -0.64342325652565
 6  7.37425866626663 -0.45417160006001 -1.20227709460946
 6  8.70679228032803 -0.04955894099410 -0.22610095759576
 6  9.99057998369837 -0.80650497709771 -0.73990134493449
 6  10.05261129972997 -2.31773557645765 -0.72440172507251
 6  11.19413326352635 -0.19262357705771 -0.00904145984598
 6  12.48641031523152 -0.58717403460346 -0.62028655175518
 6  13.70545913531353 -0.00351757795780  0.29114116961696
 6  15.08056696849685 -0.12565344684468 -0.36629018691869
 6  15.57492706450645 -1.54380324572457 -0.54067283558356
 6  16.14573531783179  0.82734725202520  0.26631565386539
 6  17.61606649544954  0.94666758445845 -0.20654455585559
 6  18.44371529582958  1.92215654455446  0.68211902810281
 6  19.95695759735974  1.79793759835984  0.37561928942894
 6  20.33380407930793  2.11326790289029 -1.05906398419842
 6  20.78608112941294  2.75492683148315  1.34144593279328
 1 -3.82048970927093  3.51097232923292  1.66825170607061
 1 -9.84218207130713  4.15844308640864 -0.53073439613961
 1 -10.53558781518152 -2.08548570407041 -1.18150762386239
 1 -2.68998132513251 -1.33876311151115  2.11289216491649
 1 -2.36291760626063  1.75906612981298  1.43594650685068
 1 -1.86420667866787  0.45377174557456  3.71418052205221
 1 -2.89960545244524  1.82203725342534  3.70896109130913
 1 -3.53875347224723  0.08514369886989  4.05861103730373
 1 -2.36826233463346 -1.66159089218922 -0.63373782098210
 1 -2.08545188458846  0.04114030503050 -0.49882657685769
 1 -0.36154197399740  0.01660551415142  0.81162152345235
 1 -0.38150849014902 -1.41177313591359  1.32345985438544
 1 -4.34984980148015  5.84837920602060  0.70967376717672
 1 -5.66433163956396  6.78923383808381  1.42710200480048
 1 -4.73175126192619  5.80284832883288  2.47071120512051
 1 -7.76149115851585  7.14844471897190  1.18023957785779
 1 -9.46147149904990  5.92353251375137 -1.55553713981398
 1 -9.12297704430443  7.67149587708771 -0.61322154505451
 1 -12.47824218621862  3.45194438163816 -0.26053386648665
 1 -11.63844769306931  3.72944690209021 -2.03469278607861
 1 -12.97629865266527  2.75816365206521 -1.63803815921592
 1 -12.38875124832483 -1.21899082578258 -1.13487823892389
 1 -13.46009303380338  0.21258541324132 -0.92406476527653
 1 -12.77919354925492  0.79815662876288 -3.34612195649565
 1 -11.78261322932293 -0.35059263286329 -3.55342429452945
 1 -13.57944469796980 -0.74373346814681 -3.54997253955396
 1 -9.99141569036904 -4.55215453525353 -0.51214351635164
 1 -9.27156113501350 -4.32985093109311 -2.02105900410041
 1 -8.65996117081708 -5.41186945394540 -1.01195915141514
 1 -3.57438929032903 -3.51345763596360 -0.19722107070707
 1 -2.16912730573057 -6.47793288898890  2.49014234833483
 1 -2.37180562696270 -4.92745622952295  3.36078052065207
 1 -3.72686570297030 -6.31104619621962  3.26138301390139
 1  2.75140904840484 -2.38110575407541 -1.55640680768077
 1  2.30695559005901 -0.52622020282028 -2.09627739493949
 1  4.11395416711671 -1.02540485478548  0.34174207720772
 1  5.19027085628563  1.10969347834784 -3.09303402320232
 1  5.78862547974798 -0.46382041954195 -3.28732013361336
 1  3.93814393259326  0.20947213401340 -3.25938676377638
 1  6.45650366656666  1.39339546454646 -0.74001419251925
 1  5.98368641334133  0.05326543694369  0.40880858825883
 1  7.57718450335033 -1.52681940654065 -1.07745850545055
 1  7.44910445294529  0.08427044764476 -2.23297812681268
 1  9.00631611901190  0.95363420472047 -0.29221907360736
 1  8.65400846364637 -0.29157330883088  0.85127794019402
 1  10.17103977257726 -0.67927537083708 -1.84126870187019
 1  9.22966328252825 -2.77901659485949 -1.42947149494950
 1  11.13100813191319 -2.80473207300730 -1.04336494139414
 1  9.57548256835684 -2.69382106770677  0.35821755245525
 1  11.27078237563756  0.99641842194219 -0.20341175597560
 1  11.28253421692169 -0.46651188768877  0.92864279447945
 1  12.80623533413341 -1.67171874307431 -0.88291150415042
 1  12.54329248144814 -0.25333541254125 -1.62721425512551
 1  13.52946410131013  1.07684739553955  0.24524743564356
 1  13.49102332933293 -0.48974540234023  1.32968981488149
 1  14.83031537573757  0.26249745584558 -1.43686569986999
 1  15.02911846474647 -2.35618820062006 -1.26416574977498
 1  16.57006087958796 -1.57890192679268 -0.91006679057906
 1  15.56750202900290 -1.96320145274527  0.43923319471947
 1  15.57617789098910  1.73261983228323  0.28712917191719
 1  16.41308596539654  0.58304892819282  1.37607102970297
 1  18.16514773647365 -0.12582679317932 -0.25941580938094
 1  17.85706029162916  1.32748463676368 -1.20755918841884
 1  18.15818050755076  3.05517191309131  0.64027941764176
 1  18.18163041724172  1.55219102860286  1.81499864986499
 1  20.34552088448845  0.84386234723472  0.64391554775477
 1  20.01334869146915  3.16250452055205 -1.33790569296930
 1  21.46684392809281  1.98759682938294 -1.33424653125313
 1  19.94849982298230  1.59154477617762 -2.04837701920192
 1  20.29012424892489  2.52160362836284  2.31316235283528
 1  21.87158001520152  2.54052407980798  1.31531568866887
 1  20.66013564296430  3.91744494409441  1.03121185908591
 1 -6.95568740184018  1.70516939013901  0.47424927102710
 1 -7.43744529292929 -0.30273044904490  0.13511338373837

