%nproc=3
%Mem=2GB
# td=(NStates=1) B3LYP/SVP 

TD

0 1
 6 -5.11317901600160 -1.95692193429343  0.40012488838884
 6 -4.70922124112411  2.75494194589459  1.41511789768977
 6 -9.32581249094909  3.35317611681168 -0.22953142104210
 6 -9.90363841834183 -1.50211101450145 -0.85485803920392
 7 -5.24984414671467  0.45056667956796  0.83859229622962
 6 -4.45584420052005 -0.73472019301930  0.76035947934793
 6 -3.02499218571857 -0.60604703940394  1.31053604940494
 6 -3.08420338573857  0.86421531383138  1.89214832063206
 6 -4.35030422352235  1.41628144604460  1.35821941894189
 6 -3.02838140664066  0.84275178747875  3.42479034163416
 6 -2.00065213591359 -0.76022598429843  0.17994594019402
 6 -0.57533074527453 -0.71904012061206  0.55218767146715
 6  0.46776043744374 -0.99117599049905 -0.61652320992099
 8  0.11172293989399 -1.37577994459446 -1.68016162766277
 8  1.66267646474647 -0.80236700980098 -0.27001944464446
 7 -6.98572316691669  2.83422069386939  0.49392890209021
 6 -5.89276085148515  3.37806222452245  0.98762961986199
 6 -6.20222340804080  4.75341178067807  1.09168566136614
 6 -7.43849294609461  4.93567240274027  0.49188571597160
 6 -8.00749169506951  3.69325781948195  0.14250440584058
 6 -5.32847336383638  5.89932544764476  1.58481974797480
 6 -8.18847613031303  6.18317232883288  0.34539304060406
 6 -9.06101399959996  6.51467118901890 -0.54819729852985
 7 -9.26072427302730  0.88576580958096 -0.31830429882988
 6 -9.85688955185519  2.11111361006101 -0.55385465466547
 6 -11.20258412491249  1.94973853485349 -1.11606544044404
 6 -11.34806875737574  0.58900624072407 -1.32499745444544
 6 -10.20901312701270  0.01218126642664 -0.89868311081108
 6 -12.22515101600160  3.05338383998400 -1.14083717401740
 6 -12.57685542504250 -0.23966644614461 -1.58533949364936
 6 -12.77340747144715 -0.58709197359736 -3.06506467776778
 7 -7.48369732733273 -1.22316400160016 -0.24025255375538
 6 -8.62540412791279 -1.92528125492549 -0.63746710911091
 6 -8.31186362536254 -3.34586146834683 -0.61043361066107
 6 -6.88085299439944 -3.41952878117812 -0.30167779167917
 6 -6.48661976537654 -2.06933975257526  0.06371144734473
 6 -9.08822157975798 -4.48533928342834 -0.86491548594859
 6 -5.74576152135213 -4.27808284338434  0.00706165176518
 8 -5.66455594579458 -5.51867139723972  0.04162689678968
 6 -4.52769039763976 -3.31853261486149  0.42772183428343
 6 -3.99663346124612 -3.81412550605060  1.82622914861486
 8 -4.10457553105310 -3.33582151605161  2.92222029012901
 8 -3.18246693429343 -4.80975594849485  1.49105953385339
 6 -2.62895759955996 -5.45143458955896  2.66974911451145
 6  2.66034820342034 -1.25630952855286 -1.15422944874487
 6  4.00097334413441 -0.80038054045405 -0.62674477457746
 6  4.95910816741674 -0.03401234633463 -1.16776073267327
 6  4.98376757245725  0.59950068176818 -2.58500561736174
 6  6.29318106330633  0.14242198139814 -0.42832174637464
 6  7.53785502590259 -0.52059824272427 -1.08380524742474
 6  8.85539714081408 -0.42150613571357 -0.23897224472447
 6  10.10306123182318 -0.85101942854285 -0.99775713051305
 6  10.14207024562456 -2.31521532443244 -1.33344262916292
 6  11.28050190039004 -0.41689600430043 -0.12999355505551
 6  12.79728140234024 -0.71533685088509 -0.66920144324432
 6  13.82454104350435  0.02013478727873  0.30364241974197
 6  15.21705061686169 -0.12576345784578 -0.32574613251325
 6  15.69403897569757 -1.60967983338334 -0.38655742404240
 6  16.21048179247925  0.72987750505050  0.40804982728273
 6  17.70686557535754  0.82072499019902 -0.06784068546855
 6  18.55728665296530  1.79250357925793  0.78955977217722
 6  20.04322622422242  1.85412321692169  0.24910663816382
 6  20.17322802170217  2.27283385948595 -1.22040011781178
 6  20.97456997829783  2.60503184198420  1.22730451865187
 1 -3.91530919121912  3.56500773277328  1.66653153405341
 1 -9.81742959605961  4.16945418751875 -0.15519684238424
 1 -10.56618087448745 -2.12143929942994 -1.22041151425142
 1 -2.76601892889289 -1.35361459665967  2.11052192789279
 1 -2.23716503100310  1.25962618581858  1.65548846104610
 1 -2.02827308530853  0.45852222062206  3.82166127012701
 1 -3.27477296919692  1.86460150985098  3.68174837003700
 1 -3.93391298819882  0.29934511901190  3.76002117831783
 1 -2.21451696009601 -1.76960169326933 -0.29612405960596
 1 -2.22990633003300 -0.19405321432143 -0.69510620482048
 1 -0.19047486728673  0.28102195579558  1.04372473377338
 1 -0.35094543384338 -1.50073203180318  1.12194970337034
 1 -4.35251006750675  5.97801216931693  1.09199199899990
 1 -5.89005421182118  6.93175809050905  1.65547484208421
 1 -4.95952403920392  5.54313235723572  2.64458859285929
 1 -7.92779778917892  7.04038391289129  1.02129368326833
 1 -9.55843119501950  5.86185634613461 -1.40372195829583
 1 -9.53694844144414  7.45952467996800 -0.56176639953995
 1 -12.02945730773077  3.73175236243624 -0.29542735583558
 1 -12.28917276557656  3.70364432183218 -2.16223554035404
 1 -13.27940896369637  2.72916075177518 -1.29286364176418
 1 -12.54652702590259 -1.08663759045905 -0.85142989408941
 1 -13.43063008750875  0.36416057075708 -1.20770312911291
 1 -12.70231586148615  0.32435924902490 -3.64780212451245
 1 -11.98028299629963 -1.10136771037104 -3.48493744584458
 1 -13.60843759725973 -1.04940403520352 -3.50990853315332
 1 -9.88168471727173 -4.56545586538654 -0.06037833983398
 1 -9.58157213611361 -4.32779072507251 -1.89648654685469
 1 -8.46632180688069 -5.46215448244824 -0.95436339183918
 1 -3.73296514791479 -3.54476076627663 -0.23812516111611
 1 -1.88348874187419 -6.24223931963196  2.54998833293329
 1 -2.36427487388739 -4.63346683058306  3.38507294989499
 1 -3.55790880728073 -5.84763985558556  3.13139001460146
 1  2.60196410391039 -2.26257390089009 -1.08784995199520
 1  2.61186608110811 -0.97248482928293 -2.12330009720972
 1  4.31117388908891 -1.17461977627763  0.33745164816482
 1  5.34802663186319  1.68692120112011 -2.33086780658066
 1  5.81602822002200  0.03363932643264 -3.41781318291829
 1  3.90767088528853  0.53617480428043 -3.16107693279328
 1  6.48105612181218  1.27645377037704 -0.28942913401340
 1  6.11032907760776 -0.34811470107011  0.52349005640564
 1  7.35849263416342 -1.54404112871287 -1.30889164876488
 1  7.76974651715172 -0.22295027442744 -2.02536736573657
 1  8.94276976437644  0.59713855515552  0.14914506280628
 1  8.52964602740274 -1.12648680018002  0.69385219761976
 1  9.99580224882488 -0.21993943724372 -2.03244781978198
 1  9.31918223442344 -2.77202589578958 -1.87080562836284
 1  10.93791882298230 -2.82687428722872 -1.94204480938094
 1  10.06302132223222 -2.89397108270827 -0.28719698899890
 1  11.15552084948495  0.70168894899490  0.02791137633763
 1  11.33225918941894 -0.88599383588359  0.95963589378938
 1  12.89622433303330 -1.87035860706071 -0.67111032403240
 1  12.85092324452445 -0.44506458545855 -1.86426796049605
 1  13.63205436033603  1.11232094289429  0.41356426732673
 1  13.71365559255926 -0.43270969876988  1.35996284218422
 1  14.99414175837584  0.30457166326633 -1.26688870217022
 1  15.03652920582058 -2.29434201600160 -1.08600793399340
 1  16.52156603010301 -1.79566360296030 -0.72770855475548
 1  15.66459173797380 -2.18360349294929  0.59173844524452
 1  15.82690296349635  1.91117768806881  0.65452591159116
 1  16.22258691549155  0.28946957025703  1.57088051065106
 1  18.26339756145615 -0.09805401590159 -0.18620848864886
 1  17.45145973157316  1.17602949124912 -1.08304673717372
 1  18.30171486098610  2.77979437533753  0.57074246394639
 1  18.55550780498050  1.48936474597460  1.84835198519852
 1  20.40976730913091  0.87182514351435  0.23608476467647
 1  19.67127448404841  3.38817708780878 -1.20206210861086
 1  21.31113835753575  2.29276734643464 -1.52749585618562
 1  19.42695766876687  1.65574119581958 -1.77106928842884
 1  20.72427766426643  2.46996846484648  2.36581761836184
 1  22.05374823202320  2.50336036343634  1.09627378447845
 1  20.93774340374037  3.74661786138614  1.13106184408441
 1 -7.13715554865487  1.79145801900190  0.45837768386839
 1 -7.41952350075007 -0.33199337533753  0.24533440584058

