%nproc=3
%Mem=2GB
# td=(NStates=1) B3LYP/SVP 

TD

0 1
 6 -5.11923962206221 -1.91071731383138  0.39343421932193
 6 -4.76053637263726  2.71449790149015  1.44691107700770
 6 -9.29099900960096  3.34443524272427 -0.24793326122612
 6 -9.85511356585659 -1.49338014141414 -0.76358891229123
 7 -5.13087224952495  0.39172079497950  0.78618705570557
 6 -4.45951456755676 -0.79489621062106  0.72542598599860
 6 -3.02492217871787 -0.69306574127413  1.22779777557756
 6 -2.99316428182818  0.87612650495049  1.70359946574657
 6 -4.39631882498250  1.31008082598260  1.35384898189819
 6 -2.94230279877988  0.99063657595760  3.26234409700970
 6 -1.92771484218422 -0.78187814951495  0.10456840244024
 6 -0.55868908110811 -0.84067228382838  0.50232268496850
 6  0.46470013141314 -1.16170304320432 -0.69267082468247
 8  0.10150191779178 -1.72604497109711 -1.74269788128813
 8  1.63061325842584 -0.72304907800780 -0.36308875157516
 7 -7.07483207780778  2.76391366316632  0.53630313951395
 6 -5.94399597499750  3.31563598189819  1.11193205010501
 6 -6.24737792349235  4.76467290679068  1.02159865266527
 6 -7.43507260406041  5.00254909040904  0.56579310671067
 6 -8.01839278517852  3.61645013871387  0.26819697509751
 6 -5.24213472997300  5.74497001210121  1.53402466846685
 6 -8.07675495819582  6.22895690729073  0.34952345364536
 6 -8.97272517071707  6.63600332223222 -0.65624810361036
 7 -9.24902310291029  0.85911314431443 -0.45532800120012
 6 -9.84812867576758  2.03231573027303 -0.59069833903390
 6 -11.15428929542954  1.92960652165217 -0.94632846674667
 6 -11.42845679617962  0.59086642674267 -1.08605356005601
 6 -10.12597482318232 -0.14921487318732 -0.72691593409341
 6 -12.20388888978898  3.00191869346935 -1.20262335263526
 6 -12.63616135563556 -0.11142362186219 -1.52412337203720
 6 -12.60262039273927 -0.35329859425943 -3.00972914421442
 7 -7.53226218381838 -1.25149683488349 -0.16408493699370
 6 -8.66454804230423 -2.06387511431143 -0.43154651705171
 6 -8.25841828082808 -3.42672955515552 -0.42571513881388
 6 -6.85503041214121 -3.42222905120512 -0.18507613151315
 6 -6.45715681908191 -2.05745856445645  0.04105918211821
 6 -9.10069282688269 -4.64603535303530 -0.70706970137014
 6 -5.77286423162316 -4.32261729682968  0.11295224082408
 8 -5.79784927512751 -5.54073360346035  0.16657939203920
 6 -4.53652128072807 -3.38130889248925  0.44564362646265
 6 -3.89822362026203 -3.79816390989099  1.64339086478648
 8 -3.98072314581458 -3.32976090999100  2.76111417951795
 8 -3.08911759935994 -4.93241821472147  1.39299972787279
 6 -2.43391809560956 -5.49711915801580  2.47638977857786
 6  2.68960112871287 -0.97649154675468 -1.38141216701670
 6  3.96863010981098 -0.53710421282128 -0.84180628072807
 6  5.01419367596760 -0.04299324442444 -1.45005896249625
 6  4.89361855755576  0.69965069676968 -2.75602271907191
 6  6.26544829002900  0.46208394759476 -0.57879679387939
 6  7.50913215361536 -0.28127431033103 -1.15747261416142
 6  8.71797339843984 -0.01563554865487 -0.28932728022802
 6  9.97482840854085 -0.63000732733273 -0.87593494829483
 6  9.99573561216122 -2.06415021792179 -0.99808909380938
 6  11.20601445164517 -0.01355567026703 -0.03081363706371
 6  12.55881755595560 -0.62552786998700 -0.52299682278228
 6  13.72446103550355 -0.00349757595760  0.35901795729573
 6  15.12396130793079 -0.13376425792579 -0.26330988888889
 6  15.53146271807181 -1.68919778517852 -0.24110287858786
 6  16.11498224252425  0.67782229952995  0.57356637893789
 6  17.55207009580958  0.63245616331633 -0.07128102950295
 6  18.58223914821482  1.65091942084208  0.68626944314431
 6  20.06438834043404  1.62928073267327  0.40275200270027
 6  20.37644834373437  1.82717929402940 -1.21679975777578
 6  20.86282880418042  2.47677901670167  1.30513230143014
 1 -4.07409506980698  3.36781801380138  1.89025390629063
 1 -9.89926777987799  4.12014925702570 -0.41044236693669
 1 -10.56999125552555 -2.14016117161716 -1.08510798389839
 1 -2.84388671567157 -1.53887312251225  1.93294417011701
 1 -2.17705902040204  1.50969119231923  1.34907781998200
 1 -2.12731298929893  0.34578094649465  3.67420652465246
 1 -3.06858235013501  2.07092214191419  3.64808500370037
 1 -3.76963656055606  0.56781196569657  3.85593076927693
 1 -1.91956746514651 -1.84454918801880 -0.35994044124412
 1 -2.19660299969997 -0.08914272327233 -0.78954564876488
 1 -0.13037885768577  0.01905575917592  0.94740510181018
 1 -0.49099943924392 -1.59609156775678  1.29531704010401
 1 -4.17048186468647  6.02051641974198  1.05408820862086
 1 -5.54163937033703  6.78903381808181  1.48872816741674
 1 -4.73862194899490  5.55605364936494  2.64370850485049
 1 -7.65431044044404  6.94941481598160  1.21135268916892
 1 -9.20765611751175  5.92264242474247 -1.42439402550255
 1 -9.41469621622162  7.57723645114511 -0.56234645754575
 1 -12.40758512051205  3.55957514471447 -0.25391320442044
 1 -11.94684853315332  3.76111006840684 -2.10644996179618
 1 -13.05981700450045  2.74196203190319 -1.37881223662366
 1 -12.76116849004900 -1.11424035073507 -1.06902165326533
 1 -13.59020604510451  0.35608976367637 -1.18242060086009
 1 -12.62333796369637  0.50893770687069 -3.75971331563156
 1 -11.79658462646265 -0.99535710931093 -3.32591154325433
 1 -13.39251600510051 -1.01985107990799 -3.20920846314632
 1 -9.92766931573157 -4.80763008280828 -0.01215351735173
 1 -9.47634161306131 -4.79926787278728 -1.75566246444644
 1 -8.36744191889189 -5.52385065206521 -0.69035699119912
 1 -3.67704955635564 -3.81850814101410 -0.14129547814782
 1 -2.04868526152615 -6.58083317901790  2.01196453055306
 1 -1.43589203560356 -4.60167365126513  2.61018546114611
 1 -3.19706272267227 -5.34606969856986  3.63760063566357
 1  2.68472237973797 -2.05182282578258 -1.77469863686369
 1  2.54877977247725 -0.47481506230623 -2.25703347054705
 1  4.10674344604460 -0.79278159245925  0.26126402940294
 1  5.22033386258626  1.69995250425043 -2.46343106290629
 1  5.67082369956996  0.24915087758776 -3.30544194579458
 1  4.11512163036304  0.53598478527853 -3.34203502860286
 1  6.37146516271627  1.55894201920192 -0.50502069316932
 1  6.19742778747875  0.20044015441544  0.37390509790979
 1  7.19764654955496 -1.33164988958896 -1.37324808440844
 1  7.53916345884589  0.31311333193319 -2.27018184718472
 1  8.86974246164616  0.93707254855486  0.15419556785679
 1  8.52630569336934 -0.80721487298730  0.59650246264626
 1  9.94552722132213 -0.31624906820682 -1.95994056905691
 1  9.06790710691069 -2.45297399059906 -1.43726227402740
 1  10.93009804090409 -2.56867846764676 -1.49700030493049
 1  9.91880690079008 -2.50532221782178 -0.00786905620562
 1  11.36864216161616  0.98997777787779 -0.35097651245125
 1  11.13680964446445 -0.14917015351535  1.06316624682468
 1  12.66439114971497 -1.65316688788879 -0.74015722872287
 1  12.90199835203520 -0.33792387138714 -1.70960249394939
 1  13.51521267616762  1.08267797859786  0.19065197609761
 1  13.76491071807181 -0.23075950375038  1.25338218411841
 1  15.12329467366737  0.22581378747875 -1.22265427872787
 1  14.92984853775377 -2.06458904070407 -0.93176250945094
 1  16.53275714921492 -1.64432846944695 -0.74588037193719
 1  15.43173845264526 -2.16204133673367  0.79440871227123
 1  15.70316058925893  1.67088365866587  0.53879433843384
 1  16.46055071187119  0.36828745204520  1.62975639823982
 1  17.88220944264426 -0.45805001550155  0.01843197539754
 1  17.44796938253825  0.86248813711371 -0.97609604210421
 1  18.45506019551955  2.90139653555355  0.48647403710371
 1  18.41301355555556  1.43637944744474  1.83497064706471
 1  20.53725005740574  0.64448240924092  0.69774093029303
 1  19.60310766736674  2.70102837293729 -1.72099400180018
 1  21.50584782848285  2.19756782648265 -1.10920402700270
 1  20.29337431043104  0.84763038473847 -1.93178536003600
 1  20.82908814531453  2.34109557755776  2.47666870347035
 1  21.97490034723472  2.34509453685369  0.99683384048405
 1  20.61626125552555  3.73796699629963  0.98885762366237
 1 -6.98386021912191  1.70102897609761  0.53055490159016
 1 -7.65609715811581 -0.27754793079308  0.08288816121612

