%nproc=3
%Mem=2GB
# td=(NStates=1) B3LYP/SVP 

TD

0 1
 6 -5.13071076917692 -1.96394263636364  0.35271014691469
 6 -4.64507482648265  2.70650710241024  1.49076546244624
 6 -9.16830674037404  3.38263906310631 -0.31369983788379
 6 -9.73152120662066 -1.33713451685169 -1.04913746714671
 7 -5.13292245454545  0.39907153005301  0.89821825882588
 6 -4.49186780288029 -0.77963468446845  0.90157360076008
 6 -3.03736342284228 -0.66004243894389  1.42455745154515
 6 -3.13586855225523  0.84380327262726  2.02841194699470
 6 -4.34658385148515  1.40981079897990  1.44445804280428
 6 -2.97907647614761  1.04687219951995  3.57815567816782
 6 -1.89064113481348 -0.78677863956396  0.22507045264526
 6 -0.54571778397840 -0.79101731833183  0.65569802250225
 6  0.41732539393939 -1.23895076797680 -0.43451500910091
 8  0.07624939253925 -1.82160452705271 -1.43132674417442
 8  1.67308750585058 -0.78462523562356 -0.14483692639264
 7 -7.01847644224422  2.72400967276728  0.50010952015202
 6 -5.90364193959396  3.34553897219722  1.16141699859986
 6 -6.15081826752675  4.73943038253825  1.15462195499550
 6 -7.45283438023802  4.97539637513751  0.64722124952495
 6 -7.97103804970497  3.67412590629063  0.19576973237324
 6 -5.11294181068107  5.69120463556356  1.55000626662666
 6 -8.01620890359036  6.26260027162716  0.44929343064306
 6 -8.79196709490949  6.63427314921492 -0.49223170197020
 7 -9.19542774337434  1.00559779277928 -0.49902237063706
 6 -9.89979384228423  2.16238873757376 -0.68522779197920
 6 -11.21948581508151  1.99092265326533 -1.13323715761576
 6 -11.32699665016502  0.69151649174917 -1.41330628532853
 6 -10.10388261396140 -0.04553450515051 -0.94854809730973
 6 -12.24709321022102  2.94879338093809 -1.11991508180818
 6 -12.59144688418842  0.03891141164116 -1.83959491919192
 6 -12.71062119281928 -0.23338660306031 -3.46702487378738
 7 -7.48317727532753 -1.17310899609961 -0.31513004150415
 6 -8.56218780628063 -2.02202092889289 -0.83180654305431
 6 -8.28787122612261 -3.36487336953695 -0.75953852115212
 6 -6.91460636973697 -3.35936276457646 -0.41909953385339
 6 -6.47197830123012 -2.05766858545855 -0.05044996879688
 6 -9.09144190179018 -4.47290804030403 -1.10597959235924
 6 -5.73667061226123 -4.20923595869587 -0.13654270867087
 8 -5.67908739893989 -5.42619214931493 -0.35497276317632
 6 -4.52569019761976 -3.35697645924592  0.37585664776478
 6 -4.03292709060906 -3.87603169666967  1.71986851255125
 8 -4.35527060056006 -3.43982191609161  2.75922399049905
 8 -3.23984267186719 -4.91951692459246  1.58970939883988
 6 -2.89062376617662 -5.61828127422742  2.80059219881988
 6  2.68032020062006 -1.10569446704670 -1.11414544034403
 6  3.97255050185018 -0.78991949434943 -0.51206330643064
 6  4.99198145474547 -0.08536748184819 -0.99549350595060
 6  5.01603079877988  0.55611634333433 -2.36727384418442
 6  6.29564130933093  0.09287702690269 -0.19233814801480
 6  7.52777401780178 -0.51606778967897 -0.84612147904790
 6  8.85664726582658 -0.36273025812581  0.07081873437344
 6  9.99446037173717 -1.16295062166217 -0.44186154095410
 6  10.07557359595960 -2.58069187208721 -0.43677296219622
 6  11.24883873407341 -0.56747106180618  0.33934337863786
 6  12.65515718991899 -0.73241855905591 -0.34501902500250
 6  13.78076666606661 -0.02085931213121  0.36864892039204
 6  15.19868878067807 -0.27818870037004 -0.21339489738974
 6  15.67066663846385 -1.74638350375038 -0.32427119541954
 6  16.25725646994700  0.77712222952295  0.49984900720072
 6  17.64626951575158  0.82190510821082 -0.32439634103410
 6  18.59023994829483  1.92373670257026  0.23519433563356
 6  19.90826272787278  2.13661146574657 -0.28528680118012
 6  19.86227692659266  2.62768934503450 -1.83697177497750
 6  20.77241976327633  3.14710604940494  0.32724451265127
 1 -4.01957961826183  3.39031026302630  1.86360124102410
 1 -9.71190904400440  4.25411265336534 -0.64702602530253
 1 -10.54100835723572 -2.10832798829883 -1.31522099519952
 1 -2.63276560356036 -1.42308154335434  2.24581545724572
 1 -2.24550586508651  1.44238446164616  1.64354726692669
 1 -2.12817307530753  0.44726109450945  4.03553265726573
 1 -2.76142163406341  2.07057210691069  3.83440363556356
 1 -3.92323192009201  0.72421760626063  4.00307548374837
 1 -2.08893440184018 -1.67056178927893 -0.32438688588859
 1 -2.23774711411141 -0.11663547254725 -0.59001569576958
 1 -0.07954377417742  0.11826568016802  1.03238359965997
 1 -0.57512785208521 -1.67312927152715  1.45826333473347
 1 -4.05725054155416  5.84095846394639  1.06254905470547
 1 -5.50074528092809  6.58546346104611  1.60937023162316
 1 -4.62060014681468  5.48445648964896  2.47128126212621
 1 -7.57333234263426  7.17062693719372  1.10134168806881
 1 -9.29255460736074  6.10665082558256 -1.46917850395040
 1 -9.00513526012601  7.72729145664566 -0.60652087498750
 1 -12.50080444244425  3.24146333353335  0.09031121802180
 1 -12.08907275557556  4.09761371877188 -1.55447476427643
 1 -13.20389141194119  2.47611544724472 -1.54873922932293
 1 -12.53227560076007 -1.08248717541754 -1.21310606170617
 1 -13.48710573507351  0.70168432313231 -1.73439579837984
 1 -12.58469409930993  0.69743655675568 -3.87707505180518
 1 -11.80718568656866 -0.64288186178618 -3.98434738683868
 1 -13.55389214271427 -0.76724581938194 -3.87663520582058
 1 -10.01038758755876 -4.77617693749375 -0.70895319731973
 1 -9.30768474737474 -4.52267021302130 -2.23098999719972
 1 -8.49434460916092 -5.53314158115812 -1.13694164966497
 1 -3.71866371777178 -3.42169846004600 -0.45075642424242
 1 -2.30254064706471 -6.52979807550755  2.51933526762676
 1 -2.65262370877088 -4.86149963386339  3.48827326992699
 1 -3.73549656605661 -6.23942903450345  3.29409628522852
 1  2.37573148064806 -2.22602024552455 -1.15638680568057
 1  2.47573246774677 -0.71515909670967 -2.08128589578958
 1  4.03562633433343 -1.13260557485749  0.48569647264726
 1  5.21912374157416  1.63371588058806 -2.18453317311731
 1  5.83058967616762  0.28818478097810 -2.96015741734173
 1  3.99683980218022  0.63870505730573 -2.88756958205821
 1  6.46380439663966  1.12753887888789 -0.14077426852685
 1  6.11321936663666 -0.30703059265927  0.79807751515152
 1  7.49348613351335 -1.58943566816682 -1.00912167176718
 1  7.82599214171417 -0.12612059145915 -1.79246407540754
 1  8.99294478187819  0.56695553685369 -0.09077892959296
 1  8.52182524532453 -0.82331648314831  0.95531834423442
 1  10.14534720332033 -0.59041648494849 -1.36853142814281
 1  9.29212952915291 -2.98707740094009 -0.94803335113511
 1  11.05599063016302 -3.01080268006801 -0.91641224612461
 1  9.71107612771277 -2.86082776837684  0.70159188988899
 1  11.15902119951995  0.65833461356136  0.42818140334033
 1  11.56969293279328 -0.88574381088109  1.33825375557556
 1  12.80464517511751 -1.90987255845585 -0.15919913291329
 1  12.72283043524352 -0.47321740074007 -1.31397293099310
 1  13.58234938983898  1.09433914471447  0.37439034993499
 1  13.77898212521252 -0.52496892469247  1.35679252515252
 1  15.06723906810681 -0.05267406130613 -1.31148316161616
 1  14.90824637753775 -2.54576715851585 -0.75779511271127
 1  16.51562543604360 -1.81835587218722 -1.11973775767577
 1  16.05606088488849 -2.05398053065307  0.68118739013901
 1  15.74134440764077  1.66013258355836  0.81113157215722
 1  16.72573723052305  0.26046666996700  1.45037846044604
 1  18.06566778847885 -0.18843305380538 -0.45074494229423
 1  17.30487507310731  0.93680556885689 -1.51102953545355
 1  17.87090177967797  2.93441983788379  0.10062545224522
 1  18.74072632683268  1.71191700120012  1.31343849384939
 1  20.55374170657066  1.14646260726073 -0.28620746454645
 1  19.68618597519752  3.79474774487449 -1.63387528992899
 1  21.01305854955496  2.45130320002000 -2.19979308590859
 1  19.11664663766377  2.09048467016702 -2.33633581508151
 1  20.89132436893689  2.77920938893889  1.40629166576658
 1  21.85489834703471  3.27175720312031 -0.18669451235123
 1  20.40865049444945  4.13874707430743  0.17384612251225
 1 -7.09869170227023  1.70880975417542  0.48926077217722
 1 -7.57894944334433 -0.22548272427243 -0.37626775437544

