%nproc=3
%Mem=2GB
# td=(NStates=1) B3LYP/SVP 

TD

0 1
 6 -5.04388208630863 -1.86526276837684  0.46735161106111
 6 -4.88108842784278  2.93377982968297  1.36308269416942
 6 -9.50735064476448  3.25312611181118 -0.17788625652565
 6 -9.80357841234123 -1.56143694709471 -0.87373992739274
 7 -5.24428359065907  0.50376199909991  0.69917835483548
 6 -4.55055367146715 -0.60714743574357  0.75978942234223
 6 -3.02836252275228 -0.43923035773577  1.19011400720072
 6 -3.04034900030003  1.00821971427143  1.73936304210421
 6 -4.41600079317932  1.55673549144914  1.10522411941194
 6 -2.99478804730473  0.92446995929593  3.34777263986399
 6 -2.06924899559956 -0.71401136283628 -0.02550460486049
 6 -0.62397560976098 -0.59507772437244  0.43148560126013
 6  0.37063072447245 -0.85980285318532 -0.72231378897890
 8  0.07098886648665 -1.05787815441544 -1.88132174367437
 8  1.63791398849885 -0.61909868296830 -0.29095153785379
 7 -7.08462305690569  2.72264953675367  0.46135564476448
 6 -6.07981955735574  3.43010742904290  0.98879973687369
 6 -6.36430961666167  4.82123856335634  0.97260375317532
 6 -7.75483458025803  4.91306014151415  0.61879840724072
 6 -8.12218316421642  3.56031452515251  0.26362651805181
 6 -5.53141365786579  5.93339885498550  1.49072033803380
 6 -8.37602488518852  6.14188820042004  0.30582908420842
 6 -9.35562346054605  6.45241496339634 -0.60993347214721
 7 -9.24558275887589  0.84898213121312 -0.30911337973797
 6 -10.04495835873587  1.98049054775478 -0.26436570577058
 6 -11.43925779227923  1.73992755375538 -0.71721555545555
 6 -11.49046299679968  0.42334967506751 -0.97589254395440
 6 -10.16265849154915 -0.10921087278728 -0.73295653815382
 6 -12.48759726062606  2.76566506810681 -0.97895098539854
 6 -12.69126686618662 -0.47629010851085 -1.41325228492849
 6 -12.76527665836584 -0.92927619201920 -2.90807897919792
 7 -7.49816877447745 -1.25563724892489 -0.21054958345835
 6 -8.54713630113011 -2.10677940474047 -0.54511787418742
 6 -8.06600903990399 -3.44078096029603 -0.65387795509551
 6 -6.72846775587559 -3.40389721802180 -0.18800642454245
 6 -6.39766086948695 -2.02304512311231 -0.08577350115012
 6 -8.79409216681668 -4.76938768826883 -1.00312930733073
 6 -5.55859280448045 -4.26382141724172 -0.09515857025703
 8 -5.45295478567857 -5.48610814091409 -0.14354162006201
 6 -4.39383701230123 -3.27975873747375  0.32106116821682
 6 -3.78828262616262 -3.76801089458946  1.69117564326433
 8 -4.20310538403840 -3.27414534843484  2.72683075117512
 8 -2.89842853045305 -4.67233220612061  1.53566399429943
 6 -2.28490319411941 -5.29754920102010  2.70447258685869
 6  2.72275444404440 -0.76369026662666 -1.23465749154915
 6  4.04318756555656 -0.44249475187519 -0.64266636673667
 6  5.01557381398140  0.29891094599460 -1.16381033763376
 6  4.99493868956896  0.87642837453745 -2.59458657545755
 6  6.37057880308031  0.36556429562956 -0.47568648284828
 6  7.48086932733273 -0.36522270517052 -1.07300416731673
 6  8.81489309040904  0.02827884278428 -0.23626197369737
 6  10.16158708440844 -0.66222054865487 -0.74870222502250
 6  9.96985302390239 -2.24570837373737 -0.57214649954995
 6  11.39657350755076 -0.22471678637864 -0.05220577627763
 6  12.74422609680968 -0.70040535773577 -0.64076859996000
 6  13.88310690009001 -0.02927015321532  0.12152420792079
 6  15.22104101590159 -0.23866474797480 -0.41605516341634
 6  15.60006957875787 -1.78035690109011 -0.45767453575358
 6  16.26984772907291  0.52012652995300  0.46435545784578
 6  17.82959784858486  0.46051896959696 -0.02507640904090
 6  18.68475940024002  1.35645997489749  0.73412422862286
 6  20.23010491209121  1.30783858845885  0.29203093059306
 6  20.31863256215621  1.79763633973397 -1.15052313011301
 6  20.97401992329233  2.15996733553355  1.30624241244124
 1 -4.22807046734674  3.55813704570457  1.99921480238024
 1 -10.30023787688769  4.12434967706771 -0.39879120182018
 1 -10.68447270367037 -2.22718987448745 -1.18454792789279
 1 -2.83254558155816 -1.43669290449045  1.88814969066907
 1 -2.10479179367937  1.54261448464846  1.20337324952495
 1 -2.04287454545455  0.38589495789579  3.69424852885289
 1 -2.96382187408741  1.96429147884788  3.66362655785578
 1 -3.88574817171717  0.45454063856386  3.54076925312531
 1 -2.30174568296830 -1.52987772087209 -0.62422686988699
 1 -2.24682802220222 -0.08748255725573 -0.72090878507851
 1 -0.73992981278128  0.42117597119712  0.81729209050905
 1 -0.57630797009701 -1.16680863946395  1.30848835723572
 1 -4.62367718421842  5.90174454255426  0.84696749654965
 1 -6.15616082248225  6.89799471417142  1.16565586018602
 1 -5.23832191899190  5.90144818881888  2.65204933893389
 1 -8.20033504290429  6.89986986148615  0.92841439533953
 1 -9.65000035193519  5.83193335383538 -1.37359894599460
 1 -9.96740148674867  7.40677940544054 -0.50670089298930
 1 -12.69343370537054  3.23535272247225 -0.11195900900090
 1 -12.05879972827283  3.47554151155116 -1.60290960776078
 1 -13.30413143594359  2.24511234693469 -1.50546490189019
 1 -12.75054742794279 -1.37516644334433 -0.95221997309731
 1 -13.56381340584058  0.09826398109811 -1.26397875667567
 1 -12.66933256315632 -0.03251643854385 -3.61001834613461
 1 -11.93271823982398 -1.52801037463746 -3.29182813491349
 1 -13.76850360386039 -1.34319341414141 -2.96785432773277
 1 -9.59624617341734 -4.80673999379938 -0.22443474547455
 1 -9.35175915481548 -4.73232117811781 -2.17829472767277
 1 -7.95829100380038 -5.56083435043504 -1.02446040154015
 1 -3.40934278567857 -3.11250754095410 -0.57828917751775
 1 -1.79557995099510 -6.26334142984298  2.42808614271427
 1 -1.64213265966597 -4.58448193209321  3.18592303490349
 1 -3.13514653105310 -5.47903299489949  3.53795067066707
 1  2.60171407890789 -1.89670731423142 -1.32307347434743
 1  2.46856175067507 -0.10921850265026 -2.26536430363036
 1  4.27961073277328 -0.98629094339434  0.39532743574357
 1  5.38703053225322  1.81868437743774 -2.52233695349535
 1  5.48290490769077  0.17240320282028 -3.40181158275828
 1  3.98703882208221  0.82437362416242 -3.03454427952795
 1  6.71114913111311  1.44494061906191 -0.60574076517652
 1  6.31221926662666  0.20918102850285  0.64337204460446
 1  7.33044982988299 -1.42353907850785 -0.95209596919692
 1  7.70316985948595 -0.13871185058506 -2.24357918691869
 1  8.99889537693769  1.20302914421442 -0.40391024272427
 1  8.83277634043404 -0.20231438293829  0.95582839523952
 1  10.32495516411641 -0.35771321462146 -1.81358593359336
 1  9.22170248644865 -2.74808350155016 -1.26876542434243
 1  11.04405943704370 -2.76436803660366 -0.88207881278128
 1  9.86073109320932 -2.41238292389239  0.59656138683868
 1  11.25702099949995  0.97773655375538  0.06257484268427
 1  11.18467443094309 -0.74329956645665  1.08413834403440
 1  12.85021973257326 -1.80594216541654 -0.72228544154415
 1  12.83911206340634 -0.35885596459646 -1.72529406310631
 1  13.62212336723672  1.07939765056506  0.09145205610561
 1  13.77514174117412 -0.20358678647865  1.28887573347335
 1  15.31836418061806  0.24012521862186 -1.45802781608161
 1  14.99994554745474 -2.27872045384538 -1.34772410561056
 1  16.79083295679568 -1.98248228482848 -0.66407219111911
 1  15.26948222702270 -2.30222535513551  0.52836210761076
 1  15.78971924512451  1.56134270457046  0.30125058405841
 1  16.12217687448745  0.13238386168617  1.53092651525153
 1  18.14440566226623 -0.62635684618462 -0.15163503130313
 1  17.78861344694469  0.69396128442844 -1.16066449894989
 1  18.26297098659866  2.25561195709571  0.78342373207321
 1  18.40590284448445  1.00908671817182  1.85245239523952
 1  20.55037136953695  0.30213817481748  0.33347450365037
 1  19.86600395699570  2.77478574867487 -1.32085398779878
 1  21.48436568026803  1.83066113581358 -1.58836194279428
 1  19.55716068906890  1.19816543824382 -1.60378255975598
 1  20.97069230573057  1.47731919991999  2.10920195679568
 1  22.09546240344034  2.08858888628863  0.95230938803880
 1  20.47186681608161  3.02123532313231  1.82373111101110
 1 -7.20956278937894  1.73902277547755  0.50704255035503
 1 -7.82959450785078 -0.39067924392439 -0.08406853445345

