%nproc=3
%Mem=2GB
# td=(NStates=1) B3LYP/SVP 

TD

0 1
 6 -5.17063476157616 -1.91389763186319  0.41427630353035
 6 -4.77473779277928  2.89464591629163  1.46747313321332
 6 -9.46017592729273  3.28864966416642 -0.10979944784478
 6 -9.92278033253325 -1.52639344274427 -0.87144969836984
 7 -5.28040720302030  0.52164378727873  0.95553399039904
 6 -4.58180679677968 -0.69108582958296  0.88396183958396
 6 -3.08784847134713 -0.59519595429543  1.25694068986899
 6 -3.02920788618862  0.88229712201220  1.82226133193319
 6 -4.42090128322832  1.45202502040204  1.40178377537754
 6 -2.87890645914591  0.95553306560656  3.41406926952695
 6 -2.12138420912091 -0.65651561326133  0.05171311691169
 6 -0.64426763896390 -0.75381359795980  0.51930438313831
 6  0.35964962636264 -0.82997987088709 -0.55384694229423
 8 -0.00537877027703 -1.15206757335734 -1.69356296779678
 8  1.63516371347135 -0.67973474657466 -0.21797424012401
 7 -7.06194078867887  2.77475474727473  0.56834634383438
 6 -5.93178475387539  3.47601201950195  0.99857071397140
 6 -6.27524070977098  4.80989742924293  1.01416790959096
 6 -7.54995409220922  4.96205504100410  0.53430995839584
 6 -8.13075402130213  3.62625111881188  0.29868002340234
 6 -5.29172968946895  5.79776529162916  1.46752801880188
 6 -8.21070835353535  6.21916592819282  0.12328082938294
 6 -9.03347124532453  6.47508723062306 -0.91839431823182
 7 -9.21921012161216  0.77200443344334 -0.45796826522652
 6 -9.84013787668767  1.94183668236824 -0.46088535773577
 6 -11.29372323882388  1.82772633363336 -0.79827366126613
 6 -11.43871782228223  0.42383972407241 -1.09560451515152
 6 -10.23707593329333 -0.16584653635364 -0.74945818831883
 6 -12.38917741864186  2.89714821642164 -0.95072816311631
 6 -12.60136787628763 -0.29118159765977 -1.66720768046805
 6 -12.45027515821582 -0.73405667006701 -3.07399557085709
 7 -7.52905186278628 -1.30034171937194 -0.13245177367737
 6 -8.66182777027703 -2.12944167096710 -0.57211057345735
 6 -8.12348478747875 -3.46202308450845 -0.64548711601160
 6 -6.80178508760876 -3.36603343164316 -0.24064168806881
 6 -6.47629873327333 -2.06773959255926  0.00132520872087
 6 -8.90247300490049 -4.60797154665467 -1.01496049044905
 6 -5.55408235343534 -4.20726576167617 -0.00125918031803
 8 -5.50583007320732 -5.42303183328333 -0.06465373127313
 6 -4.41716934553455 -3.25415617721772  0.38493755585559
 6 -3.88194199209921 -3.74208830233023  1.70578710441044
 8 -4.12962803630363 -3.48653658755876  2.85167323542354
 8 -2.86697538513851 -4.78596356925693  1.47772820072007
 6 -2.25647035083508 -5.49993944004400  2.69164130373037
 6  2.57767993659366 -0.78445234283428 -1.20921494729473
 6  3.93635688248825 -0.48724922732273 -0.61783388348835
 6  4.91593384998500  0.23265432033203 -1.18492244884488
 6  4.66662585828583  0.93891462316232 -2.52814993179318
 6  6.23750549574957  0.29378711791179 -0.49333824802480
 6  7.51262250265026 -0.42472865576558 -1.08046491339134
 6  8.83095469656966 -0.11678566366637 -0.32557090459046
 6  10.09308023372337 -0.75213954055406 -0.92590994579458
 6  10.07882392099210 -2.38289209210921 -0.85112439733973
 6  11.24952880308031 -0.16938125282528 -0.24291484718472
 6  12.64713638783878 -0.53597891509151 -0.72978750185019
 6  13.77411600100010  0.07351012481248  0.04263631913191
 6  15.23814272607261 -0.25711659315932 -0.39776333423342
 6  15.60571014281428 -1.82088095349535 -0.30100886918692
 6  16.26620736503650  0.70774529182918  0.27375639793979
 6  17.69551444024403  0.54723764146415 -0.03805770717072
 6  18.61613253755376  1.48486281518152  0.76611742794279
 6  20.11561346294629  1.48998680328033  0.35019674717472
 6  20.32890358925892  1.88827540364036 -1.12893097089709
 6  20.89261178247825  2.35480681948195  1.41081286948695
 1 -4.02031969226923  3.47568880088009  1.67910279117912
 1 -10.15031288438844  4.02830007210721 -0.13314463716372
 1 -10.70243449984998 -2.11238839433943 -1.32151162426243
 1 -2.83425575257526 -1.40939017421742  2.14796567226723
 1 -2.27840915541554  1.42375259845985  1.35418833103310
 1 -1.76061631963196  0.76688305670567  3.67993709770977
 1 -2.92586807870787  1.95797084678468  3.72016221142114
 1 -3.81348094499450  0.37946313081308  3.85518069426943
 1 -2.27328283668367 -1.41974670777078 -0.60624507170717
 1 -2.17816115551555  0.23260945194519 -0.65331202540254
 1 -0.53343916371637  0.14233808740874  1.22845320662066
 1 -0.60725106440644 -1.67392935153515  1.07198470687069
 1 -4.05843065956596  5.53638800690069  1.12925572537254
 1 -5.69019422582258  6.87506242094210  1.35141443604361
 1 -5.11209929672967  5.58173621762176  2.53734786878688
 1 -8.15307031643164  7.04061393589359  0.81191274517452
 1 -9.16396174807481  5.68931909240924 -1.69465105120512
 1 -9.48374312091209  7.43518224572457 -0.97418764166417
 1 -12.60728509050905  3.42378156535654  0.04274646154615
 1 -12.18274212251225  3.69439339673967 -1.73570288708871
 1 -13.30550157295730  2.28951678737874 -1.46504085948595
 1 -12.69104147734773 -1.15270419711971 -0.90449520062006
 1 -13.41005803030303  0.32126628132813 -1.47304966376638
 1 -12.31406703660366  0.05555236833683 -3.62763010731073
 1 -11.56054102210221 -1.28026560016002 -3.34597354945495
 1 -13.24495124862486 -1.26700579537954 -3.52581012331233
 1 -9.87690423922392 -4.94442376217622 -0.51707400940094
 1 -9.12141612051205 -4.57649559555956 -2.24489138733873
 1 -8.36018119281928 -5.61835010201020 -1.11809976547655
 1 -3.47066891829183 -3.48295458565857 -0.18581993059306
 1 -1.46812720572057 -6.02049714541454  2.21680501460146
 1 -2.18347679407941 -4.77167065096510  3.47098154075408
 1 -3.06121913831383 -6.23352844444444  3.00230710631063
 1  2.35392930043004 -2.04087173067307 -1.64790595759576
 1  2.46914180868087 -0.26612419321932 -1.96061382858286
 1  4.36563933563356 -1.11195350965097  0.24368227122712
 1  5.05994782398240  1.88582109110911 -2.75507022682268
 1  5.31148776597660  0.39611557405741 -3.31901330293029
 1  3.63491360956096  0.83663485028503 -2.90974179927993
 1  6.29910792699270  1.48779490449045 -0.56189638073807
 1  6.11568961366137 -0.08656854645465  0.54495220262026
 1  7.30918770367037 -1.53319004360436 -0.91672243184318
 1  7.70944048654866 -0.27819579897990 -2.21663649264927
 1  8.94470995839584  0.99188803010301 -0.27291714341434
 1  8.70349341214122 -0.40512466396640  0.79530234263426
 1  10.29473214181418 -0.45544298759876 -2.08354292929293
 1  9.29135945214521 -2.79397809100910 -1.43773232103210
 1  11.11555658675868 -2.81455305510551 -1.17806841174117
 1  10.03229824992499 -2.71947363296330  0.06642837353735
 1  11.37562285968597  1.01396017611761 -0.11510292509251
 1  11.16169213271327 -0.65149038553855  0.78311824202420
 1  12.73766847744774 -1.71346291749175 -0.57010022302230
 1  12.59856800900090 -0.19214929392939 -1.81347288098810
 1  13.62914406930693  1.02565227602760  0.01236414731473
 1  13.76220044704470 -0.32955938373837  1.11531837773777
 1  15.42825516971697 -0.05216401030103 -1.65507752105210
 1  14.62442799569957 -2.30838342014201 -0.87386671987199
 1  16.52684655815581 -2.10928496509651 -0.80066585048505
 1  15.58424370317032 -2.19164429702970  0.76250552195220
 1  15.85095536873687  1.81191776207621  0.02072253125313
 1  16.03320797759776  0.44336495979598  1.28393181578158
 1  18.19992121382138 -0.37867207770777  0.20939107130713
 1  17.86935152075208  0.56808869716972 -1.15698413091309
 1  18.18040272977298  2.50827722362236  0.40522591229123
 1  18.32782503670367  1.38233404290429  1.86559370937094
 1  20.40215654805480  0.30850881188119  0.41493264946495
 1  19.80326768336834  2.89478774887489 -1.29569147154715
 1  21.37967521122112  1.71823989368937 -1.42216532313231
 1  19.73197817081708  1.17467308900890 -1.78137031853185
 1  20.39883512001200  1.95776724472447  2.39181021762176
 1  22.23112596979698  2.09194922232223  1.35932008910891
 1  20.59881951135113  3.37300049964997  1.24712345024502
 1 -7.35761759485949  1.87105597879788  0.50913275937594
 1 -7.70034158255826 -0.29329950595059  0.05043491589159

