%nproc=3
%Mem=2GB
# td=(NStates=1) B3LYP/SVP 

TD

0 1
 6 -5.14756245434543 -1.87954419651965  0.46098097399740
 6 -4.60777109610961  2.66914336603660  1.53407979387939
 6 -9.11911182088209  3.43586438563856 -0.31385985388539
 6 -9.83671172567257 -1.34376517991799 -0.92744529792979
 7 -5.20181934423442  0.37951957485749  0.86621505850585
 6 -4.56096471257126 -0.74053077407741  0.74400784418442
 6 -3.10136982348235 -0.64396083078308  1.30384538033803
 6 -2.98665363076308  0.85400429272927  1.90932003780378
 6 -4.34764395749575  1.28548836673667  1.41677527452745
 6 -2.95725429392939  0.70396790909091  3.43301116371637
 6 -2.09254132483248 -0.84030399209921  0.19082702830283
 6 -0.66238945114511 -0.93447166376638  0.57342979567957
 6  0.28340200160016 -1.18999587248725 -0.57791934953495
 8  0.05924769236924 -1.57967033363336 -1.66066967846785
 8  1.55504570167017 -1.00764753785379 -0.14167661036104
 7 -6.92448704330433  2.76981425322532  0.46510601980198
 6 -5.75905748114811  3.37073149144915  0.93278413531353
 6 -6.06033921962196  4.75510194969497  1.03177967076708
 6 -7.26688578537854  4.99582841834183  0.46520304770477
 6 -7.87933887978798  3.69467796149615  0.13662381778178
 6 -5.03987450395040  5.76734224932493  1.50913217921792
 6 -7.96363364606461  6.30661467306731  0.21059956125613
 6 -8.71923982218222  6.59468919081908 -0.74678715751575
 7 -9.14147234783478  0.93947118011801 -0.45339780818082
 6 -9.75211907480748  2.18553105180518 -0.52089135833583
 6 -11.10601446794680  2.02292585358536 -0.96257009090909
 6 -11.31482543304330  0.70749808990899 -1.14978993369337
 6 -10.12578480418042 -0.02116206790679 -0.80163340584058
 6 -12.27010551145115  3.08323682528253 -1.11207429772977
 6 -12.67448518801880  0.13519103960396 -1.60789174887489
 6 -12.45917604830483 -0.55264852925293 -3.00512868416842
 7 -7.57757671527153 -1.24228591379138 -0.11476000450045
 6 -8.60114170167017 -1.98642736953695 -0.59119248164816
 6 -8.21453389238924 -3.41778866106611 -0.69583215051505
 6 -6.88255316441644 -3.50738756705671 -0.27418504240424
 6 -6.54811591499150 -2.10450326892689 -0.02254717851785
 6 -9.08380113771377 -4.60946169566957 -1.01212020642064
 6 -5.73696064126413 -4.32660769586959 -0.01576063046305
 8 -5.78655814601460 -5.58264779487949 -0.05004227012701
 6 -4.54183181178118 -3.33544430603060  0.34091315341534
 6 -3.93688748664866 -3.76315040854085  1.71671819751975
 8 -4.20115518901890 -3.36264419831983  2.85203327142714
 8 -3.18466715431543 -4.89621459435944  1.56600702860286
 6 -2.77848255205521 -5.64015346144615  2.77772991259126
 6  2.58845101370137 -1.24843874147415 -1.19215324112411
 6  3.90670391719172 -0.83490399279928 -0.45399749984998
 6  4.95973823042304 -0.13445239033903 -1.10576453305331
 6  4.92334152985299  0.45137586928693 -2.50241735853585
 6  6.10875262046205  0.17512525172517 -0.35032394659466
 6  7.41672291269127 -0.48935511841184 -0.92454932183218
 6  8.69188078917892 -0.18972295739574 -0.21491983948395
 6  10.02107303300330 -0.67433175977598 -0.87623497829783
 6  10.01368740734073 -2.10499430233023 -1.08601788668867
 6  11.22496634683468 -0.20257457215722 -0.07692824852485
 6  12.56500817501750 -0.51945726292629 -0.64532905600560
 6  13.73478206760676  0.10084285808581  0.08797085258526
 6  15.17957686948695 -0.16809769126913 -0.46247980588059
 6  15.70819039083908 -1.65605447084708 -0.50940970927093
 6  16.17326807110711  0.73170768806881  0.31245026732673
 6  17.63331822062206  0.92016493419342 -0.11022492389239
 6  18.57570849514951  1.79050337923792  0.74975579177918
 6  20.02541444304430  1.84900270487049  0.20522224972497
 6  20.06799749864987  2.33726030213021 -1.25590366816682
 6  20.86357887918792  2.75469680848085  1.34866665486549
 1 -3.94917257755776  3.32188342034203  2.06367124802480
 1 -9.98620647374737  4.15403264536454 -0.35224654735474
 1 -10.47356161256126 -2.07812496799680 -1.13325279837984
 1 -3.00018234523452 -1.34490372557256  2.09148002370237
 1 -2.14237555205521  1.57613783698370  1.43209612181218
 1 -1.97102736073607  0.25870223862386  3.88887799179918
 1 -2.90722621452145  1.79686473617362  3.88211840704070
 1 -3.63682327922792  0.07616280078008  3.89558473467347
 1 -2.19213472187219 -1.75977071017102 -0.28326277347735
 1 -2.30494383378338  0.03091928292829 -0.56772346654665
 1 -0.37845366516652  0.04542839643964  0.98493885518552
 1 -0.54473481278128 -1.73537549614961  1.23601110951095
 1 -3.86639145564556  5.68224259235924  1.37163996379638
 1 -5.53277848424842  6.73773868856886  1.16169546414641
 1 -4.93882196899690  5.55973401740174  2.60930506450645
 1 -7.48026303570357  7.25077495199520  0.96385793969397
 1 -9.03925927782778  5.74853501400140 -1.41617320342034
 1 -9.41034578117812  7.48696742424242 -0.76896711961196
 1 -12.40909527152715  3.44815400260026 -0.28227604070407
 1 -11.79111295959596  3.88552250965097 -1.80430974777478
 1 -12.96671769456946  2.76314415011501 -1.70422477787779
 1 -13.15395776897690 -0.66051497819782 -0.76782153325333
 1 -13.45452247674767  0.96080023472347 -1.57888024682468
 1 -12.56783241314131  0.10124693779378 -3.85809315361536
 1 -11.40827579557956 -1.14839241284128 -3.27963691579158
 1 -13.29659641314131 -1.33670276507651 -3.29330687298730
 1 -10.09961651045105 -4.71696101590159 -0.35923822582258
 1 -9.37740171907191 -4.65656360236023 -1.99593649184918
 1 -8.55035020972097 -5.39449771677168 -0.60190814631463
 1 -3.74359621102110 -3.22317860806081 -0.44338568716872
 1 -2.03274366736674 -6.16910200590059  2.32513584768477
 1 -2.42530097649765 -4.77398088198820  3.39910435303530
 1 -3.63090610701070 -6.11343643524352  3.20810768636864
 1  2.49031293879388 -2.34288193169317 -1.40094126112611
 1  2.20327522202220 -0.91867944874487 -2.01792956015602
 1  4.10047281898190 -1.17984029832983  0.65419332233223
 1  5.21724355355536  1.35836834583458 -2.57413213301330
 1  5.61063768096810 -0.12964700220022 -3.21284268586859
 1  3.79107922612261  0.28565975277528 -3.07396822192219
 1  6.53265128132813  1.15017114211421 -0.16270646174617
 1  6.03200124482448 -0.10085997559756  0.74574228162816
 1  7.05133191809181 -1.62329905450545 -0.84331509110911
 1  7.55159470197020 -0.25219319871987 -2.13439826882688
 1  8.70191567896790  0.98884772607261 -0.03089294099410
 1  8.68968203100310 -0.67839199069907  0.82550536293629
 1  10.16436910551055 -0.27776521982198 -1.77927250225022
 1  9.24088440464046 -2.41275996919692 -1.79532808060806
 1  10.85818084918492 -2.31951355115512 -1.77743834873487
 1  9.84041906200620 -2.71404308990899 -0.30019828912891
 1  11.04744004140414  0.89961874197420  0.11787037223722
 1  11.06730269376938 -0.63864910141014  1.05289521972197
 1  12.93659837043704 -1.54751632283228 -0.87533074607461
 1  12.80414856705671  0.14732465346535 -1.63842537623762
 1  13.85915707060706  1.29722943374337  0.17591050195019
 1  13.65828005500550 -0.37929435723572  1.06314316021602
 1  15.18434077827783  0.16406761286129 -1.58709072237224
 1  14.95900145304530 -2.20468305010501 -1.11508084128413
 1  16.83401727522752 -1.77226126272627 -0.85801158505851
 1  15.59619489828983 -2.14974010661066  0.47755702710271
 1  15.61030130333033  1.76565313561356  0.38250870987099
 1  16.08167282408241  0.36279690299030  1.40996441904190
 1  17.98031925362536 -0.14724893539354 -0.61018088588859
 1  17.62255684128413  1.30199208750875 -1.21020945344535
 1  18.07179186868687  2.74368076397640  0.92622801250125
 1  18.77034928912892  1.45900170967097  1.73264041404140
 1  20.43268960136013  0.78769673067307  0.28906006220622
 1  19.69391674827483  3.39128739883988 -1.40833273567357
 1  21.12047929162916  2.31285935563556 -1.76528963556356
 1  19.40981595459546  1.76569219091909 -1.92406458795880
 1  20.92999823632363  2.20029149714971  2.26598763536354
 1  22.09039189638964  2.77699772717272  0.76266042314231
 1  20.37297692709271  3.78537173677368  1.30133887178718
 1 -6.94323615671567  1.81131000420042  0.27548939503950
 1 -7.60042159055906 -0.25254543054305  0.09601947434744

