%nproc=3
%Mem=2GB
# td=(NStates=1) B3LYP/SVP 

TD

0 1
 6 -5.14095179327933 -1.84527076917692  0.39694457035704
 6 -4.77598791779178  2.77791424312431  1.40859724562456
 6 -9.37866777647765  3.37438823802380 -0.24891335923592
 6 -9.80325838033803 -1.43162396579658 -0.92666521992199
 7 -5.10602976527653  0.41404302720272  0.72066050305030
 6 -4.40399901600160 -0.70182690369037  0.75083852725273
 6 -3.11880156665667 -0.54293072777278  1.12749774557456
 6 -3.06781174657466  0.91784067636764  1.77392649844985
 6 -4.35934512761276  1.38972879077908  1.22989658665867
 6 -2.95079364786479  0.97423493579358  3.30462832543254
 6 -2.07906997769777 -0.83315327702770  0.03313125872587
 6 -0.55702891509151 -0.74097231383138  0.49776222892289
 6  0.34751841324132 -1.20038691159116 -0.57760931853185
 8  0.15485725332533 -1.98380074667467 -1.57788139963996
 8  1.65647584468447 -0.67650442354235 -0.36544898759876
 7 -7.03245784038404  2.81734900670067  0.38377788698870
 6 -5.97794937033703  3.53760817911791  0.93603446034603
 6 -6.28303148884889  4.78580502000200  1.11703819661966
 6 -7.58239733653365  5.03449228472847  0.60787731513151
 6 -8.08549949584959  3.70208870257026  0.25432558795880
 6 -5.48373889038904  5.86401191629163  1.81007227322732
 6 -8.27656493919392  6.30030404200420  0.58919742104210
 6 -9.02479037723772  6.80439016091609 -0.39566204500450
 7 -9.17705590619062  0.95393262626263 -0.52087455585559
 6 -9.92574643754375  2.07603010171017 -0.51063033223322
 6 -11.28836270277028  1.91277483848385 -0.93492732663266
 6 -11.44944889538954  0.58373571367137 -1.16228118281828
 6 -10.08699092479248 -0.04885483718372 -0.81810505300530
 6 -12.26671517241724  2.91765026662666 -0.99163225352535
 6 -12.68005574507451 -0.16257873737374 -1.57811877157716
 6 -12.73813394409441 -0.46279954435444 -3.19858803010301
 7 -7.56140509810981 -1.24082576777678 -0.14326285478548
 6 -8.61751333883388 -2.04175290209021 -0.73937730013001
 6 -8.13507594659466 -3.33008989118912 -0.58438100540054
 6 -6.85114002310231 -3.35305213351335 -0.11901952585259
 6 -6.48372947634764 -2.06540935953595  0.06911198739874
 6 -9.05056781438144 -4.53981473097310 -0.92465145954595
 6 -5.69828677387739 -4.35600063516352  0.08474942054205
 8 -5.67414690489049 -5.49019854995499 -0.11283854975498
 6 -4.46672430103010 -3.21921268286829  0.36791585368537
 6 -3.81659545744574 -3.86310040354035  1.59360588628863
 8 -4.12592766626663 -3.45495342924292  2.72675074317432
 8 -2.96811549914991 -4.86958193109311  1.33777420532053
 6 -2.54334903870387 -5.47051649774978  2.51726386598660
 6  2.71221338993899 -1.11477537513751 -1.24092811861186
 6  4.00874412121212 -0.66809731213121 -0.57719982008201
 6  5.01399365596560 -0.12982192729273 -1.29645360196020
 6  5.12920211591159  0.28892962466247 -2.83292040884088
 6  6.28826057125713  0.26070380958096 -0.62601151535153
 6  7.47896913731373 -0.49301548444844 -1.02414928182818
 6  8.76809841094109 -0.26108009310931 -0.17571591909191
 6  10.16887781348135 -0.86168049464946 -0.76616397119712
 6  10.08524456305631 -2.44427823072307 -0.57446673157316
 6  11.33347719791979 -0.29658397309731  0.08850829512951
 6  12.69223089728973 -0.74135945314531 -0.40714523762376
 6  13.84328291769177  0.01410418421842  0.36566862236224
 6  15.28492740454045 -0.26511739323932 -0.11665522342234
 6  15.63838341014101 -1.76121498689869  0.17406863856386
 6  16.33946469076908  0.70722523982398  0.62009103140314
 6  17.66659154795479  0.76268918661866 -0.09622352375238
 6  18.57081800610061  1.75892022092209  0.61282209840984
 6  19.98203010461046  1.88115592019202 -0.09327760026003
 6  19.98813951285128  2.34557113321332 -1.53788186598660
 6  20.89581210251025  2.73311465026503  0.75656744494449
 1 -4.13405106540654  3.45811704370437  1.89576445734573
 1 -9.93827168026803  4.21309855195519 -0.20132145484548
 1 -10.70544480088009 -2.00174733023302 -1.20166964006401
 1 -2.73938626562656 -1.13451268646865  2.02521339703970
 1 -2.08799011351135  1.55497572077208  1.56809972217222
 1 -1.95970622862286  0.94942131053105  3.89424852885288
 1 -3.49521501340134  2.07533258295830  3.49945014021402
 1 -3.43247284418442  0.13870905540554  3.88776395259526
 1 -2.31195670407041 -1.87974270737074 -0.33338778597860
 1 -2.42869620902090 -0.18240204920492 -0.75925261946195
 1 -0.12222804260426  0.22797665126513  0.96124648594860
 1 -0.60873121242124 -1.45878783738374  1.18986649504950
 1 -4.44162897939794  6.14106847494750  1.31486428622862
 1 -5.97245245164517  6.79990490519052  1.93174246884688
 1 -4.98355644244424  5.78900694469447  2.84658879287929
 1 -8.05740074947495  6.79149902440244  1.44854640854085
 1 -9.21209656155616  6.05043520402040 -1.21475306140614
 1 -9.48969371597160  7.82116084358436 -0.28326854975498
 1 -12.25137949995000  3.50425961316132 -0.07834564766477
 1 -12.32904675297530  3.79623358075807 -1.74088340514051
 1 -13.25670669346935  2.62579041474147 -1.40026438183818
 1 -12.77299967316732 -0.97001592829283 -0.91671642274227
 1 -13.60784780928093  0.20615477017702 -1.34762712151215
 1 -12.73337896779678  0.56299311241124 -3.79250659495950
 1 -11.85496046404641 -1.00800837443744 -3.47011596369637
 1 -13.67994474797480 -0.99719881468147 -3.50494803710371
 1 -9.85473202200220 -4.67265658545855 -0.07968027002700
 1 -9.52708668756876 -4.44969291529153 -1.95921281948195
 1 -8.31002617731773 -5.31140940794079 -0.98154611011101
 1 -3.87019887128713 -3.32726901710171 -0.60072142074207
 1 -1.77017741074107 -6.17960305600560  2.19424275837584
 1 -1.94198264466447 -4.88301178507851  3.06500094269427
 1 -3.19062207860786 -6.07819291089109  3.18580545614561
 1  2.58157206470647 -2.20303794729473 -1.43655482248225
 1  2.66681157565757 -0.42174975577558 -2.15906367356736
 1  3.76935970767077 -0.72380469476948  0.50397830083008
 1  5.64789661886189  1.21841435043504 -2.92809752955296
 1  5.71164778197820 -0.51918595609561 -3.31733313491349
 1  4.28561868006801  0.08084927172717 -3.53212403750375
 1  6.46482449864987  1.37752387738774 -0.60714090519052
 1  6.19397744244425  0.26813692409241  0.55174288168817
 1  7.19879666456646 -1.70931765636564 -0.89668042764276
 1  7.69243878637864 -0.36592457185719 -2.09880470947095
 1  8.84428991639164  0.81602044334433 -0.29399925162516
 1  8.71976503930393 -0.25528968046805  0.99166197859786
 1  10.30845351395140 -0.70746819011901 -1.82511708670867
 1  8.97960827702770 -2.67343603680368 -1.06449499729973
 1  10.97883291439144 -3.08471007080708 -0.80287089198920
 1  9.98151317141714 -2.62665435103510  0.70390212091209
 1  11.24178947634764  0.81892067216722  0.18761734693469
 1  11.25534149764977 -0.76739197569757  1.05579550975098
 1  12.83865857645765 -1.89369094029403 -0.17637085008501
 1  12.67518567076708 -0.29781986098610 -1.40867240094009
 1  13.55437659255926  1.01788149894989  0.23045595649565
 1  13.57147137413741 -0.34330075787579  1.48872571847185
 1  15.42298464266427 -0.15733452735274 -1.11340335363536
 1  15.14539009190919 -2.50385296709671 -0.38350768396840
 1  16.77680155365536 -2.07464150075008 -0.09277506140614
 1  15.43758903770377 -2.23935906850685  1.36654592599260
 1  15.94012428562856  1.59469603990399  0.66257671667167
 1  16.34995965276528  0.16927755105511  1.69804322692269
 1  18.12268349004901 -0.29061327182718 -0.17151701950195
 1  17.63302788838884  1.09771165946595 -1.20772920542054
 1  18.05303999349935  2.82116851275127  0.76149153885389
 1  18.70195244944495  1.50051586108611  1.67893504350435
 1  20.44559089148915  1.05113307430743  0.01084224042404
 1  19.36773413001300  3.23558182828283 -1.74918682108211
 1  21.10361760546055  2.19175724542454 -1.85344845144514
 1  19.38991396439644  1.76214183588359 -2.26596877837784
 1  20.84348958545855  2.19639110711071  1.68932996959696
 1  21.81223408060806  2.79797982538254  0.24183834093409
 1  20.49601923132313  3.77512071167117  0.77678641654165
 1 -7.17507934103410  1.82825169836984  0.25985783188319
 1 -7.75462701110111 -0.20687086308631  0.06400627302730

