%nproc=3
%Mem=2GB
# td=(NStates=1) B3LYP/SVP 

TD

0 1
 6 -5.21103880198020 -1.89011525362536  0.46855173107311
 6 -4.69741006000600  2.67770422212221  1.50159654555456
 6 -9.24198410811081  3.34349514871487 -0.26152462036204
 6 -9.73273132763276 -1.35782658605861 -1.12040459385939
 7 -5.12171133343334  0.46520814371437  0.81322975997600
 6 -4.55093370947095 -0.78399512051205  0.77103054645465
 6 -3.07790747724773 -0.70080651535154  1.24995999179918
 6 -3.08076304170417  0.74901379367937  1.84566367216722
 6 -4.29931912501250  1.44193401130113  1.31528512551255
 6 -3.07686625512551  0.89793730603060  3.30645850845085
 6 -2.10060213091309 -1.00233019471947  0.18978692429243
 6 -0.59835304750475 -1.13440165676568  0.69212166486649
 6  0.34451811321132 -1.34339121202120 -0.43689524712471
 8  0.11310307790779 -1.69647201380138 -1.51404501600160
 8  1.64194439153915 -0.95784255735574 -0.09570201290129
 7 -6.96215080968097  2.70655792759276  0.48798830803080
 6 -5.80610218561856  3.33865828412841  1.01280213711371
 6 -6.27338052375238  4.82045848534854  1.10337683048305
 6 -7.48180727752775  4.98102693819382  0.51864839223922
 6 -8.01699264516452  3.61178967266727  0.17109726512651
 6 -5.24656517301730  5.73223873897390  1.69670093609361
 6 -8.23635091779178  6.26175018661866  0.42545104640464
 6 -8.94477237543754  6.59393911581158 -0.66868934773477
 7 -9.21187938853885  0.86618385138514 -0.59109157755776
 6 -9.77055091799180  2.12643514221422 -0.63270253945395
 6 -11.15610947744775  1.96080964196420 -1.03784761866187
 6 -11.38147209770977  0.57459479957996 -1.29061401610161
 6 -10.04696692239224 -0.01919187088709 -1.00797403990399
 6 -12.14943344424442  3.01881038263826 -1.27716080638064
 6 -12.65800353985399 -0.16743922342234 -1.77642860256026
 6 -12.65210534123412 -0.32388565296530 -3.20398857015702
 7 -7.51072002960296 -1.18315000020002 -0.33704223272327
 6 -8.55145673317332 -1.93402212901290 -0.75972933533353
 6 -8.19817225622562 -3.34763164536454 -0.76136870417042
 6 -6.82204711381138 -3.33265009330933 -0.37571519541954
 6 -6.41973307670767 -2.06395921452145 -0.05993091689169
 6 -9.08199095669567 -4.45624637413741 -0.96742573697370
 6 -5.71641858705871 -4.30918595369537  0.04222516811681
 8 -5.64362385258526 -5.52930246034603  0.02612534663466
 6 -4.53059068766877 -3.30452121372137  0.56674573667367
 6 -4.05066886478648 -3.83388748224823  1.89731625732573
 8 -4.35410048354835 -3.36932486638664  2.97727579567957
 8 -3.22189087668767 -4.88403337623762  1.63202363026303
 6 -2.66267097089709 -5.39076852295230  2.81494363396340
 6  2.64260642924292 -1.15785968356836 -1.09401342714271
 6  3.97196044284428 -0.84334483688369 -0.45906800690069
 6  4.93051530813081  0.03591464636464 -0.94187814441444
 6  4.77744694039404  0.78852958465847 -2.17202431923192
 6  6.17350909610961  0.27654539373937 -0.15510442464246
 6  7.39773101350135 -0.40851703460346 -0.77017388428843
 6  8.72483408450845 -0.19059304440444 -0.00013836133613
 6  9.96746767246725 -0.48117244384438 -0.85028238303830
 6  10.23128916751675 -2.00486428932893 -1.38893817871787
 6  11.17648149834984 -0.23175749044904  0.11341078537854
 6  12.55540721492149 -0.35886120332033 -0.52344686778678
 6  13.84745333473347  0.10044281808181  0.34190624612461
 6  15.21874078587859 -0.09662054355436 -0.32676623452345
 6  15.56785635743574 -1.55797466286629 -0.59924869316932
 6  16.34977572187219  0.79133365066507  0.34622364466447
 6  17.73367825662566  0.66465938363836 -0.25281918331833
 6  18.74696562086208  1.57004133303330  0.49840065626563
 6  20.19471137273727  1.55700350495050 -0.08100637313731
 6  20.22638333723372  2.32208878497850 -1.44130220802080
 6  21.00988350965097  2.45374671347135  0.87646943514351
 1 -4.00015767606761  3.28035926792679  1.69973485438544
 1 -9.77369522262226  4.42339958205821 -0.71885320802080
 1 -10.66481073747375 -1.84430158565857 -1.65358483158316
 1 -3.06161848884888 -1.48152738793879  2.10352122782278
 1 -2.11922323682368  1.34303452665267  1.35638855105511
 1 -2.11566182418242  0.48666503490349  3.69007811181118
 1 -3.43038853075307  1.87032208190819  3.87871806700670
 1 -3.83562315921592  0.13109829432943  3.57751292749275
 1 -2.19140464886489 -1.98802353545355 -0.12333678087809
 1 -2.36975031443144 -0.28158196719672 -0.79921661586159
 1 -0.35084090389039 -0.17946409280928  1.36466682798280
 1 -0.60334067336734 -2.06741870047005  1.50815832423242
 1 -4.18628344484449  5.52306667476748  1.07476027582758
 1 -5.56035124152415  6.80002491719172  1.53679297389739
 1 -4.99375746254626  5.64248229222922  2.76653078707871
 1 -8.15782079147915  6.81524139863986  1.40819237313731
 1 -8.84806015791579  5.98411857235723 -1.74264585068507
 1 -9.51760650725072  7.54838356585659 -0.83404362726273
 1 -12.37930229222922  3.64880406760676 -0.44851266436644
 1 -11.75901975027503  3.91677563496350 -1.94144346114611
 1 -13.27906892969297  2.60110794649465 -1.57406176157616
 1 -12.86888926212621 -1.17380630733073 -1.13245799689969
 1 -13.52664968946895  0.36492064676468 -1.53404576337634
 1 -12.53759938983898  0.55521233433343 -3.91050839513951
 1 -11.88742371037104 -1.20136771037104 -3.57423637573757
 1 -13.52120887438744 -1.01730082488249 -3.43547108940894
 1 -10.01254780358036 -4.25628494829483 -0.15705800780078
 1 -9.71517549644964 -4.30981892789279 -1.95466236443644
 1 -8.58234340904090 -5.58342660966097 -0.84288224372437
 1 -3.76794864626463 -3.48161445164516 -0.29031037963796
 1 -1.81859225222522 -5.99813490919092  2.68937227132713
 1 -2.29341778817882 -4.52497598149815  3.50797524012401
 1 -3.37314033043304 -6.06830192179218  3.41712858845885
 1  2.59859376687669 -2.25147279077908 -1.36092725972597
 1  2.20725562006201 -0.64491207200720 -1.94732249944994
 1  4.12810558225823 -1.26239855415542  0.55346324932493
 1  4.93465529472947  1.96851936093609 -1.90198491829183
 1  5.56675329252925  0.52782874537454 -2.92946434803480
 1  3.72565268346835  0.67512869966997 -2.62017284238424
 1  6.35706372257226  1.31683780878088 -0.00622081318132
 1  6.13620166486649 -0.28069795939594  0.70673838123812
 1  7.35486227112711 -1.53222994759476 -0.85993675327533
 1  7.63205274777478  0.04947696829683 -1.75934076307631
 1  8.80089557695769  0.84541338263826  0.29190933923392
 1  8.66457952075207 -0.74022817431743  0.95277809020902
 1  10.00053272187219  0.33518607530753 -1.83805838083808
 1  9.27770808700870 -2.37318601180118 -2.02273082088209
 1  11.19274430553055 -2.03399499929993 -1.81375198009801
 1  10.06903192329233 -2.87767945354535 -0.47789605890589
 1  11.06074137153715  0.75700448054806  0.76929551475148
 1  11.02763872737274 -0.88791402790279  1.22496242644264
 1  12.86132084268427 -1.52877444864486 -0.85884909790979
 1  12.56932508470847  0.26725664666467 -1.37709924362436
 1  13.75750690559056  1.26038574937494  0.71668457935794
 1  13.94612883988399 -0.58135456325633  1.27658450435044
 1  15.12884522872287  0.13619482558256 -1.39716172947295
 1  14.93197875077508 -1.93102568436844 -1.29596893009301
 1  16.46382025552555 -1.76255029162916 -0.96411219511951
 1  15.79847512631263 -2.03709884248425  0.47325659705971
 1  15.95986625982598  1.79248581888189  0.45856631563156
 1  16.40548520532053  0.46496712001200  1.44625804840484
 1  18.11617283898390 -0.31942615311531 -0.06293616141614
 1  17.83747833343334  0.73549543784378 -1.43802223472347
 1  17.97530221972197  2.59577597349735  0.51886727642764
 1  18.56428868306831  1.47197300680068  1.63754090409041
 1  20.34211054345435  0.43204116511651 -0.10786963076308
 1  19.88153551015102  3.37605587568757 -1.36490839323932
 1  21.21165840954096  2.37404547424742 -1.69987309390939
 1  19.58635360836083  1.90683630533053 -2.31433361486149
 1  21.21782701920192  2.00475194319432  1.84090512711271
 1  22.06477933513352  2.57334736213621  0.47863202030203
 1  20.53257288668867  3.45821902150215  1.07958669656966
 1 -7.00057189028903  1.61524039723972  0.21634348044805
 1 -7.51705325372537 -0.05099527552755 -0.31157128472847

