%nproc=3
%Mem=2GB
# td=(NStates=1) B3LYP/SVP 

TD

0 1
 6 -5.15708340644064 -1.82804904700470  0.48101297719772
 6 -4.82025234423442  2.88380483218322  1.45767215311531
 6 -9.37665757545754  3.24283508270827 -0.24366283418342
 6 -9.85840389488949 -1.49659046244624 -0.86444899829983
 7 -5.24846400870087  0.58402002490249  0.83035147214721
 6 -4.59393800990099 -0.59242596359636  0.88258170157016
 6 -3.06683637013701 -0.50629706440644  1.19641463726373
 6 -3.07787275267527  0.97822671497150  1.80818992479248
 6 -4.34935412851285  1.49649946784678  1.33274687168717
 6 -2.91345991449145  0.96041355365537  3.31579944254425
 6 -2.04207627832783 -0.66469643134313 -0.00703275767577
 6 -0.67930114231423 -0.67547576417642  0.54500695339534
 6  0.33520718211821 -1.14731160406041 -0.58418997659766
 8  0.03172494009401 -1.86713908050805 -1.53784739623962
 8  1.59439963706371 -0.63917069016902 -0.28492093479348
 7 -7.12075667026703  2.74703197499750  0.56421593079308
 6 -6.03442501790179  3.35447986628663  1.04268512541254
 6 -6.35155834153415  4.78421486098610  1.13767025982598
 6 -7.60236933373337  5.00716955245525  0.56500302770277
 6 -8.16377732363236  3.66644513821382  0.30885104050405
 6 -5.47437795429543  5.87729324442444  1.67951921792179
 6 -8.31404868756876  6.31510552215221  0.35759426072607
 6 -9.13038093629363  6.61961168306831 -0.55888836763676
 7 -9.26675487608761  0.87882511551155 -0.56942941134113
 6 -9.97023088598860  2.03605610431043 -0.61301057025703
 6 -11.29447331383138  1.81272483348335 -0.92951678557856
 6 -11.45515946644664  0.44337167726773 -1.16496145084508
 6 -10.11660388608861 -0.13796374807481 -0.82269551205120
 6 -12.23168166906691  2.95038353995400 -1.19619270957096
 6 -12.67322506200620 -0.25568804830483 -1.62938389808981
 6 -12.35340547124713 -0.66539980438044 -3.10733890519052
 7 -7.51807076467647 -1.23042472767277 -0.21008953745375
 6 -8.60054164166417 -2.03907263406341 -0.53440680308031
 6 -8.14232667166717 -3.44138102030203 -0.67148971627163
 6 -6.81793670277028 -3.41909873817382 -0.19846747064706
 6 -6.44244534793479 -2.03121594019402  0.10185526172617
 6 -8.92400515811581 -4.70084083358336 -0.98834782918292
 6 -5.64438138333833 -4.23200823592359  0.07363830943094
 8 -5.45669515971597 -5.42986251635164 -0.09121638753875
 6 -4.53644127272727 -3.26467722932293  0.53562262436244
 6 -3.91591538943894 -3.74581867536754  1.82301882758276
 8 -4.17680275377538 -3.24842277617762  2.88381644974497
 8 -2.96854554215422 -4.65668064096410  1.60600102800280
 6 -2.42003670747075 -5.35445489158916  2.78120025962596
 6  2.61145331393139 -1.07116101370137 -1.25103912971297
 6  3.92970621742174 -0.68995949834984 -0.60141224132413
 6  4.92189444604460 -0.13595254035404 -1.14119807640764
 6  4.91333052875287  0.58365909760976 -2.57351446824682
 6  6.23077482268227  0.09933767296730 -0.48642755695570
 6  7.47597883828383 -0.51212739563956 -1.10398726562656
 6  8.81321292239224 -0.27271125622562 -0.37610595809581
 6  10.14467539323932 -0.68965329192919 -0.89822717751775
 6  10.07331336993699 -2.29284308720872 -1.25902518741874
 6  11.36287013721372 -0.27505181988199 -0.05397595329533
 6  12.69643131733173 -0.58404372157216 -0.69798432153215
 6  13.86037462686269 -0.10662788898890  0.08635069056906
 6  15.25159407120712 -0.19807068856886 -0.60166372427243
 6  15.65993556535653 -1.68485735113511 -0.65522429072907
 6  16.36387713201320  0.51464598189819  0.35931495379538
 6  17.73245813461346  0.75395831353135 -0.22808671007101
 6  18.67853877817782  1.61503583248325  0.70725154135414
 6  20.17205910751075  1.62679048364836  0.34457618511851
 6  20.32532323122312  2.40668724482448 -0.98470654845485
 6  20.92365488678868  2.28521986078608  1.65798758695870
 1 -4.03295095539554  3.54323555555556  1.91880676157616
 1 -10.11868972207221  4.26541378347835 -0.36726804950495
 1 -10.68202245864586 -2.23679083458346 -1.16883635673567
 1 -2.91208353535353 -1.11819105430543  1.99503037873787
 1 -2.25745706020602  1.76176639983998  1.33506641884188
 1 -1.96289654765477  0.61696806520652  3.63152225622562
 1 -3.17750324222422  2.05342039173917  3.66560675587559
 1 -3.77347694459446  0.46320150465047  3.88995417161716
 1 -2.27095260366037 -1.46840157325733 -0.61084553175318
 1 -2.52778611801180  0.28855504650465 -0.49398609280928
 1 -0.38159397919792  0.32040589418942  0.87631799309931
 1 -0.56963730303030 -1.37022898149815  1.46181368976898
 1 -4.38322313881388  5.77423179127913  1.24419721952195
 1 -6.03912911931193  6.66736165086509  1.46477577217722
 1 -5.39278736553655  5.72276032003200  2.77564169816982
 1 -8.15632064146415  7.05170504500450  1.09944149804980
 1 -9.45847119901990  5.87268742924292 -1.37769935603560
 1 -9.44657940454045  7.67292602010201 -0.64094431733173
 1 -12.70693505550555  3.68385757295730 -0.37788560166017
 1 -11.66689053735374  3.43463742114211 -1.93098241504150
 1 -13.15269629242924  2.55457329302930 -1.71016537193719
 1 -12.95547792099210 -1.10595952265227 -0.86076082718272
 1 -13.54002102660266  0.47667182188219 -1.57335969476948
 1 -12.42804843474347  0.14967178027803 -3.87868521282128
 1 -11.50753572157216 -1.19763733733373 -3.43293224532453
 1 -13.27996474997500 -1.35266436123612 -3.41106864916492
 1 -9.75611216001600 -4.84420374017402 -0.36785908790879
 1 -9.25147912681268 -4.61033897989799 -2.06997389558956
 1 -8.27224239893989 -5.49667793479348 -0.95948390389039
 1 -3.62683453485349 -3.43205949614961 -0.31714306290629
 1 -1.77583797679768 -6.02285738143814  2.38224155825583
 1 -1.81437988438844 -4.56128961286129  3.47899234183418
 1 -3.17941095749575 -5.78638372997300  3.32203907950795
 1  2.59968387588759 -2.24687233073307 -1.18174934193419
 1  2.44063895839584 -0.45207278807881 -2.36878464566457
 1  3.97808057975798 -1.09716203050305  0.44228213121312
 1  5.65129695889589  1.59516202520252 -2.60147486728673
 1  5.24394101130113 -0.39212324982498 -3.30981238283828
 1  3.85786590479048  0.89732091889189 -3.01550237533753
 1  6.46464448064806  1.22766889188919 -0.29624981608161
 1  6.32845088978898 -0.35389527912791  0.47018472587259
 1  7.25842262716272 -1.58952567716772 -1.19810056965697
 1  7.67103664616462 -0.18420640004000 -2.22722755175518
 1  9.00077556495649  0.95506434773477 -0.16932678437844
 1  8.66101916471647 -0.74533868536854  0.61305411781178
 1  10.23408607720772 -0.25728317161716 -1.93841841684168
 1  9.27494781098110 -2.53360205340534 -2.03920246804680
 1  11.07620265136514 -2.56671827162716 -1.92475308020802
 1  10.08847386748675 -2.79229091469147 -0.34932320162016
 1  11.44274957235724  0.76723550365037  0.18477706290629
 1  11.15614157765777 -0.78897413391339  0.87081701190119
 1  12.76344105470547 -1.67456902810281 -0.99138235123512
 1  12.85283343554355  0.02546246724673 -1.67852938663866
 1  13.77997915281528  0.91820153095310  0.30343325422542
 1  13.71964619161916 -0.53538996679668  0.98275512141214
 1  15.03601594579458  0.19473067916792 -1.65936795009501
 1  14.95999155205521 -2.05831841364136 -1.33728306150615
 1  16.67045091859186 -1.64834887148715 -0.98763454735474
 1  15.53270854965496 -2.14297943054305  0.44209348074807
 1  15.82743301650165  1.36628319861986  0.71380183918392
 1  16.30689534633463  0.02684330763076  1.36738016061606
 1  18.25891711341134 -0.19124333483348 -0.56046591439144
 1  17.58082266786679  1.40911279957996 -1.23604203670367
 1  18.38439312881288  2.76078247414741  1.05773116281628
 1  18.72435468966897  0.99858566806681  1.74144129412941
 1  20.65024135653566  0.51477943894389  0.29348050425043
 1  20.11654901150115  3.51543981408141 -0.72934483688369
 1  21.47813505720572  2.25005307500750 -1.15961906850685
 1  19.83445841884188  2.08445406710671 -1.81552373387339
 1  20.99081431793179  1.74720618861886  2.57030806740674
 1  22.05058791599160  2.25942596999700  1.40827498459846
 1  20.63945357475747  3.37510070967097  1.69888862676268
 1 -7.26078791189119  1.72115098829883  0.51151299739974
 1 -7.77751930033003 -0.19206938293829 -0.26100622822282

