%nproc=3
%Mem=2GB
# td=(NStates=1) B3LYP/SVP 

TD

0 1
 6 -5.14920261836184 -2.01771801390139  0.45280015591559
 6 -4.77081740074007  2.68859531123112  1.36767315321532
 6 -9.40599050875087  3.36282708190819 -0.28265673357336
 6 -9.92700075457546 -1.45779658305831 -0.91069362276228
 7 -5.21657081938194  0.36143776667667  0.88487692469247
 6 -4.52379099519952 -0.81742846384638  0.83890733413341
 6 -3.10595028152815 -0.55892232693269  1.28624362016202
 6 -3.07496246164616  0.83613250555055  1.97197630343034
 6 -4.43970316341634  1.37138695659566  1.33621721872187
 6 -3.06362493099310  0.80977849014901  3.46997486008601
 6 -2.09304137483748 -0.75670563226323  0.10516846244624
 6 -0.61118433063306 -0.70932914951495  0.60225267796780
 6  0.36005966736674 -1.11004787768777 -0.53863542114211
 8  0.05843761136114 -1.66386875347535 -1.56324993649365
 8  1.69196939403940 -0.73880065316532 -0.24863730643064
 7 -7.11457605220522  2.73239051085109  0.58924843404340
 6 -5.91931350675068  3.30871528982898  1.05531638853885
 6 -6.14741792749275  4.76549298879888  1.06115260806081
 6 -7.47261635843584  4.96387522302230  0.50960748814881
 6 -8.01483242914292  3.63052154585459  0.24109426482648
 6 -5.18836935343534  5.73064857995800  1.48232949894989
 6 -8.11279856255626  6.27929194079408  0.33234173547355
 6 -8.85282318051805  6.76232595449545 -0.73898637743774
 7 -9.27318551915191  0.91562879587959 -0.52504497289729
 6 -9.85943980688069  2.07814031273127 -0.56153542274227
 6 -11.28835270177018  1.96702026302630 -0.89359319321932
 6 -11.49190314081408  0.56564390449045 -1.07807276197620
 6 -10.19221144684468 -0.05317526922692 -0.88274151665166
 6 -12.21254975587559  2.99806830843084 -1.03545663596360
 6 -12.64812255175518 -0.11061354085409 -1.60750170987099
 6 -12.70331046174618 -0.40510377477748 -3.14523269456946
 7 -7.58600755835584 -1.27324901010101 -0.23101162966297
 6 -8.59445103260326 -2.07254598139814 -0.68940230263026
 6 -8.15076751575158 -3.36743362556256 -0.74532710001000
 6 -6.83652856195620 -3.42246907520752 -0.26941456535654
 6 -6.49441054445445 -2.09765258385839 -0.04183910771077
 6 -9.04092685028503 -4.51114186368637 -1.08568756315632
 6 -5.80386733193319 -4.25109014411441  0.02134307990799
 8 -5.77458694889489 -5.48321785188519  0.01090382448245
 6 -4.57676530513051 -3.38682944454445  0.35549461156116
 6 -3.95258905680568 -3.92462655615562  1.72443896959696
 8 -4.26076114961496 -3.38520645454545  2.85891395949595
 8 -3.16169485708571 -4.85422039493949  1.53769419731973
 6 -2.72500720452045 -5.50651009710971  2.79920205980598
 6  2.66366853545355 -1.12628652625263 -1.19474350015002
 6  4.00528377517752 -0.64196469886989 -0.62699479957996
 6  5.00005226182618 -0.04277322242224 -1.25423938053805
 6  4.96114531023102  0.47767849954995 -2.68387550435043
 6  6.35227697289729  0.21111885108511 -0.54290320452045
 6  7.60128136853685 -0.47774395729573 -1.15284215111511
 6  8.82309391049105 -0.18202218731873 -0.25154350185018
 6  10.14620554625463 -0.77807213381338 -0.75126248104810
 6  10.17017305590559 -2.26697049995000 -0.64067335223522
 6  11.34190804100410 -0.19719403410341  0.07838728302830
 6  12.75128680288029 -0.46165148234823 -0.50495501860186
 6  13.95316390579058  0.22598537233723  0.19475153065307
 6  15.23464237603760  0.03692281078108 -0.45382894079408
 6  15.63948352015201 -1.43431229662966 -0.62726149444944
 6  16.31238198249825  0.69717423472347  0.51628065036504
 6  17.75537042584259  0.76901981968197 -0.10444434583458
 6  18.74013493779378  1.61824615351535  0.76728754495450
 6  20.12031393299330  1.60908871347135  0.08115984348435
 6  20.11910260916092  2.24713128922892 -1.32702077987799
 6  21.01891441274127  2.35655699449945  1.11770355855586
 1 -3.92664032433243  3.41986321832183  1.64799968086809
 1 -10.03064091719172  4.43010025212521 -0.70696201890189
 1 -10.95503976037604 -2.17072422792279 -1.00285975907591
 1 -3.11325365236524 -1.38791802700270  2.13815469116912
 1 -2.19606092059206  1.40419064226423  1.34565747794780
 1 -2.14466472447245  0.39691606000600  3.83107221122112
 1 -3.14953044494449  1.80150520022002  3.75910610581058
 1 -3.94019361626163  0.24305949044904  4.09546472267227
 1 -2.26263177157716 -1.80913564666467 -0.13289773697370
 1 -2.30023336273627 -0.01817562656266 -0.67384407860786
 1 -0.34937075687569  0.20048390199020  1.09513987528753
 1 -0.49845018431843 -1.38569052765277  1.55942345074507
 1 -4.22352716921692  5.80225459355936  1.06760956075608
 1 -5.50573577997800  6.77714262896290  1.19358865346535
 1 -4.88456654345435  5.77153519751975  2.58705283928393
 1 -7.70507551695169  6.97107698219822  1.15810736463646
 1 -9.05911126302630  6.16003616411641 -1.50581216731673
 1 -9.39177392399240  7.65844457195720 -0.75668589148915
 1 -12.33892825482548  3.57416660386039 -0.15672348544854
 1 -12.11779562786279  3.75204916231623 -1.97501681848185
 1 -13.22079310211021  2.62018985468547 -1.37615197059706
 1 -12.65526789999000 -1.03794272097210 -0.91816656775678
 1 -13.51170819531953  0.50518467316732 -1.29519187798780
 1 -12.59751538143814  0.59202601570157 -3.73655099939994
 1 -11.70928589658966 -0.96107368096810 -3.29131808390839
 1 -13.55750250375037 -1.16654574937494 -3.13399094139414
 1 -9.98415496429643 -4.64953427322732 -0.59359166116612
 1 -9.28262224112411 -4.41671961796180 -2.19946684488449
 1 -8.37119229392939 -5.52648091509151 -1.09923787928793
 1 -3.80327217861786 -3.36376266646665 -0.30136148474848
 1 -2.17346773977398 -6.29977507320732  2.45096843094309
 1 -2.09341778817882 -4.74541802570257  3.52582702530253
 1 -3.56495951235123 -5.77875296689669  3.45594246984698
 1  2.85818972647265 -2.15543318681868 -1.22978414541454
 1  2.53448834333433 -0.73928150895090 -2.09132689988999
 1  4.16611938363836 -0.96356867116712  0.45306320932093
 1  5.57004883408341  1.43563607260726 -2.61892661246125
 1  5.42404902210221 -0.23512755025503 -3.51498289988999
 1  3.78374849304931  0.60048123492349 -2.82998382348235
 1  6.67149516571657  1.28316444144414 -0.37820801190119
 1  6.32612065676568  0.07810792119212  0.43607131453145
 1  7.57884466936694 -1.74897162176218 -1.25275603520352
 1  7.56787633013301 -0.26430440984098 -2.23264809380938
 1  8.77680316771677  0.94540338163816 -0.20386023772377
 1  8.63543660646065 -0.46110026152615  0.70870368276828
 1  10.27358002660266 -0.48263570687069 -1.82958753375338
 1  9.38962927912791 -2.98957765096510 -1.19381792959296
 1  11.12565759685969 -2.70979257905791 -0.89343994889489
 1  9.88435345544555 -2.75542722832283  0.25489722042204
 1  11.24873017041704  0.85716449654965  0.29533811901190
 1  11.39639560306031 -0.73741897839784  1.18024795499550
 1  13.00402511311131 -1.51352292349235 -0.55132834583458
 1  12.63466161836184 -0.00928100710071 -1.54440597429743
 1  13.76309746464646  1.38069778057806  0.18976188708871
 1  13.88578280528053 -0.22451887968797  1.32691953785379
 1  15.32674501870187  0.49880108620862 -1.67644965826583
 1  14.91895744864486 -1.96783936573657 -1.09954928812881
 1  16.46806067956796 -1.41724576117612 -1.24477026092609
 1  15.85965124392439 -2.07308244084408  0.36780605200520
 1  16.12281255445545  1.74150072037204  0.74925538453845
 1  16.42221687848785  0.10899152245225  1.43466688928893
 1  18.08836005770577 -0.26196040654065 -0.32231209900990
 1  17.56869145474548  1.14719660796080 -1.15910434293429
 1  18.47871256075608  2.67411380728073  0.92227761746175
 1  18.68733098729873  1.19313512301230  1.91486863686369
 1  20.55152148454846  0.58092605360536 -0.25397424122412
 1  19.55751310791079  3.30885915601560 -1.35310721312131
 1  21.15182242594259  2.33685175487549 -1.69020212681268
 1  19.64991996499650  1.59441506320632 -1.99017119861986
 1  20.97216245274528  1.99044051205121  2.08569960656066
 1  22.00720357755776  2.75423545094509  0.66331048814881
 1  20.52021165056506  3.25796899649965  1.33772251015101
 1 -7.37918975207521  1.71857073027303  0.61362320842084
 1 -7.70870241864186 -0.17849802580258 -0.37517764536454

