%nproc=3
%Mem=2GB
# td=(NStates=1) B3LYP/SVP 

TD

0 1
 6 -5.11688938703870 -2.01111735383538  0.47886276217622
 6 -4.75026534553455  2.83733018471847  1.21290767666767
 6 -9.30463037273727  3.23495429462946 -0.13808227612761
 6 -9.91489954445444 -1.46890769416942 -0.92090464386439
 7 -5.18933809610961  0.38106972987299  0.73588202520252
 6 -4.51301991809181 -0.74985170617062  0.81124456785679
 6 -3.04786447294729 -0.60350678537854  1.24004900070007
 6 -3.04596956235624  0.90559945224522  1.73441254705471
 6 -4.37325651875187  1.40026984488449  1.18981257825783
 6 -2.95198376687669  1.13784129642964  3.29621748434844
 6 -1.93524559525953 -0.82980294199420  0.09558750435044
 6 -0.49737294949495 -0.74476269286929  0.58939139183918
 6  0.42539620102010 -1.00267714061406 -0.59044060166017
 8  0.13154492209221 -1.58744111071107 -1.64935854735474
 8  1.70685088218822 -0.77197397049705 -0.25744818751875
 7 -7.11276587118712  2.75077234903490  0.47693720292029
 6 -5.97467904330433  3.37073149144915  0.92979383628363
 6 -6.34427761346135  4.80354679417942  1.06983347614761
 6 -7.54012310911091  4.98992782828283  0.45768229562956
 6 -8.07093803970397  3.70540903460346  0.17189734513451
 6 -5.25960647714771  5.73317883298330  1.39330059605961
 6 -8.20859814251425  6.19678368996900  0.46874537583758
 6 -9.08229612781278  6.60789051095110 -0.50167264606461
 7 -9.32298049864986  0.86492372537254 -0.30572304070407
 6 -9.94649851275127  2.02567506620662 -0.39959922912291
 6 -11.31336520302030  1.90134369536954 -0.96584041794179
 6 -11.44218816931693  0.52266960706071 -1.22939789448945
 6 -10.25185741144114 -0.10495044674467 -0.79953319581958
 6 -12.30494899579958  2.94268276987699 -1.08742183248325
 6 -12.64913265276528 -0.15930841034103 -1.69090004970497
 6 -12.51845197589759 -0.58271153555356 -3.20449862116212
 7 -7.46985594319432 -1.28408009320932 -0.19517804630463
 6 -8.69444103160316 -1.98974770157016 -0.55652901530153
 6 -8.12761520052005 -3.41784866706671 -0.65732830013001
 6 -6.88878378747875 -3.42278910721072 -0.21542916681668
 6 -6.45151625502550 -2.06923974257426  0.01007608380838
 6 -8.83266602420242 -4.64273502300230 -1.08732772717272
 6 -5.66899384458446 -4.26822185728573 -0.03841289568957
 8 -5.66407589778978 -5.47876740684068 -0.04054132003200
 6 -4.49132676127613 -3.39722048364836  0.45534459655966
 6 -3.91783558145815 -3.85612970647065  1.73574009970997
 8 -4.20227530103010 -3.34139207310731  2.79072714081408
 8 -3.09561824942494 -4.90142511541154  1.57493792169217
 6 -2.70604530833083 -5.66207565366537  2.68056019561956
 6  2.74840700930093 -1.10515441304130 -1.12603662946295
 6  4.04060730753075 -0.58249875227523 -0.59788188828883
 6  4.92373463006301  0.24678573347335 -1.12255621222122
 6  4.74881407710771  1.07510824252425 -2.39012612941294
 6  6.23283502870287  0.47864560376038 -0.35086400060006
 6  7.44809605000500 -0.14232041494149 -1.01059792669267
 6  8.72729433053305  0.08330434533453 -0.24374272177218
 6  10.01710263596360 -0.60903523012301 -0.67725508030803
 6  9.93688972757276 -2.20714451735174 -0.77378666356636
 6  11.23853770397040 -0.24312862756276  0.11127057135714
 6  12.57899957415742 -0.68363368056806 -0.43955847894789
 6  13.88334692409241 -0.11118834503450  0.24984704020402
 6  15.33364227602760 -0.19279016051605 -0.37756131403140
 6  15.58766833863386 -1.73813267866787 -0.43511227952795
 6  16.36508725302530  0.56741125842584  0.41197021932193
 6  17.67334222302230  0.66815973367337 -0.08185208660866
 6  18.78768969326932  1.42381671057106  0.62189300550055
 6  20.19950185178518  1.51227903250325  0.07343907140714
 6  20.23888458735874  2.01921849794979 -1.39318739653965
 6  21.11157367866787  2.38571991079108  0.97536932513251
 1 -3.88819647994799  3.49033026502650  1.61544642554255
 1 -10.24172202530253  3.97030427252725 -0.30910223292329
 1 -10.62162641904190 -2.06213336883688 -1.18759823292329
 1 -2.71794412141214 -1.26347558275828  1.92833370907091
 1 -2.19796111061106  1.42918314151415  1.45619853205321
 1 -2.14248450645065  0.60628699709971  3.67998710271027
 1 -2.79835532743274  2.21414646434643  3.49523971917192
 1 -4.05692528942894  0.77506269076908  3.81293646984698
 1 -2.14448995739574 -1.87058179127913 -0.27842228942894
 1 -2.09060239963996 -0.10028383738374 -0.85197189138914
 1 -0.38982480228023  0.35863971757176  1.17540790209021
 1 -0.26628696799680 -1.50004196279628  1.46438394679468
 1 -4.39467428392839  5.71438580668067  0.69792259205921
 1 -5.54722992939294  6.99487440214021  1.77000629522952
 1 -4.81487957475748  5.39186723072307  2.32734686868687
 1 -7.66498150755076  6.84112398689869  1.07033858775878
 1 -9.23627897979798  5.83622378287829 -1.36994858095810
 1 -9.54502924952495  7.47141586908691 -0.85016523942394
 1 -12.44675903790379  3.45075426262626 -0.01040885398540
 1 -12.12544639293929  3.63588754615462 -1.91950126692669
 1 -13.29799082188219  2.46988482418242 -1.19130348574858
 1 -12.95446781998200 -1.09826875357536 -1.10931568266827
 1 -13.76696372087209  0.33251740644064 -1.79287164596460
 1 -12.66347197709771  0.31003781688169 -3.71862920722072
 1 -11.49897486548655 -1.18659623322332 -3.49764871697170
 1 -13.38022477597760 -1.07970706550655 -3.28888643094309
 1 -9.74299084788479 -5.03591291109111 -0.40167246924692
 1 -8.96593057195719 -4.73826177217722 -2.16648354655466
 1 -8.10037521222122 -5.54238250525053 -0.80655861136114
 1 -3.63835568696870 -3.32183847404740 -0.22710405900590
 1 -1.87357775077508 -6.41799689538954  2.33736707080708
 1 -2.42882132853285 -4.95419890379038  3.51138558115812
 1 -3.42202521892189 -6.29279437103710  3.17397427302730
 1  2.85558946644664 -2.19901754525453 -1.24207537453745
 1  2.68945383988399 -0.45965354615462 -2.08859662686269
 1  4.47224999669967 -1.29960227452745  0.39606750975098
 1  4.90510233943394  2.16337884688469 -2.05150987078708
 1  5.58192480968097  0.93044900740074 -3.17181858345835
 1  3.71640175837584  0.99510069686969 -2.95450627572757
 1  6.32569058525853  1.58432455745575 -0.33835402650265
 1  5.97778582328233  0.04884499489949  0.62168987638764
 1  7.14472125702570 -1.20284700930093 -1.03027378697870
 1  7.50492003450345  0.07197921852185 -2.16370119911991
 1  9.19026451385139  1.18656749804981  0.07886803510351
 1  8.35851891469147 -0.28005215671567  0.87869068146815
 1  10.21854452305231 -0.13839128242824 -1.62788736373637
 1  9.06039635583558 -2.40178887208721 -1.42268081588159
 1  10.96862189328933 -2.74141574137414 -1.15260586548655
 1  9.59550457055706 -2.38379006460646  0.41898362906291
 1  11.17509280668067  0.85453423352335  0.12898148334834
 1  11.32268823232323 -0.62961819831983  1.19060899109911
 1  12.52037674827483 -1.72761433263326 -0.61646485948595
 1  12.64267241944194  0.05944586558656 -1.33973550725072
 1  13.63270442534253  1.20822053285329  0.25067797869787
 1  13.70938516551655 -0.52890931873187  1.31179802570257
 1  15.16463880808081  0.07737894399440 -1.39248126142614
 1  15.02683823672367 -2.10592317411741 -1.36598593179318
 1  16.66792066556656 -1.90998503510351 -0.85862164606461
 1  15.51914719351935 -2.17036216881688  0.52706197759776
 1  15.74264453765377  1.51300787108711  0.58138859785979
 1  16.32482713951395  0.41294191749175  1.57128055065507
 1  18.16618784048405 -0.34590880138014 -0.12241210901090
 1  17.56611119671967  1.28188007630763 -1.09515794829483
 1  18.32076676617662  2.47648404430443  0.71945733543354
 1  18.95449770397040  1.12593840334033  1.69179632963296
 1  20.57513384578458  0.61225918691869  0.11439259545955
 1  19.80408776537654  3.07252552265227 -1.53644554695470
 1  21.25807305100510  2.11297936763676 -1.85754886148615
 1  19.77101207420742  1.36676229792979 -1.91693387488749
 1  21.05771100760076  1.67614908290829  1.93059409600960
 1  22.12124498169817  2.61909193659366  0.41820597769777
 1  20.61459108850885  3.37444064366437  1.08430716861686
 1 -7.18555038813881  1.63757263046305  0.42375422152215
 1 -7.43186473487349 -0.32243241924192 -0.13499362696270

