%nproc=3
%Mem=2GB
# td=(NStates=1) B3LYP/SVP 

TD

0 1
 6 -5.04433213131313 -1.90184642674267  0.27594247014702
 6 -4.78486880588059  2.86889334103410  1.31107749364936
 6 -9.42889279897990  3.20815161436144 -0.09570803870387
 6 -9.87235529002900 -1.61356215961596 -0.82156470987099
 7 -5.14110327262726  0.43827545044504  0.57350578757876
 6 -4.35838445454545 -0.74382110311031  0.64399784318432
 6 -3.00551023752375 -0.57957439213921  1.28267326312631
 6 -3.05946091149115  0.97817670997100  1.63781288708871
 6 -4.49145833893389  1.47428724662466  1.10867446444644
 6 -2.84473304180418  1.10921843414341  3.23547140974097
 6 -2.02994506520652 -0.69714967666767  0.01891983758376
 6 -0.53901711391139 -0.54485270187019  0.44041649434944
 6  0.31423508490849 -0.95353222612261 -0.73804536213621
 8  0.05661742934293 -1.27908027462746 -1.92792640414041
 8  1.56019621672167 -0.66427320042004 -0.33101554425443
 7 -7.10355495009501  2.68336560836084  0.54306381558156
 6 -5.99665124052405  3.52218663696370  0.99783063996400
 6 -6.42299548524853  4.93932037153715  1.09124561736174
 6 -7.71847094389439  4.97375621112111  0.69636616401640
 6 -8.20972191809181  3.61929042274227  0.35852600800080
 6 -5.36535705220522  5.92207772287229  1.35645691169117
 6 -8.41008829152915  6.20149416101610  0.44806330763076
 6 -9.26187408560856  6.55857557945795 -0.54788726752675
 7 -9.25587378797880  0.73325055805581 -0.44939740814081
 6 -9.93516737963796  1.96083858255826 -0.44983425262526
 6 -11.29030289678968  1.65523908490849 -0.77043087698770
 6 -11.39866381688169  0.38001534163416 -1.04507946264626
 6 -10.20344256995699 -0.17676762846285 -0.76162940544054
 6 -12.29990849174917  2.77721622322232 -0.81908499879988
 6 -12.72483022252225 -0.36783926342634 -1.47738869856986
 6 -12.73030316101610 -0.70906417081708 -3.03084125542554
 7 -7.44863382098210 -1.27346903210321 -0.47173570207021
 6 -8.56500808830883 -2.17448617541754 -0.65736909930993
 6 -8.15204764376438 -3.49535641784178 -0.56027859515952
 6 -6.75960086918692 -3.41754858315832 -0.11142876677668
 6 -6.43125422882288 -2.06226904550455 -0.14744966876688
 6 -8.97181993959396 -4.76933768326833 -0.89535853025303
 6 -5.59467641284128 -4.29845488058806  0.06258720432043
 8 -5.57892738293829 -5.55989551965197  0.10948368246825
 6 -4.41592922152215 -3.27480824242424  0.27359642174217
 6 -3.80685448334833 -3.57713180668067  1.62774930063006
 8 -4.22908798229823 -3.31772970687069  2.72039010711071
 8 -2.72363105070507 -4.57531250415042  1.50652108000800
 6 -2.08039274307431 -5.11870131623162  2.72198433803380
 6  2.66947911651165 -0.99799369696970 -1.26292031783178
 6  3.98605185198520 -0.50529103150315 -0.67744984508451
 6  4.94331658825883  0.25766682158216 -1.13507746434643
 6  4.85905510121012  1.07163789548955 -2.39426654345435
 6  6.19945169036904  0.44824256345635 -0.33861277547755
 6  7.40891213161316 -0.26488267116712 -1.03544041094109
 6  8.73886548764876 -0.13209719481948 -0.23610195769577
 6  9.98865979167917 -0.69055338193819 -0.78661601640164
 6  9.87797383598360 -2.23898770167017 -0.88977826272627
 6  11.27795164536454 -0.31527584228423 -0.02980353605361
 6  12.64850652485249 -0.63504882208221 -0.66821134423442
 6  13.82483107250725 -0.11593882008201  0.15666772227223
 6  15.25830474227423 -0.38507938943894 -0.32422598049805
 6  15.61311088288829 -1.84222308770877 -0.14929369766977
 6  16.27071781608161  0.66686120342034  0.38954797709771
 6  17.72373726252625  0.53183610131013 -0.11854575597560
 6  18.69654057835784  1.30660498939894  0.79508032423242
 6  20.10937283888389  1.44247205180518  0.24175590309031
 6  20.36665736463646  1.88183475957596 -1.16691476927693
 6  21.00419294059406  2.19677101590159  1.28216000420042
 1 -3.74739239953995  3.48336956895690  1.69292417331733
 1 -10.23063091619162  3.98724596669667 -0.10055137783778
 1 -10.67879213561356 -2.22323947944794 -1.09147862096210
 1 -2.67028935593559 -1.17660689588959  1.90277115281528
 1 -2.28248956345635  1.62214243744374  1.22897580978098
 1 -1.96011626962696  0.58344471287129  3.60181928592859
 1 -2.94787027892789  2.15438048774878  3.57476767196720
 1 -3.95576517341734  0.79543472797280  3.47657283348335
 1 -2.20690619901990 -1.49436416951695 -0.45421986918692
 1 -2.35561890129013  0.10437662866287 -0.88848554275428
 1 -0.02885870567057  0.44500835443544  0.74673503480348
 1 -0.12490282958296 -1.08797075567557  1.29387689608961
 1 -4.50885570207021  5.80665503360336  0.57659045884588
 1 -5.63396860326033  6.98229314401440  1.41058035263526
 1 -4.92097018381838  5.63447149114912  2.41601573557356
 1 -8.15657066646665  7.01060093459346  1.22816437033703
 1 -9.48149350125012  5.94923508400840 -1.43249483558356
 1 -9.79268401500150  7.43927265476548 -0.63488371127113
 1 -12.18157251925193  3.33728291549155  0.19595178207821
 1 -12.12218606690669  3.58975293269327 -1.60226954375438
 1 -13.40097111991199  2.43504133983398 -1.04714907030703
 1 -12.79914228742874 -1.25230415711571 -0.74094884598460
 1 -13.66485350985099  0.22575673037304 -1.18485084388439
 1 -12.38999462936293  0.22092890599060 -3.66122346664667
 1 -12.00819578757876 -1.48452602620262 -3.21024997709771
 1 -13.88417517101710 -1.04721381618162 -3.13314085638564
 1 -9.79991654045405 -4.95824514431443 -0.15334763676368
 1 -9.35177915681568 -4.60683862986299 -2.10182708090809
 1 -8.29963513821382 -5.66290455745574 -0.79226718221822
 1 -3.75063691509151 -3.45529181938194 -0.70880222882288
 1 -1.35706609960996 -5.83300839653965  2.43036637073707
 1 -1.28239668606861 -4.33991747564756  3.24736917951795
 1 -2.90580359675968 -5.39919501110111  3.22169904550455
 1  2.55520942844284 -1.92141978547855 -1.58159932693269
 1  2.72011690619062 -0.51141872267227 -2.23801156835684
 1  4.06222899459946 -1.14428674297430  0.26673457645765
 1  5.00507233643364  2.05656816581658 -2.51838655845585
 1  5.53724034123412  0.96206216871687 -3.37918932053205
 1  3.77606772497250  0.81485267206721 -2.89719054415442
 1  6.65405342154215  1.42499862486249 -0.28076826792679
 1  5.91826987168717  0.25089519991999  0.69491719911991
 1  7.38440522542254 -1.38733545814581 -1.03917467706771
 1  7.74606414891489  0.15692771337134 -2.07664249324933
 1  8.74317980538054  0.89849869116912  0.08822897119712
 1  8.65552861566157 -0.74043819531953  0.87477028942894
 1  10.12835550415041 -0.14313175647565 -1.96862143714371
 1  9.28923924012401 -2.47302599579958 -1.85935448324832
 1  10.99988501960196 -2.56892849264927 -1.27885849074907
 1  9.50924594469447 -2.79994167976798 -0.01206947624762
 1  11.21411670907091  0.83930271037104  0.16642522772277
 1  11.23050901440144 -0.88176341284128  1.02919284948495
 1  12.66097080768077 -1.64413598479848 -0.43576678967897
 1  12.53337148934894 -0.24599467846785 -1.65731726542654
 1  13.60696185108511  1.06094580538054 -0.15167225632563
 1  13.98727295429543 -0.22568899669967  1.41476832273227
 1  15.32655499969997 -0.14023281718172 -1.39232124542454
 1  15.11762731563156 -2.44612719451945 -0.63401273447345
 1  16.62060593409341 -2.01456549314931 -0.62894867876788
 1  15.51891717051705 -2.06977210981098  0.92908217961796
 1  15.97586785998600  1.66034260456046  0.28156861586159
 1  16.42714737153715  0.70921154445445  1.47000042264226
 1  18.00880210191019 -0.47147135763576  0.08332846504651
 1  17.81840642624262  0.88786067436744 -1.09083751625163
 1  18.17364205370537  2.51836823272327  1.03144853455346
 1  18.43440569476948  1.12533834333433  1.83572072207221
 1  20.50850718311831  0.42200016101610  0.29184034023402
 1  19.99111646824683  2.92812108220822 -1.11706360876088
 1  21.47487473117312  1.82694076377638 -1.63902700930093
 1  19.74729970297030  1.22002762446245 -1.90264244574457
 1  20.86753198969897  1.85679714771477  2.25022605920592
 1  22.12197505470547  2.04711473887389  1.31258541564156
 1  20.71363099249925  3.16006920652065  1.52193093099310
 1 -6.94048588168817  1.69772864606461  0.51399324542454
 1 -7.26769831823182 -0.31734191019102 -0.42267239483948

