%nproc=3
%Mem=2GB
# td=(NStates=1) B3LYP/SVP 

TD

0 1
 6 -5.06605430353035 -1.89868611071107  0.34720959685969
 6 -4.82427274627463  2.76601305300530  1.27442382828283
 6 -9.50695060476048  3.26075687488749 -0.11948041594159
 6 -9.81894994949495 -1.54598540194019 -0.87803035643564
 7 -5.09530869316932  0.47052867576758  0.70230866786679
 6 -4.42877149324933 -0.62064878587859  0.71574501790179
 6 -2.98220790729073 -0.53661009570957  1.22966796259626
 6 -3.07497246264626  0.99938883118312  1.74251335713571
 6 -4.44969416251625  1.40304012191219  1.23634723172317
 6 -3.05772434093409  1.03541105340534  3.14874273687369
 6 -2.08993106380638 -0.69196915861586  0.01864981058106
 6 -0.46657987018702 -0.55307352395240  0.46460891359136
 6  0.39149281068107 -1.02484935783578 -0.61421297889789
 8  0.10036180378038 -1.42321468806881 -1.71210482198220
 8  1.65247544464446 -0.70331710481048 -0.27139958265827
 7 -7.12502709730973  2.73138040984098  0.45443495269527
 6 -6.00122169756976  3.39729414771477  1.00282113901390
 6 -6.39500268596860  4.78097453695370  1.06981347414741
 6 -7.66382547934793  4.99365820132013  0.66721324872487
 6 -8.30359130503050  3.59115760946095  0.32448260366037
 6 -5.38515903240324  5.69414492959296  1.61084235023502
 6 -8.32085936863686  6.22841685328533  0.63619212051205
 6 -9.20107800600060  6.60802052395240 -0.30496297509751
 7 -9.21546974757476  0.81588882188219 -0.47595006340634
 6 -9.90735459835984  1.99998249694970 -0.50025929512951
 6 -11.23897776427643  1.76891045204520 -0.99505333923392
 6 -11.45088903940394  0.31686902700270 -1.14950990569057
 6 -10.18515074077408 -0.15818577027703 -0.81365460796080
 6 -12.23558205910591  2.82476097769777 -1.43399648994900
 6 -12.74911265076508 -0.36338881838184 -1.74172513221322
 6 -12.70525065576558 -0.51601486588659 -3.28527669896990
 7 -7.45498445604560 -1.30402208740874 -0.30893942244224
 6 -8.52799438693869 -2.12024075087509 -0.60752411481148
 6 -8.14381682068207 -3.51973885608561 -0.56851941924192
 6 -6.80498540764076 -3.42679950825083 -0.24226185008501
 6 -6.44558566196620 -2.10941375997600 -0.10265518931893
 6 -8.89354211181118 -4.75906665616562 -0.82716171057106
 6 -5.70024696989699 -4.30041507660766  0.15567651325133
 8 -5.67415690589059 -5.57172670277028  0.14925765986599
 6 -4.47762539113911 -3.28447920952095  0.36379544164416
 6 -3.71365516341634 -3.64732882638264  1.73532005770577
 8 -4.08329340284028 -3.12534046794679  2.75698376647665
 8 -2.86640532813281 -4.64207918081808  1.61994242214221
 6 -2.24480918471847 -5.24942438853885  2.80885302490249
 6  2.65906807540754 -0.73988788638864 -1.23395742154215
 6  3.99819306610661 -0.53693419581958 -0.53967606770677
 6  4.95062731933193  0.35046610151015 -0.97425138173817
 6  4.89783897959796  0.98785951765177 -2.34890200700070
 6  6.24227597279728  0.26829456865687 -0.25219413361336
 6  7.51605284568457 -0.26325250815082 -1.01456832373237
 6  8.74868646974697 -0.12151613671367 -0.23569191669167
 6  10.02630355605561 -0.81896622322232 -0.86122347714771
 6  9.90331637023702 -2.33892769566957 -0.99903918881888
 6  11.27415126532653 -0.38235254995500 -0.02430298599860
 6  12.67313898809881 -0.56035135233523 -0.65996051915192
 6  13.95887447684768  0.01905467926793  0.22098415391539
 6  15.28432734453445 -0.23988486998700 -0.46889044694469
 6  15.55168474027403 -1.84612347774777 -0.40023879217922
 6  16.31324206850685  0.47014153145315  0.44760378267827
 6  17.65903079187919  0.48806172387239 -0.08424232563256
 6  18.68535946024602  1.35968029692969  0.69896071227123
 6  20.15516741834183  1.46175397999800  0.13833556105611
 6  20.10458115701570  2.26173274937494 -1.23337141494149
 6  21.04961748304830  2.18891022982298  1.10441222942294
 1 -3.84343200350035  3.40022125412541  1.74020890179018
 1 -10.02522037513751  4.02118936103610 -0.15791711441144
 1 -10.60443469986999 -2.26880403590359 -1.00621009410941
 1 -2.71386371337134 -1.00476971217122  2.01634250995100
 1 -2.09054036853685  1.44032425562556  1.27292020422042
 1 -1.98907916591659  0.83567993639364  3.37386649064907
 1 -3.32432792469247  1.88335338503850  3.67123731893189
 1 -3.91976157305731  0.46326151065107  3.60413558975898
 1 -2.24228973737374 -1.48397313041304 -0.76855130233023
 1 -2.32434577397740  0.36518270927093 -0.63715040924092
 1 -0.47558337813781  0.48348220182018  0.74988534983498
 1 -0.57564790409041 -1.21677363596360  1.46687419581958
 1 -4.43292810931093  5.71070543864386  1.02424522432243
 1 -5.79669487588759  6.85944085878588  1.65057435203520
 1 -5.13725181198120  5.48995703970397  2.59734386838684
 1 -7.87250225962596  6.99892976747675  1.28200975487549
 1 -9.69469482138214  6.10516067656766 -1.20497208330833
 1 -9.68188293489349  7.52205093259326 -0.34082430533053
 1 -12.22003636563656  3.84659384658466 -0.77463527662766
 1 -11.98631247954795  3.23404736213621 -2.35821513831383
 1 -13.34395541834183  2.44808264396440 -1.60096445184518
 1 -12.64411678487849 -1.47636656335634 -1.46270102120212
 1 -13.71754877937794 -0.04238008330833 -1.29566192499250
 1 -12.87613324322432  0.39723653675368 -3.77205454975498
 1 -11.81817678567857 -0.91160873447345 -3.62835178727873
 1 -13.51077783128313 -1.07864695949595 -3.55639318161816
 1 -9.57906445524552 -4.84198351815182  0.25782348034803
 1 -9.49459343824382 -4.74614256025603 -1.69338623682368
 1 -8.23190836553655 -5.64611287828783 -0.98756671217122
 1 -3.88949080048005 -3.50433672387239 -0.55665701430143
 1 -1.61465185818582 -6.08597369306931  2.39175250935094
 1 -2.00236868326833 -4.33827731163116  3.44330877347735
 1 -2.97745076147615 -5.68364345594560  3.48656553215322
 1  2.60053396089609 -1.73898154165417 -1.81818298529853
 1  2.41694658915892 -0.02750033083308 -2.10693846104610
 1  4.23309608130813 -1.00857317161716  0.36253415641564
 1  5.10125195439544  2.08155066406641 -2.10461518131813
 1  5.96144276147615  0.70155611811181 -2.81543294489449
 1  3.95933605180518  0.94256544334433 -2.91228205330533
 1  6.61940995719572  1.28245437043704  0.05240504940494
 1  6.04359240394039 -0.25611550115012  0.69486719411941
 1  7.28145493039304 -1.37446417101710 -1.13687444704470
 1  7.63686322882288  0.29583160376038 -2.00988581758176
 1  9.13423891129113  1.23738257955796 -0.07956780848085
 1  8.74799786258626 -0.72279643114311  0.67157997039704
 1  10.10056272487249 -0.33161060436044 -1.79418399339934
 1  9.36501681788179 -2.67229592279228 -1.62907145494549
 1  10.89583461456146 -2.68671027082708 -1.28117872277228
 1  9.89129414951495 -2.61110279587959 -0.00112838213821
 1  11.13319861726173  0.82003078317832  0.00434902010201
 1  11.23213917741774 -0.90188542504251  0.83325325552555
 1  12.67998270887089 -1.68276984818482 -0.82597581058106
 1  12.82878103030303 -0.11443152215222 -1.70181171487149
 1  13.65635679057906  1.02926263706371  0.37488039893989
 1  13.87177140414041 -0.27732416021602  1.22339918581858
 1  15.20871321552155 -0.01819061296130 -1.39247126042604
 1  14.81844739763976 -2.32548513031303 -1.04806413961396
 1  16.59269314281428 -1.97142117871787 -0.71190697459746
 1  15.38958423722372 -2.33695882848285  0.68319759115912
 1  16.04658493169317  1.51679825012501  0.61325178417842
 1  16.23319797659766  0.09169979327933  1.34844826742674
 1  18.05766698839884 -0.50458466896690  0.00366049824982
 1  17.59518410401040  0.91924381268127 -1.35045347784779
 1  18.28090277977798  2.39392578847885  0.88288367806781
 1  18.72603485768577  0.77492330183018  1.70617776777678
 1  20.53718005040504  0.50365832683268  0.00939209540954
 1  19.78960631723172  3.31233950405041 -1.11001290369037
 1  21.16077332103210  2.22537060676068 -1.50229333593359
 1  19.77565253825382  1.67430305200520 -2.01476365786579
 1  20.88491372787279  1.81212268026803  2.21423245984598
 1  22.10199305650565  2.30090011741174  0.99372352945295
 1  20.67861749114912  3.23666686628663  1.24702344024402
 1 -7.30996282938294  1.69892876607661  0.40442228832883
 1 -7.56837838623862 -0.37729790579058 -0.15877600520052

