%nproc=3
%Mem=2GB
# td=(NStates=1) B3LYP/SVP 

TD

0 1
 6 -5.09333703180318 -1.93499974207421  0.40524540044004
 6 -4.82544286328633  2.79954640634063  1.39528591449145
 6 -9.45855576527653  3.24209500870087 -0.14284275217522
 6 -9.79043709820982 -1.57656846024602 -0.81400395379538
 7 -5.22555171747175  0.46803842674267  0.79673811081108
 6 -4.41976059215922 -0.71219794079408  0.76956039943994
 6 -3.01163084958496 -0.44774120882088  1.20783577937794
 6 -3.12161712711271  0.97758665096510  1.84316342214221
 6 -4.46125531863186  1.37988780668067  1.33538713571357
 6 -2.92596116461646  1.11824933723372  3.33083094569457
 6 -2.09432150285028 -0.64549451115112  0.03765171077108
 6 -0.57395060726073 -0.25627384398440  0.49031148384838
 6  0.38887254865487 -0.50897777067707 -0.61582313991399
 8  0.05719748734873 -0.77992035863586 -1.76482009350935
 8  1.66326652375238 -0.60031680478048 -0.17471991469147
 7 -7.22592718731873  2.71299857165717  0.54661417061706
 6 -6.05543711911191  3.39710412871287  1.15041589848985
 6 -6.51254444014401  4.80737717721772  1.14675116791679
 6 -7.77530662746275  4.91061989748975  0.63925045244524
 6 -8.21688263416342  3.52096058975898  0.31697185258526
 6 -5.59708022452245  5.90820633573357  1.62925419141914
 6 -8.46777406010601  6.12005601720172  0.41267976927693
 6 -9.08796669486949  6.36673639553955 -0.85087756655666
 7 -9.34717291789179  0.82947018001800 -0.32740520892089
 6 -10.06785064796480  1.94401690039004 -0.60765003420342
 6 -11.36094996149615  1.74486804780478 -0.98659249314932
 6 -11.49179312981298  0.39174651475148 -1.17400235493549
 6 -10.15322754845485 -0.21437138883888 -0.92769601210121
 6 -12.36069457035704  2.78127662926293 -1.25053814411441
 6 -12.64251199069907 -0.49627210671067 -1.62542350205021
 6 -12.51401153185319 -0.76737000140014 -3.15264343564356
 7 -7.54427338493849 -1.32529421462146 -0.18289681818182
 6 -8.63822541004100 -2.17414614141414 -0.49599296169617
 6 -8.24111655065507 -3.50994787698770 -0.50934350165017
 6 -6.75075998509851 -3.40364719301930 -0.11129875377538
 6 -6.42237334073407 -2.10693351195120 -0.00845576937694
 6 -8.98177093469347 -4.63881463096310 -0.89172816721672
 6 -5.61758870407041 -4.37612264736474  0.05946689228923
 8 -5.58347783798380 -5.50553008310831 -0.02381964786479
 6 -4.44678230683068 -3.37167792939294  0.47562662476248
 6 -3.86215001290129 -3.76029012251225  1.71512803850385
 8 -4.23959903340334 -3.23127106100610  2.75322339043904
 8 -2.96807549514951 -4.74229920282028  1.61163159105911
 6 -2.31863656745675 -5.29758920502050  2.89959209880988
 6  2.69409157775778 -0.99281317891789 -1.25818984478448
 6  4.04614786158616 -0.54585508790879 -0.73304540464046
 6  5.05295755235524  0.16018707360736 -1.23879783638364
 6  4.84025322102210  0.90827155885589 -2.56283340014001
 6  6.34076582178218  0.40586832603260 -0.50092900710071
 6  7.56754799519952 -0.23956013891389 -1.13867073397340
 6  8.87516911801180 -0.01161514661466 -0.35593394089409
 6  10.12982390809081 -0.58146247284728 -1.02296965176518
 6  10.11026706530653 -2.08861266416642 -1.18509779467947
 6  11.35539939013901 -0.10177449214921 -0.12970352605261
 6  12.73232490669067 -0.39415473267327 -0.71471599469947
 6  13.89112770217022  0.05665843964396  0.02224427992799
 6  15.26904581638164 -0.24945582708271 -0.45010856875688
 6  15.49153872567257 -1.78738760416042 -0.61112988128813
 6  16.35914665896590  0.36916143344334  0.43289231153115
 6  17.77758264706471  0.36620953865387 -0.00617451885189
 6  18.78502942724272  1.11127545644564  0.98954977117712
 6  20.27179908150815  1.24651245584558  0.37408913641364
 6  20.35006570547055  1.91224780088009 -0.98027610541054
 6  21.07542006330633  2.02783412221222  1.37244903310331
 1 -4.01334899519952  3.47678891089109  1.90567544844484
 1 -9.95129298239824  4.14703194529453 -0.24444576727673
 1 -10.49537379377938 -2.28827598309831 -1.21135060816082
 1 -2.86321864886489 -1.08915815101510  2.21052192789279
 1 -2.30465177967797  1.62999322252225  1.45404831703170
 1 -1.89996025402540  0.77340370877088  3.56567567156716
 1 -2.79619511141114  2.22276732643264  3.84445464066407
 1 -3.53783338023802  0.37724290879088  3.83815899209921
 1 -2.02468797719772 -1.71779651275128 -0.39280372757276
 1 -2.38237157655766  0.01231742274227 -0.85101179537954
 1 -0.29673549334934  0.73297715131513  0.81804216551655
 1 -0.17602794209421 -0.79124108270827  1.43103061146115
 1 -4.78885370187019  5.94301866996700  0.83563636343634
 1 -6.01900710711071  6.73687860256026  1.74208350295030
 1 -5.03816190299030  5.68922696669667  2.47258139213921
 1 -8.41016602600260  6.91585145964596  1.02530408430843
 1 -9.30960631253125  5.65833599409941 -1.64043562966297
 1 -9.40077482408241  7.42107083458346 -0.93379360226023
 1 -12.43694805680568  3.48888807600760 -0.47675548864886
 1 -11.95808965726573  3.09294325172517 -2.16760607740774
 1 -13.23509453225323  2.22942077777778 -1.42685704110411
 1 -12.93338571177118 -1.34564349104910 -1.13817856895690
 1 -13.67884490899090  0.03456761146115 -1.57902026082608
 1 -12.45692132203220  0.04374118721872 -3.68846619091909
 1 -11.39635460346035 -1.29480705430543 -3.06428538063806
 1 -13.23543029652965 -1.39345844064406 -3.47361490379038
 1 -9.61291784058406 -4.79550887068707  0.01262896089609
 1 -9.56763074197420 -4.49044699069907 -1.85180207840784
 1 -8.51629680438044 -5.68712697969797 -1.15099305480548
 1 -3.77866971837184 -3.42389868006801 -0.35108645724572
 1 -1.66458685168517 -6.11028612431243  2.64364769886989
 1 -1.85232367876788 -4.36170965486549  3.31489593219322
 1 -3.23372638903890 -5.60859595119512  3.39879675527553
 1  2.86857076457646 -1.87743538703870 -1.37165833283328
 1  2.14563945844584 -0.60351793259326 -2.27695546274627
 1  4.31430420212021 -1.01068338263826  0.24437234023402
 1  5.02020384958496  1.79900240924092 -2.41263598339834
 1  5.60565718291829  0.49455541804180 -3.16623802540254
 1  3.80409052725273  0.43203439023902 -2.97940876597660
 1  6.62835085128513  1.46019214421442 -0.37673786488649
 1  6.16334437913791 -0.06811670127013  0.61211891929193
 1  7.20923770867087 -1.16712343694369 -1.38008876847685
 1  7.64233377587759  0.40091211181118 -2.05443027202720
 1  9.03593908130813  1.08512735403540 -0.05497534923492
 1  8.67883094589459 -0.64915906740674  0.61214402680268
 1  10.46067873647365 -0.24580202350235 -1.98137271227123
 1  9.19943025922592 -2.38037673087309 -1.57589613741374
 1  11.02877790889089 -2.28985058485849 -1.85677628252825
 1  10.40375539563956 -2.60952263786379 -0.17902617191719
 1  11.18302359975998  0.75626440654065 -0.31966338113811
 1  11.10735669916992 -0.62141737823782  0.80742067226723
 1  12.72867757835784 -1.54342591379138 -0.77914112711271
 1  13.13962211441144 -0.12732281128113 -1.78428996269627
 1  13.69831098599860  1.21966167696770  0.10967387828783
 1  13.69510373737374 -0.23202963076308  1.21873871977198
 1  15.57873021722172  0.39063026912691 -1.28668068136814
 1  14.91890744364436 -2.36098868066807 -1.60399973317332
 1  16.66962083558356 -1.93636767336734 -0.89726551045105
 1  15.37100237903790 -2.33113824642464  0.30454972637264
 1  16.25339561276128  1.52428899919992  0.46940739973997
 1  16.35983063986399  0.04908553185319  1.50924434703470
 1  18.09255047674768 -0.62845705620562 -0.04971483928393
 1  17.80232481808181  0.66058794709471 -1.09144757725773
 1  18.44065875537554  2.03229962586259  1.40120551025103
 1  18.82497475167517  0.48163397289729  1.90333748374838
 1  20.84458079047905  0.27757571857186  0.13672482868287
 1  19.81231858845885  2.90621889198920 -0.99809171157116
 1  21.46828407210721  2.18959702940294 -1.29391249784979
 1  19.87212218521852  1.50745636733673 -1.87528971047105
 1  21.20191542804281  1.52475394339434  2.26352738933893
 1  22.21152400960096  2.09435946334633  0.83657781488149
 1  20.80166979637964  3.01602480208021  1.22738147604760
 1 -7.17682951605160  1.76130500370037  0.47155900200020
 1 -7.75675722412241 -0.37032720872087  0.04218409080908

