%nproc=3
%Mem=2GB
# td=(NStates=1) B3LYP/SVP 

TD

0 1
 6 -5.07159485758576 -1.88159440154015  0.48579345524552
 6 -4.65026534553455  2.78768522022202  1.42165855175518
 6 -9.34018392809281  3.35904670387039 -0.24391285918592
 6 -9.80333838833883 -1.42992379577958 -0.93298585198520
 7 -5.12823198549855  0.42957458035804  0.85294373137314
 6 -4.48591720782078 -0.77349407040704  0.75076852025203
 6 -3.03319300580058 -0.55819225392539  1.24010900670067
 6 -2.99041400680068  0.87570646294629  1.85456456225623
 6 -4.30404959805981  1.42178199609961  1.36936053305331
 6 -2.84177274577458  1.01275878817882  3.37260512311231
 6 -2.13555562626263 -0.69721968366837  0.05067301290129
 6 -0.71502471467147 -0.73840205680568  0.46827928062806
 6  0.32881654305431 -1.05704257715772 -0.58226978457846
 8  0.04022579017902 -1.31267363396340 -1.73268688018802
 8  1.58335853295330 -0.79815658875888 -0.22038448114811
 7 -7.07441203580358  2.67341461326133  0.43151266046605
 6 -5.89624119951995  3.33215763406341  0.94855571247125
 6 -6.23031621732173  4.81378781828183  0.98199469226923
 6 -7.53804290109011  4.87600643614361  0.51693822122212
 6 -8.01429237513752  3.65753424712471  0.09405956135614
 6 -5.38558907540754  5.88342385748575  1.48720998699870
 6 -8.21393867656766  6.25817982958296  0.35242374367437
 6 -9.13748164636464  6.66386610851085 -0.53839631843184
 7 -9.23663186378638  0.88133536653665 -0.52899536793679
 6 -9.83296715961596  2.06302880158016 -0.53127239643964
 6 -11.35961982848285  1.75240880188019 -0.96408024192419
 6 -11.41082503300330  0.42601994209421 -1.15710066476648
 6 -10.08656088178818 -0.10348029972997 -0.87050029252925
 6 -12.31363986488649  2.89947844944494 -1.09234232453245
 6 -12.62777051655165 -0.30622310181018 -1.63625458515852
 6 -12.54964509520952 -0.66479974437444 -3.10799897119712
 7 -7.53460241784178 -1.32307399259926 -0.31175970447045
 6 -8.59099068656866 -2.06383511031103 -0.72672603500350
 6 -8.16197863686369 -3.42124900710071 -0.60452301960196
 6 -6.82081699079908 -3.44450127842784 -0.20966859075908
 6 -6.45727683108311 -2.08787160576058  0.02946802300230
 6 -8.88112086968697 -4.64863561306131 -1.04924391879188
 6 -5.66484342954295 -4.38014304940494  0.16976792239224
 8 -5.67297678787879 -5.55401493159316  0.24316705080508
 6 -4.48905653425343 -3.31117187878788  0.39683874597460
 6 -3.87321111901190 -3.76256034953495  1.71694822052205
 8 -4.10198527202720 -3.33051098499850  2.79426749484949
 8 -2.92185087268727 -4.69695466836684  1.41551197909791
 6 -2.17211191499150 -5.32787223332333  2.52518465806581
 6  2.55350751935194 -0.97709160676068 -1.15772979877988
 6  3.98182142894289 -0.64851535393539 -0.54359645974597
 6  4.95635789238924  0.25579663456346 -0.92760671727173
 6  4.68929812551255  0.95293602530253 -2.29407652445245
 6  6.25100684588459  0.41643938313831 -0.31279019321932
 6  7.39966120652065 -0.17720390329033 -0.92004887178718
 6  8.75653725482548 -0.08284226932693 -0.19073742124212
 6  10.09924084978498 -0.74516884348435 -0.75566292109211
 6  9.94034007260726 -2.28339214211421 -0.81146043094309
 6  11.22563641384139 -0.28892320702070  0.04221366566657
 6  12.59439111331133 -0.65854117131713 -0.49731425452545
 6  13.74202279167917 -0.11621884808481  0.34808686418642
 6  15.23495240704070 -0.26535741724172 -0.33517707560756
 6  15.42105167696770 -1.74756362176218 -0.55936470477048
 6  16.31469221352135  0.54242876017602  0.51232025432543
 6  17.62046693549355  0.70681359905991 -0.37385128652865
 6  18.61313223752375  1.43896822572257  0.66201701790179
 6  20.10926282788279  1.58648645324532  0.08415014251425
 6  20.12526322522252  2.28450502660266 -1.33602167996800
 6  21.04319684098410  2.17584892369237  1.08633042124212
 1 -3.96625428572857  3.51941317331733  1.81681656255626
 1 -10.17159501260126  3.92769001110111 -0.35395671837184
 1 -10.65576983338334 -2.07503465896590 -1.32524199729973
 1 -2.63585591259126 -1.20845008020802  2.00946182188219
 1 -2.11716303080308  1.34990521372137  1.43901681388139
 1 -1.76656691469147  0.35507187558756  3.44656376037604
 1 -2.67460295219522  2.08084313401340  3.66679687488749
 1 -3.77304690159016  0.57282246674667  3.92716789298930
 1 -2.25962147054706 -1.58896362946295 -0.65483993119312
 1 -2.41044438383838 -0.03594740374037 -0.81849854405441
 1 -0.27364318411841  0.08680253385339  0.99943030433043
 1 -0.46652699199920 -1.47526948554855  1.18409591799180
 1 -4.52879769626963  6.06756112421242  0.78935173497350
 1 -5.74638984538454  7.07917283198320  1.68515781038104
 1 -4.92426051285129  5.66929497349735  2.51743587758776
 1 -8.28711372077208  6.79276915141514  1.37239879377938
 1 -9.15738109000900  5.82181234173417 -1.46841842794279
 1 -9.46826157275727  7.65998472597260 -0.31172139503950
 1 -12.64772913491349  3.31719090629063 -0.03436124922492
 1 -12.09059290759076  3.66795075247525 -1.63902321912191
 1 -13.19387040984098  2.46393422912291 -1.26542089748975
 1 -12.76334870807081 -1.26380530723072 -1.01311606270627
 1 -13.48817584208421  0.35065922062206 -1.31174353315332
 1 -12.38446407630763  0.23510032313231 -3.71303864816482
 1 -11.47557252525253 -1.19093666726673 -3.35408436053605
 1 -13.22540929442944 -1.31370046484648 -3.36436397869787
 1 -9.82888943774378 -4.78853817361736 -0.47455975797580
 1 -9.08524250315031 -4.51179912591259 -2.23458035623562
 1 -8.21258643334333 -5.56453472047205 -1.02133008850885
 1 -3.69499135053505 -3.51846813701370 -0.36845819441944
 1 -1.80450084308431 -6.25216031173117  2.02365569966997
 1 -1.67512595899590 -4.68140162406241  3.14129857245725
 1 -3.09432244864486 -5.99142423402340  2.99235611121112
 1  2.65509941744174 -2.10798844234423 -1.39774094109411
 1  2.23033792829283 -0.51326890769077 -1.97320508770877
 1  4.10023279497950 -1.26398871317132  0.34319222222222
 1  4.94749657885789  2.19144165316532 -2.21733645344534
 1  5.35510212741274  0.76103206570657 -3.04002540414041
 1  3.76191630983098  1.10906209300930 -2.59211003610361
 1  6.33485150135013  1.52282840784078 -0.25115530663066
 1  6.20808885358536  0.00246035643564  0.85416312371237
 1  7.18796558145815 -1.27480420502050 -0.95094585418542
 1  7.70020956345635  0.18842086268627 -1.89665449444945
 1  8.91908739613961  1.09760860216022 -0.32457230893089
 1  8.64148721152115 -0.43539769126913  0.95958877127713
 1  10.36567923652365 -0.34409185248525 -1.81793636863686
 1  9.09835015121512 -2.60614930813081 -1.22400094789479
 1  10.82544757585758 -2.78759035883588 -1.36880748564856
 1  9.89839485958596 -2.72364405000500  0.18943067376738
 1  11.17271256865687  0.81556033613361  0.05704428962896
 1  11.08668463196320 -0.56367160366037  1.02549247944794
 1  12.68730344094409 -1.78115968716872 -0.83142635563556
 1  12.45722387458746 -0.24725480448045 -1.56880841454145
 1  13.42200335523552  0.98489820062006  0.63204611551155
 1  13.61628585558556 -0.68260468826883  1.34310115601560
 1  15.24482682688269  0.13830503660366 -1.38044005730573
 1  14.96965251815181 -2.01206378817882 -1.55734506770677
 1  16.67514138763876 -2.04492852945294 -0.67256304020402
 1  14.98151343014301 -2.35991112371237  0.30596986838684
 1  15.77279755295530  1.38673524382438  0.82661312031203
 1  16.56103075987599  0.02114273757376  1.50646406900690
 1  18.15545676737674 -0.36668087858786 -0.50639050685069
 1  17.38484306990699  1.31422331063106 -1.34930336283628
 1  18.41853654315432  2.54925132103210  1.08858424812481
 1  18.70658291249125  0.87549335883588  1.67035418541854
 1  20.12132846524652  0.38152611361136 -0.17425626942694
 1  19.89193655025502  3.33295156525653 -1.28364026642664
 1  21.16567381108111  2.34695276497650 -1.61231433803380
 1  19.53851882488249  1.63576919861986 -2.07029921142114
 1  21.16408164466447  1.66369783778378  1.96235727232723
 1  21.97975083228323  2.19128915631563  0.55477963506351
 1  20.77075670507051  3.17358055765577  1.38410714861486
 1 -7.01410324342434  1.70648952215221  0.24497634373437
 1 -7.58986053445344 -0.31371154715471 -0.40004013161316

