%nproc=3
%Mem=2GB
# td=(NStates=1) B3LYP/SVP 

TD

0 1
 6 -5.18896659475948 -1.92225846794679  0.57776265216522
 6 -4.71236155515552  2.85982243394339  1.46567295319532
 6 -9.41721163086309  3.28691949114911 -0.13706217411741
 6 -9.76371442594259 -1.46059686308631 -1.05019757315732
 7 -5.13624278657866  0.46636825972597  0.92221065806581
 6 -4.52693130923092 -0.67642436343634  0.97065050845084
 6 -3.12795248174817 -0.56609304400440  1.31836683248325
 6 -2.95321028642864  0.88151704400440  1.91542064786479
 6 -4.30484967806781  1.46539635753575  1.45576917391739
 6 -3.06811538003800  0.95716322862286  3.44958282088209
 6 -2.14329640034003 -0.74549451115112  0.22910085568557
 6 -0.58614182638264 -0.78975719231923  0.64477693039304
 6  0.36445010641064 -1.16323319621962 -0.48619017661766
 8  0.08753052065207 -1.49793215981598 -1.55879949144914
 8  1.61509170627063 -0.98567534063406 -0.09588203090309
 7 -6.97752234683468  2.74616188798880  0.53340284948495
 6 -5.90819239463946  3.41981639993999  1.08006886378638
 6 -6.28539172487249  4.83180962046205  1.08450494329433
 6 -7.64479357615762  4.94043287878788  0.64684121152115
 6 -8.07452839873988  3.56576507020702  0.37177733313331
 6 -5.31283179967997  5.88565408050805  1.52095336133613
 6 -8.24169145184518  6.30082409400940  0.49157765906591
 6 -9.04998289648965  6.71939166106611 -0.40833331213121
 7 -9.16926512711271  0.84709194219422 -0.45085755415542
 6 -9.85394925782578  2.02043454215422 -0.50557982718272
 6 -11.17416128262826  1.81828538953895 -1.27867170107011
 6 -11.26936088658866  0.49849718981898 -1.54667962266227
 6 -10.07052927862786 -0.10300025172517 -0.94808805130513
 6 -12.17072557345735  2.90124862646265 -1.38279136943694
 6 -12.53716145564557 -0.19486196569657 -1.98401936163616
 6 -12.46069620032003 -0.49362262666267 -3.53779195049505
 7 -7.57013597119712 -1.27117880308031 -0.37253578207821
 6 -8.53344493199320 -2.10188891569157 -0.73643700610061
 6 -8.09249168816882 -3.42909979217922 -0.79572213951395
 6 -6.76933184228423 -3.40416724502450 -0.35000262416242
 6 -6.48238934233423 -2.03566638523852  0.11428650485049
 6 -8.96425918351835 -4.64724547404740 -1.13490248464847
 6 -5.69463640884088 -4.24890992609261 -0.07545660006001
 8 -5.55550504070407 -5.47167669776978 -0.20870813671367
 6 -4.55575320392039 -3.34939570117012  0.56888595069507
 6 -4.05048884678468 -3.75575966946695  1.83182970867087
 8 -4.46744181768177 -3.40327826172617  2.94678274637464
 8 -3.14348303590359 -4.74720969386939  1.78614904280428
 6 -2.72367707150715 -5.47230667676768  2.94643678327833
 6  2.71751391999200 -1.21722562016202 -1.04802882868287
 6  4.02840608740874 -0.72201270367037 -0.38566066616662
 6  4.92585484208421  0.12109316421642 -0.93547750435043
 6  4.79643883958396  0.76587731943194 -2.35478259505951
 6  6.23333507870787  0.38511625082508 -0.25282419661966
 6  7.44326556695670 -0.24942112501250 -0.88704557145715
 6  8.78772037313731 -0.09312329742974 -0.15918426592659
 6  10.08347927362736 -0.75570989758976 -0.73425077987799
 6  9.97870390899090 -2.25018882178218 -1.04058334323432
 6  11.38100195039504 -0.36824113881388  0.11134057835784
 6  12.69126080028003 -0.55457077427743 -0.62401692479248
 6  13.87477606700670 -0.04138136433643  0.15917797329733
 6  15.24910382218222 -0.10837171867187 -0.41162472037204
 6  15.61916148794879 -1.61587045244524 -0.75757452575258
 6  16.35247599189919  0.54994951225123  0.43690271257126
 6  17.76421130993099  0.72972589028903 -0.21363526492649
 6  18.59302022632263  1.70469479837984  0.50003081928193
 6  20.05984788638864  1.64288209280928 -0.04668294079408
 6  20.18402910181018  2.12633921002100 -1.50812889068907
 6  20.92134465576558  2.41350268906891  0.94711649984998
 1 -4.06848450875087  3.46108734073407  1.95196007690769
 1 -10.07275512861286  4.01208845094509 -0.48101942464246
 1 -10.41475573197320 -2.07270442594259 -1.66548602170217
 1 -2.94216654365437 -1.44408364356436  2.15491636733673
 1 -2.16328764326433  1.38971919511951  1.35205811801180
 1 -2.26596685468547  0.37590395879588  3.86530563456346
 1 -3.23402889478948  1.96910195989599  3.94873506870687
 1 -3.98688828572857  0.47814299879988  3.86017119331933
 1 -2.33995950435044 -1.55367010011001 -0.47033148034803
 1 -2.22677601700170  0.09198538953895 -0.41379807400740
 1 -0.55508132793279  0.28548240184018  1.03292365366537
 1 -0.50734107340734 -1.58610056865687  1.39259676807681
 1 -4.36788160466047  5.96778114621462  1.00363316311631
 1 -5.83013822022202  6.74989990469047  1.76356565116512
 1 -4.84621270807081  5.37512555655566  2.46036017001700
 1 -7.96633164256426  7.04018389288929  1.30420197409741
 1 -9.37319267116712  6.17497765826583 -1.28262984908491
 1 -9.63134788138814  7.81292001950195 -0.44498472137214
 1 -12.13181754375437  3.49939912711271 -0.56519433253325
 1 -11.91736558485849  3.45594955235524 -2.32599191599160
 1 -13.16623764656466  2.54827266296630 -1.56835119051905
 1 -12.49674204740474 -1.22168109480948 -1.32834758585859
 1 -13.52966999149915  0.38803295799580 -1.91330368916892
 1 -12.09583521342134  0.48626543964396 -4.04279162346235
 1 -11.53827879587959 -0.97766534013401 -3.69373832593259
 1 -13.35314206770677 -0.93317241204120 -3.99466700900090
 1 -9.65442199099910 -5.12913223302330 -0.18361066306631
 1 -9.57623160206021 -4.49484743074307 -2.08994589278928
 1 -8.26692186688669 -5.59067733473347 -1.10240819631963
 1 -3.68712056345635 -3.28334462466247 -0.15248659725973
 1 -2.16403679667967 -6.40644574027403  2.69899323342334
 1 -2.01077952435243 -4.71351483538354  3.49259370197020
 1 -3.50229324572457 -5.58745383698370  3.68055493109311
 1  2.50265417291729 -2.12053969746975 -1.19652081908191
 1  2.35876077057706 -0.66210379117912 -1.91034880208021
 1  4.43772654435443 -1.23453576787679  0.59727763076308
 1  5.09481131033103  1.74383689268927 -2.30717543734373
 1  5.28266488368837  0.06590255275528 -3.11171257285729
 1  3.74141425962596  0.74928611541154 -2.55262608770877
 1  6.39632764896490  1.38881500650065  0.11549135803580
 1  6.26502454715472 -0.09545943554355  0.85345305270527
 1  7.40165695059506 -1.35033175777578 -0.92538329792979
 1  7.59329887238724  0.11393341394139 -1.87048187718772
 1  8.99018450585058  0.95735457675768  0.23273342164216
 1  8.77634069686969 -0.52962711421142  0.94605741814181
 1  10.32971564016402 -0.07514495779578 -1.68673324832483
 1  9.00509082528253 -2.61712040524052 -1.53418196599660
 1  10.79872490359036 -2.65640724052405 -1.53516412131213
 1  9.83111813191319 -2.91683336893689 -0.06713498279828
 1  11.18484378177818  0.68825760586059  0.17203578877888
 1  11.47164312781278 -0.83630886738674  1.14532446264626
 1  12.90701541214121 -1.54262583378338 -1.12697591059106
 1  12.84799295149515  0.20872079307931 -1.43711524522452
 1  13.58167932283228  1.10201991279128  0.47261017191719
 1  13.81488571557156 -0.51237766556656  1.30870771667167
 1  15.05507785198520  0.36098730483048 -1.39282129542954
 1  14.99738529142914 -2.02629521132113 -1.67485681888189
 1  16.61668554205421 -1.55732976957696 -0.98570435433543
 1  15.21636691549155 -2.26885201780178  0.00829010041004
 1  15.94741501470147  1.60151672197220  0.48086854585459
 1  16.30106476327633  0.08378900220022  1.30688411101110
 1  18.20312153385338 -0.16746095659566 -0.51802166996700
 1  17.29261384698470  1.10903279157916 -1.32730116261626
 1  18.25602029152915  2.71576797269727  0.60496588628863
 1  18.50399265346535  1.35138094759476  1.57800495049505
 1  20.39515584798480  0.65534349534954  0.07777893409341
 1  19.68352570917092  3.22259052915292 -1.86602850525052
 1  21.19321656535654  2.16935500520052 -1.89753285988599
 1  19.58498347134713  1.50346596829683 -2.07222940444044
 1  20.96119135563556  1.89049051705171  1.83788482508251
 1  21.98636149334934  2.26810683808381  0.59867402450245
 1  20.69562919231923  3.45442864246425  0.90031876977698
 1 -7.09449128222822  1.75847472067207  0.19877172327233
 1 -7.77767931633163 -0.15537571357136  0.01991186358636

