%nproc=3
%Mem=2GB
# td=(NStates=1) B3LYP/SVP 

TD

0 1
 6 -5.05815351345135 -1.94809105120512  0.48199307520752
 6 -4.79826014501450  2.82386883858386  1.45832221812181
 6 -9.40811072077208  3.31371217041704 -0.13001146904690
 6 -9.87441549604960 -1.49631043444344 -0.71465401880188
 7 -5.23234239653965  0.50615223812381  0.83738217521752
 6 -4.44770338643864 -0.71607832883288  0.76362980638064
 6 -3.05608529502950 -0.48953538823882  1.21375637143714
 6 -3.07989295469547  0.98111700400040  1.84390349614962
 6 -4.44836402950295  1.43626344424442  1.29925352235224
 6 -2.93658222672267  0.93544105640564  3.36911477407741
 6 -2.07500957165717 -0.69158912061206  0.02878082368237
 6 -0.61671488368837 -0.61312952955296  0.38884133683368
 6  0.47240090149015 -0.95536240914091 -0.64262582018202
 8  0.08808057565757 -1.19719208580858 -1.79916352785279
 8  1.67585778287829 -0.89624639773977 -0.23269571227123
 7 -7.05860045464546  2.78934620642064  0.51913142234223
 6 -5.94334590999100  3.38113253155316  0.97021787868787
 6 -6.24356754245424  4.76959339883988  0.93533002580258
 6 -7.58427752455245  4.98939777527753  0.57595412281228
 6 -8.19748069396940  3.67144563826383  0.21512166756676
 6 -5.23862437893789  5.79010452555256  1.26311757775778
 6 -8.26075335803580  6.22899691129113  0.32469097039704
 6 -9.16296419461946  6.50220994289429 -0.58347082588259
 7 -9.27345554615462  0.79320655365537 -0.32829529792979
 6 -9.84451831473147  2.05917841654165 -0.48810808000800
 6 -11.31335520202020  1.77347090809081 -1.04430826472647
 6 -11.42343629412941  0.50213755385539 -1.08126308100810
 6 -10.20657288298830 -0.11772172387239 -0.81891513401340
 6 -12.28523702460246  2.93922242384238 -1.16242933323332
 6 -12.63454119361936 -0.24407688718872 -1.59478043774377
 6 -12.62100223092309 -0.65999926432643 -3.03911208250825
 7 -7.51513047064706 -1.43816550175017 -0.06852538103810
 6 -8.58537012451245 -2.09132785958596 -0.41682504490449
 6 -8.19934237323733 -3.45152203440344 -0.61164373167317
 6 -6.84763967306731 -3.48610543884388 -0.21144876877688
 6 -6.42611371477148 -2.16095891449145  0.12844792099210
 6 -9.04314707230723 -4.70946169566957 -0.85710470487049
 6 -5.73270021522152 -4.31885692079208  0.04959590519052
 8 -5.58216770697070 -5.50470000010001  0.07637037113711
 6 -4.44593222182218 -3.28501926352635  0.44166322842284
 6 -3.88256205410541 -3.76211030453045  1.74829135483548
 8 -4.11556663016302 -3.28117605150515  2.87906597469747
 8 -3.02052073967397 -4.72678765166517  1.58644907280728
 6 -2.46217092089209 -5.47437688378838  2.58618075767577
 6  2.73720588918892 -1.07446134373437 -1.21928595439544
 6  3.95544879167917 -0.70073057545755 -0.67366946704670
 6  5.01739399599960  0.12335339023902 -1.16728068466847
 6  4.76041523722372  0.85202593429343 -2.43841095789579
 6  6.21820356555656  0.17003474267427 -0.45908482268227
 6  7.52211345174517 -0.27477366026603 -1.13193005990599
 6  8.84587618871887 -0.05285927102710 -0.36387473497350
 6  10.08877980368037 -0.54374870147015 -1.11778913371337
 6  9.92084812341234 -1.97259106200620 -1.72936222112211
 6  11.31433528372837 -0.23634794949495 -0.07673822952295
 6  12.63647532173217 -0.51151646884688 -0.78343286638664
 6  13.77569615901590 -0.15170239643964  0.21142319781978
 6  15.27933684548455 -0.26970785228523 -0.33371692959296
 6  15.74958453025302 -1.73628249364937 -0.37053582188219
 6  16.26150689498950  0.60791530883088  0.39302832513251
 6  17.70536542534253  0.54257717541754  0.05718181678168
 6  18.57637856215621  1.67276160506051  0.71550236643664
 6  20.11660356195620  1.48930673527353  0.52877460496050
 6  20.53183388228823  1.78533510961096 -1.01441951975198
 6  20.81234375567557  2.47911925072507  1.51251303950395
 1 -4.04490215051505  3.54730596259626  1.70134501540154
 1 -10.12631048414841  4.04281152325233 -0.23489481218122
 1 -10.72598685508551 -2.08311546704670 -1.03871334443444
 1 -2.84539686668667 -1.09215845104510  2.10140101580158
 1 -2.34693600810081  1.50456067926793  1.24832774497450
 1 -1.98613887188719  0.58447481588159  3.56116522052205
 1 -2.92014750665067  1.90419546924692  3.72083227842784
 1 -3.53450304720472  0.17051223572357  4.10653582978298
 1 -2.35108061646165 -1.62440717381738 -0.57861230843084
 1 -2.22734607400740  0.15878206920692 -0.76690338453845
 1 -0.31535735553555  0.43460731433143  0.61680204150415
 1 -0.54068440774077 -1.25327728632863  1.24476198459846
 1 -4.50426524302430  5.52502687078708  0.70224302410241
 1 -5.57017222362236  6.84814972967297  1.13181247584758
 1 -4.89735782258226  5.70282832683268  2.40695482948295
 1 -7.89025403480348  7.18819869436944  1.03344489838984
 1 -9.49518487038704  5.83271343184319 -1.46335792189219
 1 -9.44008875547555  7.70894962246225 -0.86136635953595
 1 -12.31973633563356  3.80424961216122 -0.28045585868587
 1 -11.94391824012401  3.47508146554655 -2.00808012481248
 1 -13.21924294709471  2.65930376607661 -1.42093644904490
 1 -12.69207158035804 -1.34596352305231 -1.14195894699470
 1 -13.42578960346034  0.27573172787279 -1.33000535933593
 1 -12.67520315021502  0.24105091819182 -3.65140248454846
 1 -11.86801176917692 -1.46992456605661 -3.41227017911791
 1 -13.60565731923192 -1.16293538833883 -3.18464600690069
 1 -9.98195474427443 -4.59364868466847 -0.14067636963696
 1 -9.30024400330033 -4.66489443544354 -1.84669156735674
 1 -8.15800097479748 -5.39020728772877 -0.96458441394139
 1 -3.78265011641164 -3.29138542874287 -0.44212556115612
 1 -1.85687608060806 -6.26598169386939  2.16406974107411
 1 -1.69672811921192 -4.69471295519552  3.17733217581758
 1 -3.39488250465046 -5.86437152875288  3.07423429902990
 1  2.59118302580258 -2.06604424792479 -1.71488265526553
 1  2.41950684518452 -0.32998057885789 -2.04365213241324
 1  4.14711748344834 -1.10017233153315  0.29994789778978
 1  5.07142897209721  1.92571508050805 -2.14984970477048
 1  5.33177979517952  0.49071503400340 -3.28877027862786
 1  3.67453757195720  0.88311949874988 -2.90959178427843
 1  6.47355537173717  1.24729085408541 -0.19073926502650
 1  5.94910295499550 -0.44532442204220  0.55773348074807
 1  7.12063884878488 -1.33717044164416 -1.40872163176318
 1  7.50426996949695  0.22341436203620 -2.28777360636064
 1  8.85014050145014  1.06548538983898 -0.14589444114411
 1  8.71621468426843 -0.42406655815582  0.76092890529053
 1  10.39138180678068  0.07102965966597 -2.04128870387039
 1  9.31000131633163 -2.11684037723772 -2.42870141794179
 1  10.86786181728173 -2.29137073687369 -2.21071167606761
 1  9.75125014511451 -2.73111479707971 -0.88186645594559
 1  10.94797009440944  0.87918669876988  0.22701128632863
 1  11.38266422992299 -0.85241047754776  0.75924585478548
 1  12.71039575017502 -1.68193976517652 -1.10973418641864
 1  12.82907105930593  0.12468238923892 -1.63036457015702
 1  13.65732688758876  0.80806051685169  0.48968187908791
 1  13.79599382638264 -0.96227265506551  1.07352419831983
 1  15.32703504770477  0.14801600770077 -1.34254626792679
 1  14.94672022492249 -2.65582816461646 -0.52014134733473
 1  16.75578945244524 -1.84040807740774 -0.85332111601160
 1  16.13953923272327 -1.96577170977098  0.62158142954295
 1  15.89623989718972  1.65329189948995  0.22221268026803
 1  16.39988464526453  0.50003062636264  1.62913633623362
 1  18.13270449214922 -0.51599581008101  0.46961709390939
 1  18.00548513411341  0.47737962626263 -1.20355878837884
 1  18.23537822732273  2.76809320522052  0.37726311601160
 1  18.42084433863386  1.47293310281028  1.98545569556956
 1  20.37720405280528  0.37990595159516  0.95525668186819
 1  20.04035139173918  2.74843311341134 -1.31577347974797
 1  21.64049129282929  1.91702977267727 -1.15091819841984
 1  20.11096606960696  0.93779940164016 -1.52724490599060
 1  20.85027026352635  2.06017748574858  2.60183121972197
 1  22.00386324352435  2.43741376877688  1.27375153225323
 1  20.43927355675568  3.46086928652865  1.26147488538854
 1 -7.12501433453345  1.74881375457546  0.35301714781478
 1 -7.68550009840984 -0.25592576857686 -0.26896702430243

