%nproc=3
%Mem=2GB
# td=(NStates=1) B3LYP/SVP 

TD

0 1
 6 -5.10172787088709 -1.87820406250625  0.54468934483448
 6 -4.77619793879388  2.87501395309531  1.43103948984899
 6 -9.42119202890289  3.27570837003700 -0.34487295519552
 6 -9.83296135063506 -1.52000280368037 -0.94943749714971
 7 -5.19801896419642  0.52738436133613  0.90985942294229
 6 -4.53659227532753 -0.67329405040504  0.90357380078008
 6 -3.04125381188119 -0.50915735043504  1.32462745854585
 6 -3.01215618101810  0.97386627892789  1.86168527432743
 6 -4.36675586868687  1.49009882778278  1.22518611561156
 6 -3.08471704020402  0.98756626892689  3.39303716631663
 6 -2.04535660636064 -0.62814277597760  0.08571651725173
 6 -0.58029124132413 -0.59409762636264  0.54708716141614
 6  0.41542520392039 -0.90105697859786 -0.53858541614161
 8  0.06805857345735 -1.24371673827383 -1.61994560606061
 8  1.66346654375438 -0.70700747384738 -0.15730817351735
 7 -7.13523811841184  2.67066433823382  0.57379688888889
 6 -6.11354292969297  3.32890730903090  1.04663552045205
 6 -6.37755094079408  4.68731517101710  1.14653114591459
 6 -7.65620471727173  4.87756659215922  0.58722524992499
 6 -8.16050699659966  3.60562905660566  0.22279243464346
 6 -5.49551006750675  5.88451396649665  1.59691095709571
 6 -8.47089437213721  6.17290130173017  0.53791229252925
 6 -9.30093799199920  6.43274299619962 -0.57375985478548
 7 -9.16838503910391  0.80706793979398 -0.55705817421742
 6 -9.86789065196520  1.90048254695470 -0.54135340454045
 6 -11.25147901440144  1.77066062706271 -1.07994182808281
 6 -11.34282823332333  0.43803114321432 -1.33263821852185
 6 -10.05705793149315 -0.18867881958196 -0.93269651215122
 6 -12.30675917681768  2.86320482208221 -1.20309339963996
 6 -12.56661440094009 -0.22355483498350 -2.01681264096410
 6 -12.40888101880188 -0.57246051045105 -3.46908507980798
 7 -7.48795775337534 -1.28005969116912 -0.17459598809881
 6 -8.52723431093109 -2.04553328012801 -0.64519788218822
 6 -8.21486392539254 -3.39967684988499 -0.65473804110411
 6 -6.76743165226523 -3.39776660496050 -0.27040466436644
 6 -6.41727283068307 -1.99632245084508 -0.01652657645765
 6 -8.91462422002200 -4.63855460496050 -1.03272226662666
 6 -5.63202014721472 -4.19389442454245  0.05454640024002
 8 -5.50020951115112 -5.44592412251225 -0.08797606350635
 6 -4.44752238083808 -3.29173993559356  0.52650171227123
 6 -3.87935173307331 -3.70722481598160  1.89983650935094
 8 -4.19342441594159 -3.25326326022602  2.95447351545155
 8 -2.83147183478348 -4.65210018291829  1.72418284618462
 6 -2.36841154495450 -5.31327077317732  2.92288442804280
 6  2.59005117371737 -1.00679457705771 -1.23557758355836
 6  3.94783803060306 -0.77083758615862 -0.55349744984498
 6  4.95689794639464  0.11666272117212 -0.90209416601660
 6  4.87730692639264  0.98193892559256 -2.13432054885488
 6  6.33572531773177  0.16883462266227 -0.17317623182318
 6  7.55663690409041 -0.36490267316732 -0.82829969686969
 6  8.82172377347735 -0.21277526262626 -0.12407075457546
 6  10.03669459515952 -0.65821014761476 -0.92621997679768
 6  10.05423146174618 -2.09527333023302 -1.36927621252125
 6  11.26191004120412 -0.29188350305031 -0.08812936863686
 6  12.65993766796680 -0.69129444664466 -0.70261478457846
 6  13.87168575797580 -0.17226445264526  0.07592964846485
 6  15.19819873167317 -0.27221810331033 -0.42332589048905
 6  15.60567013881388 -1.69545841124112 -0.60323909220922
 6  16.21459220352035  0.48497301460146  0.44832385468547
 6  17.75126001480148  0.49175209290929 -0.08689259065907
 6  18.59852077637764  1.46844117301730  0.59092990919092
 6  20.05959786138614  1.49565737033703  0.07265899339934
 6  20.15709640854086  2.25868244434443 -1.27480555835584
 6  21.03518603990399  2.22297363616362  1.03754554275428
 1 -4.07955561586159  3.62369360136014  1.89600448134813
 1 -10.14956280938094  4.11582882498250 -0.67827915061506
 1 -10.78731298769877 -2.19164632013201 -1.29286875997600
 1 -2.81879420642064 -1.32580181538154  2.04315519121912
 1 -2.13493480798080  1.71579180238024  1.67050996319632
 1 -2.01187144514451  0.70559692809281  3.88399750375038
 1 -3.43515900780078  1.97750279998000  3.62156235143514
 1 -3.69623922082208  0.21716690119012  4.02186736293629
 1 -1.94852036043604 -1.58473320642064 -0.49606405360536
 1 -2.16560990039004  0.24139033003300 -0.69884657885789
 1  0.01015519571957  0.19103295689569  1.01537189848985
 1 -0.40853119241924 -1.34904686328633  1.39006651505150
 1 -4.74516933343334  6.27740210831083  0.79732253205321
 1 -6.30942614901490  6.73008792349235  1.98782807740774
 1 -4.87980606740674  5.38875691969197  2.41113524752475
 1 -8.30403541294129  7.07819769426943  1.37311886578658
 1 -9.50850620252025  5.63786394689469 -1.33386497259726
 1 -9.78662340894089  7.44555328282828 -0.25656587948795
 1 -12.47392175417542  3.56356554375438 -0.41985979907991
 1 -12.02729657795780  3.44126808420842 -2.04087340414041
 1 -13.40416143894389  2.66156399209921 -1.57234158955896
 1 -12.52566493969397 -1.22742166886689 -1.36823157425743
 1 -13.51560858535854  0.19840399509951 -2.05122748154815
 1 -12.32319794969497  0.25943275637564 -4.06104344864486
 1 -11.59074404240424 -1.02504007760776 -3.59221817391739
 1 -13.30533728722872 -1.04942403720372 -3.86629417171717
 1 -9.60934748354835 -5.05003432323232 -0.18189049104911
 1 -9.30177415631563 -4.57643558955896 -2.17121401960196
 1 -8.23247842254225 -5.33280154715472 -1.00719867536754
 1 -3.68367021842184 -3.40777706790679 -0.22529387798780
 1 -2.14383477647765 -6.21901699739974  2.35665900000000
 1 -1.52910135653565 -4.57678116201620  3.31480592319232
 1 -3.36964998139814 -5.49856494809481  3.67385426102610
 1  2.62388629612961 -1.88034567806781 -1.47680884788479
 1  2.16755164966497 -0.12985056585659 -2.08656642384238
 1  3.85619839153915 -1.32236455075508  0.36556445944595
 1  5.35912774197420  1.97552006100610 -1.97071179097910
 1  5.66213283048305  0.75646160866087 -2.95225662726273
 1  3.82855297349735  1.04595578237824 -2.69213003810381
 1  6.33594161036104  1.22100822582258  0.42391220012001
 1  6.08549659435944 -0.58213810341034  0.64974268166817
 1  7.14582136703670 -1.43647037163716 -1.15941670127013
 1  7.71526106860686  0.15773779437944 -1.81049587858786
 1  8.69339482688269  0.77266610791079  0.32650279857986
 1  8.55559862266227 -0.76199035053505  0.93537635003500
 1  9.96837950655065 -0.02133957725773 -1.78313288828883
 1  9.05111542774277 -2.55855454865487 -1.75291383918392
 1  10.93432846394639 -2.36588818861886 -1.89274987988799
 1  10.20504552465247 -2.61578326392639 -0.25196346564656
 1  11.40719601700170  0.70773955405541  0.00399898509851
 1  11.29783574707471 -0.88290352685269  0.82406233643364
 1  12.61336604720472 -1.79104067526753 -0.75281849484948
 1  12.55117326952695 -0.17243732273227 -1.74050558425843
 1  13.49009016391639  0.87879759055906  0.25284819571957
 1  13.81204543154315 -0.67691411921192  1.24754160006001
 1  15.26540888508851  0.21432263836384 -1.38666067936794
 1  15.05314086698670 -2.29153173497350 -1.26052538573857
 1  16.59837371087109 -1.86483051965197 -1.26195197909791
 1  15.65473075187519 -2.33722885548555  0.41882115351535
 1  15.73420369356936  1.50356692699270  0.63634409340934
 1  16.27347200400040  0.17727835113511  1.45761918451845
 1  18.20705192689269 -0.44630884138414  0.06981711391139
 1  17.65999058465847  0.60566245454545 -1.22281071357136
 1  18.21048573807381  2.53627002290229  0.65894128382838
 1  18.73999625382538  1.32699850935094  1.75761291129113
 1  20.52995932833283  0.38240620162016 -0.25895473927393
 1  19.67978533513351  3.16485475557556 -1.26391829422942
 1  21.13212045574558  2.31735980568057 -1.69416252285228
 1  19.66625159815981  1.49401502320232 -2.10345252675268
 1  20.77488272477248  1.88293976197620  2.01096213281328
 1  21.99870272747275  2.08702873027303  0.55119927702770
 1  20.90513014241424  3.34218741834183  1.23352209010901
 1 -7.19686151925193  1.75977485068507  0.60603244934493
 1 -7.62389393779378 -0.32263243924392 -0.14835496309631

