%nproc=3
%Mem=2GB
# td=(NStates=1) B3LYP/SVP 

TD

0 1
 6 -5.08374607270727 -1.93643988608861  0.48008288418842
 6 -4.59957027602760  2.74156060776078  1.41153753965397
 6 -9.14982489218922  3.29845064426443 -0.26763523142314
 6 -9.73728178267827 -1.36013681708171 -1.07412996639664
 7 -5.17230639293929  0.34133575647565  0.86898533553355
 6 -4.47380599669967 -0.78176489748975  0.86668011141114
 6 -3.09933962046205 -0.55211164586459  1.39104410021002
 6 -3.04796976237624  0.81369026132613  1.93116222202220
 6 -4.37483667676768  1.34167398529853  1.41692528952895
 6 -2.99060762926293  0.97928544084408  3.43716157875788
 6 -2.05303737443744 -0.96634659635964  0.29012695829583
 6 -0.57668088028803 -0.96188440504050  0.60944339703970
 6  0.39593325472547 -1.26930380328033 -0.51668322592259
 8  0.13220498809881 -1.62754512111211 -1.66716032753275
 8  1.62693289038904 -0.96552332543254 -0.03465590829083
 7 -6.87870246484648  2.81232850465046  0.37305681488149
 6 -5.76851842724272  3.27554197249725  0.90971182808281
 6 -6.07578076377638  4.75775221472147  0.97027352015201
 6 -7.40524962176218  5.01441027652765  0.47539406680668
 6 -7.90260120602060  3.69212770647065  0.08008816421642
 6 -5.14538505500550  5.82965848094809  1.60462172817282
 6 -8.10947823052305  6.19208321992199  0.43627212851285
 6 -8.97413531173117  6.69298902080208 -0.44338681748175
 7 -9.02468066866687  0.90952818581858 -0.53932640104010
 6 -9.70918478137814  2.05227772647265 -0.57499676887689
 6 -11.12740660716072  1.97522108310831 -1.15072890679068
 6 -11.31595554605460  0.60731807190719 -1.34392934763476
 6 -10.02085431113111 -0.02382233393339 -0.94493773627363
 6 -12.01643014391439  3.07988649024903 -1.25645873617362
 6 -12.50594833433343 -0.03408588808881 -1.81192215191519
 6 -12.52883301400140 -0.20195345974597 -3.33494166546655
 7 -7.48566752435243 -1.27711939713971 -0.20909943844384
 6 -8.58857044454446 -2.04736346314631 -0.58888225062506
 6 -8.14724716371637 -3.42925980818082 -0.73713628092809
 6 -6.90436534563456 -3.43645047334733 -0.36639426332633
 6 -6.44839594299430 -2.08859167776778  0.10727580378038
 6 -9.05525828342834 -4.55689643914391 -1.16607560196020
 6 -5.75920286548655 -4.26285132023202  0.03296424202420
 8 -5.67054654485449 -5.48036756685669  0.10273300740074
 6 -4.53751137973797 -3.40870163176318  0.55014407650765
 6 -3.97456125402540 -3.84673876737674  1.88404493019302
 8 -4.33172824632463 -3.49618755265527  2.97081514961496
 8 -3.13778246584658 -4.82624759765977  1.61795222312231
 6 -2.61405610941094 -5.50306975307531  2.75903804340434
 6  2.68588075667567 -1.25801969956996 -1.05996002180218
 6  4.04770801760176 -0.91738224062406 -0.41166326642664
 6  4.89198145474547 -0.00759970507051 -0.91792574917492
 6  4.55353454915492  0.85219595129513 -2.18544566136614
 6  6.19691143634363  0.26113385258526 -0.27500641484148
 6  7.45361660206021 -0.25007119001900 -0.98026489338934
 6  8.73225482658266 -0.20656464156416 -0.07741608910891
 6  9.96869779547955 -0.74863919051905 -0.76847420222022
 6  9.95333137173717 -2.29579338223822 -0.91577086198620
 6  11.22046589678968 -0.32542685738574  0.00144958925893
 6  12.54457613181318 -0.52375769296930 -0.78686320942094
 6  13.70222881228123  0.02092486628663  0.03843589908991
 6  15.09793870567057 -0.17522840434043 -0.39688324622462
 6  15.67511708350835 -1.61746061146115 -0.57227599589959
 6  16.09283002730273  0.72077659495950  0.46551557385739
 6  17.55919080788079  0.77118003570357 -0.14540844224422
 6  18.48704962926293  1.76842117101710  0.51523233943394
 6  19.89532143374337  1.79427723232323  0.04056578407841
 6  19.98273897279728  2.45171174727473 -1.39259733753375
 6  20.79209173047305  2.52227356615662  0.95578736693669
 1 -3.90821848214821  3.36841807380738  1.92807768866887
 1 -9.91023887698770  4.14597183928393 -0.37321864456446
 1 -10.62557681408141 -1.97134428992899 -1.33992346544654
 1 -2.93455578257826 -1.38981821702170  2.16447732343234
 1 -2.16934824932493  1.57244746794680  1.47038995119512
 1 -1.88739899789979  0.69556592499250  3.75521462546255
 1 -2.95314080598060  2.09420447014701  3.77141733693369
 1 -3.76319591649165  0.33024820932093  3.96966214241424
 1 -2.36778228662866 -1.97181191429143 -0.13021746894689
 1 -2.16522986238624 -0.14381819081908 -0.44224091829183
 1 -0.19490531033103  0.10007386098610  0.86335669696970
 1 -0.29491983128313 -1.68531048964897  1.42162967136714
 1 -4.17196201270127  5.57697206530653  0.93828662846285
 1 -5.59566477287729  6.72086700140014  1.30372966756676
 1 -5.10387847464746  5.53504154815482  2.83897803180318
 1 -7.79793480288029  6.76371624612461  1.27168872277228
 1 -9.25236058795880  6.26318647914792 -1.39949153525353
 1 -9.17120186678668  7.68192692019202 -0.45242546544654
 1 -12.18684304630463  3.60531971917192 -0.31022883598360
 1 -11.74667851615162  3.64319827722772 -2.15816513331333
 1 -12.93865488828883  2.64700253595360 -1.66038039343934
 1 -12.41899427262726 -1.10540946764676 -1.67040179127913
 1 -13.47089411391139  0.28508266296630 -1.32574493329333
 1 -12.66377200710071  0.86877369046905 -3.81326867116712
 1 -11.55411037903790 -0.44487206080608 -3.95041399349935
 1 -13.41363811731173 -1.00231932673267 -3.60733827612761
 1 -9.82935948474848 -4.50972029182918 -0.47173947594759
 1 -9.32139611851185 -4.28702664866487 -2.16093299149915
 1 -8.42446762146215 -5.46564483148315 -1.45766372187219
 1 -3.83399525092509 -3.62080837103710 -0.20898224682468
 1 -1.68631902490249 -6.08912400810081  2.19637297139714
 1 -2.27984643104310 -4.78970245414541  3.32678712131213
 1 -3.31392440884088 -6.08421351295130  3.50218709430943
 1  2.76689059655966 -2.32770041354135 -1.22427359435944
 1  2.58649354385439 -0.78358593939394 -1.93136090329033
 1  4.11671444314431 -1.48599091339134  0.62370027302730
 1  4.61083291249125  1.97204971397140 -1.90900562036204
 1  5.16885350255026  0.53982994549455 -3.06813821542154
 1  3.43676379457946  0.91626281308131 -2.53240406550655
 1  6.24931294749475  1.31762788778878 -0.16373656475648
 1  6.05037308200820 -0.21646153575358  0.81420912831283
 1  6.96807359225922 -1.42434915951595 -1.43062382198220
 1  7.77879742224223  0.20669268986899 -1.97205203420342
 1  8.80500598799880  0.78949779107911  0.21220136843684
 1  8.46673973677368 -0.98239239073907  0.91301411381138
 1  9.81320398899890 -0.31641908520852 -1.85541011601160
 1  9.26269658585858 -2.49338803200320 -1.51090963876388
 1  10.94801983308331 -2.44216581638164 -1.25215582048205
 1  9.61753677377738 -2.76689837543754 -0.01218948824882
 1  10.96703200060006  0.99679845994599  0.18418700390039
 1  11.23882984648465 -0.68418365486549  0.99102903310331
 1  12.62730744134413 -1.72472404360436 -0.74466767976798
 1  12.51296944914491 -0.23741382038204 -1.80885241894189
 1  13.63358451335134  1.10829053985399  0.30832374327433
 1  13.70218444544454 -0.42977940574057  1.11354820072007
 1  15.05250759495950  0.45605681178118 -1.51809382268227
 1  15.24095964886489 -2.19578216001600 -1.46547588078808
 1  16.74535840934093 -1.92766680328033 -0.89592537643764
 1  15.37538281708171 -1.94749988258826  0.51464073547355
 1  15.69543981718172  1.53957052735274  0.58588904790479
 1  16.20715537233723  0.26194681798180  1.51712513511351
 1  18.04962618431843 -0.26405061556156 -0.30998086588659
 1  17.49025361096110  0.84621650995099 -1.21962039453945
 1  18.05212990249025  2.81104750065007  0.44905029472947
 1  18.41454370857086  1.63488929842984  1.61224837483748
 1  20.11930826322632  0.56062402340234  0.06544770097010
 1  19.73023037963797  3.44511278137814 -1.38328023042304
 1  20.98363560726073  2.20571864156416 -2.06267937453745
 1  19.30811578457846  2.15999162086209 -2.10630281178118
 1  20.70313555005501  2.05688715671567  2.00350138673867
 1  21.77737059425943  2.43171319871987  0.45994015111511
 1  20.58932856225623  3.69176237583758  0.99279801770177
 1 -6.91359319241924  1.77351622482248  0.22928477457746
 1 -7.55400694909491 -0.37429760576058 -0.23607373497350

