%nproc=3
%Mem=2GB
# td=(NStates=1) B3LYP/SVP 

TD

0 1
 6 -4.96962466056606 -1.94052029412941  0.32939781568157
 6 -5.03309362836284  2.79851630333033  1.40631701760176
 6 -9.58654856455646  3.20818161736174 -0.24699316721672
 6 -9.81679973447345 -1.51799260266027 -0.81424397779778
 7 -5.21037019931993  0.46335795869587  0.77226566356636
 6 -4.41456007210721 -0.63668038903890  0.84281772517252
 6 -2.96360604710471 -0.33039947464746  1.28285328112811
 6 -3.14598956435644  1.07418631093109  1.87796690249025
 6 -4.50073926702670  1.43786360426043  1.29534313131313
 6 -3.09733830233023  1.23445095739574  3.38577644024402
 6 -2.06745881658166 -0.52479244094409  0.04304224982498
 6 -0.53997720992099 -0.39727794439444  0.48331078377838
 6  0.36564022542254 -0.57135400830083 -0.73927548514851
 8  0.07325909350935 -0.72117448404841 -1.91937554905491
 8  1.76775697279728 -0.61939871297130 -0.25957840054005
 7 -7.26042063666367  2.70878815061506  0.54136364556456
 6 -6.18974054945495  3.41432585088509  1.04521537843784
 6 -6.49554273997400  4.79356579607961  1.08789528232823
 6 -7.77014611141114  4.93464229972997  0.47399392679268
 6 -8.32367331323132  3.60046854055406  0.20453060846085
 6 -5.53595411191119  5.87177269236924  1.34795606160616
 6 -8.53218050075007  6.15631964356436  0.24164266556656
 6 -9.54213211141114  6.37193691559156 -0.65559803860386
 7 -9.23913211381138  0.80557779077908 -0.51186365476548
 6 -10.02315617851785  1.92212471117112 -0.50407967716772
 6 -11.37698156465647  1.67138069906991 -0.84737857175718
 6 -11.55210916141614  0.27373471357136 -1.04762971767177
 6 -10.16708893459346 -0.21245119681968 -0.90194343684368
 6 -12.46875537643764  2.69668817041704 -1.02723581388139
 6 -12.66486422592259 -0.50673315281528 -1.59638059775978
 6 -12.57715784648465 -0.90264352875287 -3.10575874717472
 7 -7.44486344394439 -1.33294497969797 -0.05174370287029
 6 -8.50834242174217 -2.08184691149115 -0.47959132153215
 6 -8.05820825982598 -3.35966284848485 -0.55842841014101
 6 -6.68977388648865 -3.33420024832483 -0.06042366626663
 6 -6.36459756315632 -2.05008782738274  0.16285136133613
 6 -8.70356311391139 -4.68360911041104 -1.00751974637464
 6 -5.58878582378238 -4.19633466856686  0.00068101370137
 8 -5.49400889108911 -5.44533406350635  0.08756149024902
 6 -4.36995462406241 -3.27029779137914  0.39378844094409
 6 -3.73701749964996 -3.72392648614861  1.69771629732973
 8 -3.85565063856386 -3.26543447734773  2.79438750685069
 8 -2.64359304690469 -4.63148812171217  1.42403283118312
 6 -2.02086679047905 -5.30956040214021  2.52904504410441
 6  2.66279844844484 -0.67086098369837 -1.43184721052105
 6  3.96947019381938 -0.50556105850585 -0.75272737283728
 6  5.04012626922692  0.35226628152815 -1.13602755935594
 6  5.08549774547455  1.20351108280828 -2.33297041384138
 6  6.26328807400740  0.44095183438344 -0.17770668486849
 6  7.51500274067407 -0.18096427932793 -0.97246411331133
 6  8.79513111421142 -0.06933091819182 -0.09329767726773
 6  10.04721564726473 -0.74782910951095 -0.69782713751375
 6  10.02419845844585 -2.24260806370637 -1.03506279117912
 6  11.32363621382138 -0.28375268996900  0.06119556385639
 6  12.65916759095910 -0.73269858705871 -0.64992951605161
 6  13.85956454585459 -0.36045327152715  0.20509256475648
 6  15.24921383318332 -0.53510439193919 -0.47519107700770
 6  15.59047861966197 -2.07557642304230 -0.44698346664666
 6  16.29924066836684  0.21998651595160  0.48113713601360
 6  17.75639052785279  0.32416533423342 -0.21183508490849
 6  18.63912483678368  1.11892622152215  0.67130794699470
 6  20.09136103770377  1.42765056965697  0.15843757125713
 6  20.13884458335833  2.28190476657666 -1.14197227502750
 6  20.95032755405541  1.97094843364336  1.34863665186519
 1 -4.30362802310231  3.56107733973397  1.86421130203020
 1 -10.18061591469147  4.12627987008701 -0.27146846954695
 1 -10.42626688308831 -2.29142629812981 -1.26404587768777
 1 -2.84818714571457 -0.94919415461546  1.97360823652365
 1 -2.39806112061206  1.76199642284228  1.26300921312131
 1 -2.10640089808981  1.15830219861986  3.92023112711271
 1 -3.56447193909391  2.14023907360736  3.67481767696770
 1 -3.63697329422942  0.41059624412441  3.96927210341034
 1 -2.02940844924492 -1.58422315541554 -0.54752920012001
 1 -2.21364470387039  0.18764495549555 -0.72992968716872
 1 -0.30111593139314  0.27708156175618  0.86575693699370
 1 -0.45400573987399 -1.23934589318932  1.15026253465346
 1 -4.66497131363136  6.02108647674767  0.83045584538454
 1 -5.88981418781878  6.79059397409741  1.34870416501650
 1 -4.98446653345335  5.60506855085509  2.25943007700770
 1 -8.37277228662866  7.06368624312431  0.91891344524452
 1 -9.92532788468847  5.58880904140414 -1.54524611071107
 1 -10.28970371697170  7.25640436793679 -0.60074029692969
 1 -12.51485584758476  3.29841902910291 -0.12712052515252
 1 -11.99548339663966  3.28614257165717 -2.03462277907791
 1 -13.33264428722872  2.25407324302430 -1.37249160456046
 1 -12.55306767996800 -1.37970689738974 -0.86212096319632
 1 -13.63375039953995 -0.06822266756676 -1.43788614741474
 1 -12.80535616551655 -0.09485267216722 -3.67124446874687
 1 -11.69506447444745 -1.55317289088909 -3.29268822092209
 1 -13.31021777527753 -1.81601069586959 -3.32097964026403
 1 -9.43005955475548 -5.02270158995900 -0.20946324832483
 1 -9.30376435533553 -4.71838978497850 -2.06598349654965
 1 -7.99020419511951 -5.55953422042204 -1.07216517201720
 1 -3.64838669006901 -3.59252554275427 -0.48824017261726
 1 -1.29787018001800 -6.19001409710971  2.05066840094009
 1 -1.30684913131313 -4.49045252915292  3.15658010061006
 1 -2.58281129752975 -5.86314140574058  3.17448432403240
 1  2.57855176267627 -1.53572121562156 -2.04488565556556
 1  2.43491838633863  0.34105652485248 -2.21568933613361
 1  4.01428420012001 -0.98981129542954  0.12998090109011
 1  5.54090591979198  2.09422193119312 -2.30471519131913
 1  5.46282289948995  0.50146610911091 -3.09743114471447
 1  4.00871098929893  1.42589377617762 -2.76319714481448
 1  6.32950096629663  1.45457158215822 -0.11707189828983
 1  6.16021406610661  0.05046515691569  0.71446915431543
 1  7.14362114701470 -1.21161788638864 -0.94253501310131
 1  7.75378492099210  0.32219424002400 -1.79936476547655
 1  8.96573206060606  1.01880072137214 -0.01650150185018
 1  8.77528059085909 -0.59736388788879  0.88361117351735
 1  10.19068173677368 -0.43227067036704 -1.70475505050505
 1  9.21449176537654 -2.29583827702770 -1.68655720352035
 1  10.95604063516352 -2.59252085188519 -1.52996360126013
 1  9.91683670377038 -2.83138482408241 -0.12824109340934
 1  11.34013931133113  0.64391317141714  0.50090867606761
 1  11.21711767526753 -0.63296853335334  0.99396932713271
 1  12.59094380498050 -1.92033360456046 -0.95105831883188
 1  12.62388054025402 -0.38243832283228 -1.75159669336934
 1  13.84813596849685  0.71698140894089  0.81869478037804
 1  14.10206443344334 -0.97501392919292  1.11266811271127
 1  15.27771011521152 -0.21180997489749 -1.59529154245425
 1  14.88759431233123 -2.48755133693369 -1.12441177437744
 1  16.45145901940194 -2.28391242784278 -0.95248103200320
 1  15.67938321712171 -2.47056218881888  0.62308157955796
 1  15.81409168236824  1.31379795009501  0.55261572057206
 1  16.41672632943294 -0.37870724742474  1.32807623022302
 1  18.11261248294829 -0.73942815331533 -0.28431829962996
 1  17.42971755735574  0.75143703200320 -1.32307073957396
 1  18.23620831033103  2.29151554745475  0.82804819451945
 1  18.56275853005301  0.40771658115812  1.63014016401640
 1  20.47513384578458  0.33935189618962 -0.28145698949895
 1  19.96775413201320  3.65303357345735 -0.79034093649365
 1  21.17281452515252  2.25310338003800 -1.27952105870587
 1  19.63810878387839  2.18709433113311 -2.23921610311031
 1  21.13027826432643  1.17880934893489  2.29245028162816
 1  22.13231608880888  2.23889391679168  0.86939109620962
 1  20.55669529892989  3.06653985358536  1.61802053995400
 1 -7.35303713681368  1.71508038123812  0.53740558665867
 1 -7.55960750915091 -0.30003017901790  0.02631250365037

