%nproc=3
%Mem=2GB
# td=(NStates=1) B3LYP/SVP 

TD

0 1
 6 -5.13407110521052 -1.90728697079708  0.42936781268127
 6 -4.80234055305531  2.73399985168517  1.28667505340534
 6 -9.45856576627663  3.27948874807481 -0.27764623252325
 6 -9.86106416091609 -1.54438524192419 -0.87779033243324
 7 -5.13372253455346  0.47055867876788  0.67014545154515
 6 -4.47015563166317 -0.74886160716072  0.84371781518152
 6 -3.08407809430943 -0.57858429312931  1.18481347714771
 6 -3.11163612901290  0.90381927422742  1.72717182298230
 6 -4.38467766086609  1.42236205410541  1.20491408840884
 6 -2.95646421492149  1.13592110441044  3.28085594819482
 6 -2.03948601930193 -0.68633859555956  0.03556150175017
 6 -0.62804601680168 -0.71936015261526  0.48707115981598
 6  0.35814947634763 -0.87869474237424 -0.67901945954595
 8  0.06980874847485 -1.19892225882588 -1.75840945244524
 8  1.72456265336534 -0.78874564766477 -0.28030047274727
 7 -7.14333892849285  2.68859613141314  0.42758226742674
 6 -6.03782535793579  3.32919733803380  1.04029488638864
 6 -6.36172935863586  4.79674611411141  1.21807830063006
 6 -7.69113821062106  4.92043087858786  0.69532606000600
 6 -8.18248919481948  3.59864835853585  0.27997815321532
 6 -5.50006052255226  5.75358087318732  1.80181144714471
 6 -8.35497277997800  6.27122113371337  0.54032253355336
 6 -9.18364626282628  6.56104582648265 -0.46509898869887
 7 -9.25390359095909  0.80919815281528 -0.42012448084808
 6 -9.88612247514751  1.99404190289029 -0.69834910411041
 6 -11.23327719421942  1.79195275627563 -1.08145197909791
 6 -11.50997494799480  0.45930327042704 -1.21604655935594
 6 -10.11503372907291 -0.14232418411841 -0.76797003950395
 6 -12.20163866476648  3.02576107770777 -1.55617870817082
 6 -12.69742748224822 -0.28537101660166 -1.73174413411341
 6 -12.50463059375938 -0.47758102250225 -3.31020919221922
 7 -7.55729468706871 -1.27941962716272 -0.07917644614461
 6 -8.58482006950695 -2.07714644144414 -0.50646400880088
 6 -8.08416085508551 -3.46683356555656 -0.64463703100310
 6 -6.79050395949595 -3.38964579287929 -0.19356698059806
 6 -6.44519562296230 -1.99638245684568 -0.00674559835984
 6 -8.87697045464546 -4.62606335583558 -1.14676367076708
 6 -5.68413535873587 -4.26661169626963  0.15925687128713
 8 -5.64330382058206 -5.43994352445245  0.11069380348035
 6 -4.44343197179718 -3.22287304890489  0.42916197829783
 6 -3.83445724362436 -3.71149524302430  1.72534906060606
 8 -4.23290836433643 -3.39206714061406  2.85814388248825
 8 -2.89527821542154 -4.67671264416442  1.53666409430943
 6 -2.38116282008201 -5.21191063716372  2.81591373097310
 6  2.67473964256426 -1.09700359795980 -1.34630865666567
 6  4.05485873267327 -1.00042054445445 -0.61729382948295
 6  5.02052430903090  0.01507256215622 -0.96511046764676
 6  4.94340353605361  0.99210994269427 -2.09393651045105
 6  6.31074281948195  0.20771851105111 -0.08328724292429
 6  7.62773401380138 -0.30353653655366 -0.88028489538954
 6  8.82010361146115 -0.24678866396640  0.05010666316632
 6  10.04699562526253 -0.79160348694869 -0.66539389418942
 6  9.97681371997200 -2.36857065996600 -0.99363864876488
 6  11.38976282648265 -0.37998231293129  0.08620806510651
 6  12.70892256645665 -0.58670398759876 -0.53230775387539
 6  13.91287987738774 -0.14332155835584  0.31521357685769
 6  15.21852076387639 -0.33092397389739 -0.41633519141914
 6  15.75365493729373 -1.74692355775578 -0.48271704000400
 6  16.26426717101710  0.59043356065607  0.44761378367837
 6  17.65640052885288  0.64595751345135 -0.10761466286629
 6  18.65019594389439  1.66903123202320  0.50031084728473
 6  20.05682758435843  1.65760356495650 -0.11432970547055
 6  20.11246194509451  2.21878845494549 -1.39098717651765
 6  21.08608112941294  2.35389672847285  0.88635042324232
 1 -4.18083574387439  3.51758299029903  1.74901978287829
 1 -9.97423527662766  4.23771101320132 -0.23023434613461
 1 -10.66586084248425 -2.18807596309631 -1.11122059515952
 1 -2.99763209020902 -1.34820405560556  2.08890976667667
 1 -2.14158547304730  1.55770599379938  1.27497040924092
 1 -1.88637889588959  0.94077044544454  3.59069817381738
 1 -2.98388388028803  2.17131218091809  3.81745194039404
 1 -3.64052364926493  0.62795798029803  3.76996217241724
 1 -2.28577408580858 -1.65144987808781 -0.68405285248525
 1 -2.13598693809381  0.22398858985899 -0.80128682288229
 1 -0.24469028882888  0.10219407300730  0.88010837213721
 1 -0.36431677097710 -1.63772573117312  1.13348085648565
 1 -4.77183199969997  5.83428779687969  1.02009480928093
 1 -5.92036724312431  6.79265418011801  2.05664495909591
 1 -4.98424651145115  5.41653969796980  2.67411154515452
 1 -8.15605061446145  7.00132000650065  1.37737929182918
 1 -9.50249560146015  5.87522768326833 -1.22714430053005
 1 -9.69556430303030  7.51341006850685 -0.61722194509451
 1 -12.33708807080708  3.83617280448045 -0.73761157425743
 1 -11.61474532283228  3.69557351475148 -2.35779509630963
 1 -13.04914593739374  2.53425126082608 -1.60839519491949
 1 -13.01804417761776 -1.31063999069907 -1.18445319641964
 1 -13.58208523302330  0.31637579227923 -1.66392875167517
 1 -12.23930956085609  0.58335514861486 -3.75932327662766
 1 -11.61961692969297 -1.13832140574057 -3.45511446354635
 1 -13.54847160066007 -0.75049414421442 -3.74636217851785
 1 -9.75766231503150 -4.96979629942994 -0.53049535153515
 1 -9.19311329022902 -4.70206815281528 -2.16658355655566
 1 -8.29662483718372 -5.56558482548255 -1.14403235873587
 1 -3.57676952835284 -3.47168345854586 -0.44485583418342
 1 -1.25495588858886 -5.60198529422942  2.62502583668367
 1 -2.41516996339634 -4.22334581848185  3.63446788938894
 1 -3.22568558495850 -6.14493958555856  2.90206708230823
 1  2.39015292279228 -2.09517716121612 -1.88453962096210
 1  2.48395328982898 -0.50724830563056 -2.13497126432643
 1  4.04486725842584 -1.66105842014201  0.27616551955195
 1  5.08938076727673  1.87441995099510 -1.51904662446245
 1  5.77776439363936  1.00332629512951 -3.00659206080608
 1  3.90237035523552  1.02400358715872 -2.65261608670867
 1  6.45079309550955  1.29202532753275  0.15033484238424
 1  6.06924496919692 -0.26483637323732  0.84321202860286
 1  7.48210499539954 -1.34234095869587 -1.44019477907791
 1  7.47431697419742  0.36207822842284 -1.94585941494149
 1  9.11818730613061  0.93052189348935  0.29801995029503
 1  8.46127919071907 -0.61724587608761  1.07490030243024
 1  10.20964363296330 -0.37690513381338 -1.74196877187719
 1  8.96441675787579 -2.68272696589659 -1.65129367716772
 1  10.62195722682268 -2.50863246304631 -1.56881748664866
 1  9.73717873797380 -2.98040972657266  0.02502423312331
 1  11.01396669406941  0.62024080418042  0.40779936513651
 1  11.28602456595660 -0.63592882938294  1.19529946014601
 1  12.79018372897290 -1.67262883408341 -0.75523873687369
 1  12.70229838203820 -0.23100317931793 -1.54547608130813
 1  13.78167932283228  1.04378408920892  0.52248515941594
 1  13.94464869186919 -0.68823525132513  1.33996084198420
 1  15.28170051425142  0.15861706780678 -1.40817283058306
 1  15.13499905280528 -2.28429101090109 -0.95494482768277
 1  16.71337521102110 -1.78692272887289 -0.83048883278328
 1  15.88973425222522 -2.01026615921592  0.64366363776378
 1  15.97396766996700  1.60295686598660  0.48324878387839
 1  16.38304296109611  0.20594121742174  1.58164158675868
 1  18.16902812451245 -0.27951216171617 -0.04447431523152
 1  17.59286387198720  1.01345323362336 -1.20900933343334
 1  18.14081877137714  2.75489188508851  0.25905129482948
 1  18.58444069826983  1.56022183168317  1.66332348234823
 1  20.29258559095910  0.52367032803280  0.03494465066507
 1  19.65211256785679  3.17257552765277 -1.39820172257226
 1  21.01029827352735  2.10824889458946 -1.87199030563056
 1  19.39703467646764  1.59412503420342 -2.07371955345535
 1  21.07900313681368  1.74160562856286  1.87096813341334
 1  22.13471632883288  2.10583061046105  0.47154131123112
 1  21.00105973537354  3.42318551815181  0.92966170407041
 1 -7.31100293339334  1.71687056025603  0.28590043614361
 1 -7.80094164256426 -0.26293646964696  0.01028090049005

