%nproc=3
%Mem=2GB
# td=(NStates=1) B3LYP/SVP 

TD

0 1
 6 -5.11809950805081 -1.82565880798080  0.43538841474147
 6 -4.84549486848685  2.97022347404740  1.47827421332133
 6 -9.35032494219422  3.29457025622562 -0.18939740764076
 6 -9.78282633713371 -1.56338714211421 -0.99011156455646
 7 -5.27513667596760  0.60355197809781  0.82561099809981
 6 -4.57898651475148 -0.58281500250025  0.91516495989599
 6 -3.03079276577658 -0.45951238593859  1.32587758355836
 6 -3.12609757515752  1.05158405070507  1.91580068586859
 6 -4.42314150725072  1.58689850775078  1.35556915391539
 6 -2.98621719021902  1.05927343964396  3.43460132273227
 6 -2.11175324602460 -0.64061402310231  0.24214215981598
 6 -0.63005621782178 -0.48034625122512  0.68293074577458
 6  0.34516817821782 -0.76953382628263 -0.53654521212121
 8 -0.00260849324932 -0.94923729032903 -1.70621423292329
 8  1.66991718881888 -0.86045281838184 -0.06836927962796
 7 -7.16942153675368  2.69652692449245  0.48891840104010
 6 -6.04356593199320  3.39496391469147  1.10354121102110
 6 -6.43061624732473  4.79800624012401  1.10085657845785
 6 -7.61755085188519  4.90029886538654  0.52997952535254
 6 -8.07547849374938  3.62899139283928  0.17358751415142
 6 -5.60555107160716  5.93975949104910  1.58101936793679
 6 -8.38527581028103  6.18406241784178  0.32580108140814
 6 -9.36634453265327  6.51615133703370 -0.60522300110011
 7 -9.18627682828283  0.81847908090809 -0.50674314271427
 6 -9.95394925782578  1.99133163186319 -0.50581985118512
 6 -11.31681554805481  1.70266382738274 -0.95564939883988
 6 -11.48182213271327  0.40019735983598 -1.22114706940694
 6 -10.07917014271427 -0.06989694139414 -0.88869211171117
 6 -12.23818231913191  2.86780528212821 -1.26654974527453
 6 -12.60414815431543 -0.44508698819882 -1.64104506420642
 6 -12.60719084978498 -0.69723298769877 -3.18986715801580
 7 -7.41826078367837 -1.25046673187319 -0.26945547404740
 6 -8.52228381588159 -2.08234696149615 -0.63461682408241
 6 -8.00279271827183 -3.44491137333733 -0.72055462276228
 6 -6.66252116121612 -3.35410223852385 -0.31100872477248
 6 -6.37477858125813 -1.90643346194619 -0.00481540534053
 6 -8.86238899649965 -4.62675342484248 -1.08496749114911
 6 -5.54151109630963 -4.22321735683568  0.04208515411541
 8 -5.40746023622362 -5.44037356745675 -0.05345261116112
 6 -4.30413804240424 -3.21324208580858  0.38397745984598
 6 -3.83508730663066 -3.76175026852685  1.73986051175117
 8 -4.22059713321332 -3.45879381328133  2.87842591069107
 8 -2.98812750035004 -4.88664363726373  1.51725215311531
 6 -2.64694939873987 -5.59678912501250  2.70774291389139
 6  2.67891005960596 -0.97671156875688 -1.13217724352435
 6  3.98799204600460 -0.54446494889489 -0.54113621372137
 6  4.97057931453145  0.09307036193619 -1.10394435103510
 6  5.00977017271727  0.66624735643564 -2.49821693849385
 6  6.27454920012001  0.22892063126313 -0.31735064926493
 6  7.56619786018602 -0.44582076497650 -0.97735460236024
 6  8.80485208630863 -0.14737872297230 -0.16636498399840
 6  10.08659958565857 -0.84487881448145 -0.77940529532953
 6  10.14771080968097 -2.41933573647365 -0.88275756065607
 6  11.31067491769177 -0.26586090079008  0.01931137543754
 6  12.63888556275628 -0.52006732393239 -0.63876839993999
 6  13.87871646104611  0.01814458825883  0.10729278477848
 6  15.20027893969397 -0.25785666716672 -0.47825138303830
 6  15.50504007580758 -1.77888675407541 -0.60399916821682
 6  16.32509325362537  0.51932644994499  0.31096011831183
 6  17.76282117091709  0.54847776547655 -0.25719962136214
 6  18.65274619891989  1.42168649754976  0.59456027222722
 6  20.12698460006001  1.49139694429443  0.13046477397740
 6  20.25377607650765  2.17346392249225 -1.20932901070107
 6  20.97348987028703  2.24781612041204  1.19832162036204
 1 -4.26248390869087  3.70101133313331  2.09481436233623
 1 -10.24833268636864  4.17611485358536 -0.34903622632263
 1 -10.49533378977898 -2.27707486298630 -1.37874734783478
 1 -2.91690401740174 -1.13253248844885  2.09150002570257
 1 -2.23298461296130  1.69322954615462  1.32963587578758
 1 -2.06964722272227  0.48353472187219  3.80500960496050
 1 -3.39594508640864  2.09373442314231  3.74510470567057
 1 -3.86141573847385  0.51319650415042  3.85382055825583
 1 -2.15241074947495 -1.55122985608561 -0.17898234543454
 1 -2.18993233263326 -0.03270707970797 -0.54912160636064
 1 -0.39413523332333  0.43386724032403  1.28450881218122
 1 -0.16963730303030 -1.20267222582258  1.55052256065607
 1 -4.82896771327133  6.23949831793179  0.88824162396240
 1 -6.25014022042204  6.92626754145415  1.64096339093909
 1 -5.13813189999000  5.68069611361136  2.51522565656566
 1 -8.27921293069307  6.98945882038204  0.99462101600160
 1 -9.43583893579358  5.77328748924892 -1.41506309240924
 1 -9.87987273387339  7.56151487898790 -0.53247347024702
 1 -12.38432279427943  3.75180436763676 -0.42953076617662
 1 -11.98607245554556  3.32060601800180 -2.10646996379638
 1 -13.33082410521052  2.27616545224522 -1.45756011141114
 1 -12.56561893509351 -1.49305823252325 -1.09876462756276
 1 -13.56380340484048  0.02912706740674 -1.49878223702370
 1 -12.67359298919892  0.30361717481748 -3.70792813711371
 1 -11.60221518951895 -1.36636421002100 -3.25386433853385
 1 -13.37061381488149 -1.51284037883788 -3.22034957725773
 1 -9.59123567236724 -4.70454977477748 -0.37708001000100
 1 -9.25809978887889 -4.35884383038304 -2.07299419761976
 1 -8.14383955865586 -5.48948721572157 -1.06068402390239
 1 -3.60655250665066 -3.31886817701770 -0.11343269186919
 1 -1.90449084208421 -6.46200129582958  2.18013134723472
 1 -2.29020746714671 -5.08359184308431  3.49444388698870
 1 -3.79695271167117 -6.08565365696570  3.04702157775778
 1  2.71495540304030 -2.11305894939494 -1.36207737473747
 1  2.47514240874087 -0.37284486528653 -2.17083485068507
 1  4.15856862856286 -0.91005331963196  0.32736063906391
 1  4.93659548874887  1.76115862486249 -2.28880360016002
 1  5.78445506270627  0.31976793929393 -3.12565396699670
 1  3.91173129132913  0.39892107890789 -3.09155998109811
 1  6.67609562576258  1.28512463746375 -0.09698989008901
 1  6.13392143684368 -0.35687557715772  0.48846655405541
 1  7.27936472137214 -1.45698242284228 -1.10150090969097
 1  7.68099764226423 -0.00059803920392 -2.02390721972197
 1  9.00330581798180  1.11416025732573 -0.34114396609661
 1  8.60510357315732 -0.28606275777578  1.02188500090009
 1  10.19015168376838 -0.26797424072407 -1.72229680468047
 1  9.33529384558456 -2.78651734493449 -1.50177872567257
 1  11.10215524662466 -2.79393099289929 -1.45728633353335
 1  10.16217123722372 -2.84353603920392  0.10215194589459
 1  10.97422271967197  0.75914469456946  0.08055664086409
 1  11.23693965746575 -0.89692492899290  0.96470640084008
 1  12.73053776437644 -1.53617518871887 -0.90625383838384
 1  12.52186033823382 -0.12076215521552 -1.69148068176818
 1  13.80216137103710  1.02194190499050  0.40814372527253
 1  13.90811503850385 -0.49251567936794  1.05378222412241
 1  15.33100544474447  0.06796800290029 -1.59883189648965
 1  14.84226977987799 -2.34515709750975 -1.09551888508851
 1  16.38264213771377 -2.02022605920592 -1.47873365726573
 1  15.72559783858386 -2.08415354795480  0.40954022542254
 1  15.96481675487549  1.65860243054305  0.42433289228923
 1  16.54134879167917  0.17509813311331  1.55031845444544
 1  18.09265048674867 -0.56276048654866 -0.24579444724472
 1  17.47467205280528  0.91303319161916 -1.25763419591959
 1  18.24850954045404  2.60151654755476  0.83547893759376
 1  18.48902115631563  1.11638744824482  1.64174132413241
 1  20.32106843924392  0.55156311731173  0.07532868906891
 1  19.84031138773878  3.39623789388939 -1.35266716911691
 1  21.27281452515252  2.07571564126413 -1.51865497209721
 1  19.74913988698870  1.66543216491649 -2.16032821432143
 1  20.90948618511851  1.43649511751175  2.17802883948395
 1  21.96232909010901  2.60827085448545  0.76671082818282
 1  20.40377000640064  3.29292249184918  1.73581231913191
 1 -7.21026285938594  1.75239411261126  0.50273211931193
 1 -7.55347689608961 -0.45512568856886 -0.18113824142414

