%nproc=3
%Mem=2GB
# td=(NStates=1) B3LYP/SVP 

TD

0 1
 6 -5.18548624672467 -1.96818306040604  0.53899877577758
 6 -4.83315363436344  2.70872732443244  1.64422080798080
 6 -9.27157706740674  3.30873167236724 -0.38543701160116
 6 -9.78927698219822 -1.41657246064606 -1.15626818021802
 7 -5.17236639893989  0.36111773467347  0.91182961996200
 6 -4.58002661876188 -0.86725344634463  0.89046248964896
 6 -3.00807049354936 -0.64898133283328  1.34632962876288
 6 -3.10449541494149  0.78445733803380  2.07002610841084
 6 -4.54185337843784  1.32816263416342  1.44900849784978
 6 -3.03676224472447  0.77984549684968  3.53826168876888
 6 -2.01885395609561 -0.76787674937494  0.26346429202920
 6 -0.52599581178118 -0.68557677427743  0.63347580028003
 6  0.34368803020302 -1.04793166606661 -0.53375493309331
 8  0.14281604920492 -1.74186655325533 -1.50386399789979
 8  1.65829602670267 -0.64129090219022 -0.19413185588559
 7 -6.98923351795179  2.66193346514651  0.47654716391639
 6 -5.95796737213721  3.32515693399340  1.17686854375438
 6 -6.34271745744574  4.78755519501950  1.24318081088109
 6 -7.54313341014101  4.91923075857586  0.58866539393939
 6 -7.98993993989399  3.64639313301330  0.08707886328633
 6 -5.46604712121212  5.89773528862886  1.86317758375838
 6 -8.35554283698370  6.15630964256426  0.48143664496450
 6 -8.99862776097610  6.60713043494349 -0.56308878767877
 7 -9.15143334393439  0.86642387538754 -0.70088255665567
 6 -9.86338020092009  2.09813231193119 -0.66204547374737
 6 -11.25176904340434  1.89040260126013 -1.08620245414541
 6 -11.41944589508951  0.53372071217122 -1.32884783948395
 6 -10.13021524722472 -0.02796274797480 -1.08629187168717
 6 -12.19810831173117  2.92761126272627 -1.36963005330533
 6 -12.51080882038204 -0.14914739423942 -2.03214417411741
 6 -12.31792192289229 -0.49601286568657 -3.52755092639264
 7 -7.48453741134113 -1.19603128832883 -0.31606013451345
 6 -8.55853744124413 -1.96719544634463 -0.79684304670467
 6 -8.14764720372037 -3.30455733793379 -0.76923949124912
 6 -6.87272218131813 -3.41118794709471 -0.28764638853885
 6 -6.50809191259126 -2.05828864746475 -0.05937086088609
 6 -9.02764552215221 -4.55633638313831 -1.08289728412841
 6 -5.68413535873587 -4.39910494559456  0.11977292289229
 8 -5.66735622582258 -5.57534706480648  0.11054378847885
 6 -4.59628725732573 -3.44139490109011  0.51057011911191
 6 -3.92031582948295 -3.77881197469747  1.82596912261226
 8 -4.23744881838184 -3.26165409930993  2.89996806490649
 8 -3.15568425602560 -4.80438541144114  1.54345477337734
 6 -2.66991169496950 -5.38715816191619  2.68898103770377
 6  2.66591876047605 -0.95729962756276 -1.04864889068907
 6  4.02501574837484 -0.51342184458446 -0.47618971907191
 6  4.92197445404540  0.22407346224622 -0.96017997459746
 6  4.92803199889989  0.74967569926993 -2.31413853065307
 6  6.31827357255726  0.43067080628063 -0.23341225542554
 6  7.54266550695070 -0.31527771067107 -0.81334820172017
 6  8.79571117221722 -0.31146513161316  0.08168982148215
 6  10.06240716641664 -0.79872419901990 -0.56430378517852
 6  9.94444048264826 -2.30109391229123 -0.63756304120412
 6  11.26015986618662 -0.18144245894589  0.21860130443044
 6  12.61550322452245 -0.54577989518952 -0.51054557765777
 6  13.83919250865087 -0.00930815701570  0.36589864536454
 6  15.18440735253525 -0.17683856535654 -0.39156271417142
 6  15.54505407720772 -1.59251811721172 -0.58693746204620
 6  16.34228497279728  0.52008652595260  0.30210923322332
 6  17.74531942074207  0.59720263796380 -0.36866076747675
 6  18.70277120142014  1.64310863976398  0.30180099629963
 6  20.08202010361036  1.64437224182418 -0.24016228872887
 6  20.09883058195820  2.31048762486249 -1.68553663146315
 6  21.09682220352035  2.29857119591959  0.71847363556356
 1 -4.11144880518052  3.38103933593359  2.14874975587559
 1 -9.90348820192019  4.20074731683168 -0.53445476817682
 1 -10.38484274067407 -2.06094324982498 -1.73681315441544
 1 -2.84945727272727 -1.47284651985199  2.04719559525953
 1 -2.33676499099910  1.54095431863186  1.67164007620762
 1 -2.14648490649065  0.20885725412541  3.90675977997800
 1 -3.08461395329533  1.89505455515552  3.88086828202820
 1 -3.83183278017802  0.19268445294529  3.92608778497850
 1 -2.30914642304230 -1.74446918001800 -0.22782722992299
 1 -2.16254959435944 -0.07227103610361 -0.50031672587259
 1 -0.49831565136514  0.49034288788879  1.02216257755775
 1 -0.12172251155116 -1.21106306490649  1.40799830823082
 1 -4.59060387688769  5.79252362046205  1.33332613241324
 1 -5.67654286068607  6.91797671237124  1.57885718031803
 1 -5.38922700950095  5.67140518451845  3.08584271827183
 1 -8.17490249964997  6.74630450495049  1.32656421032103
 1 -9.09691504340434  6.08418857935794 -1.41518310441044
 1 -9.50123487008701  7.71875060256026 -0.57494771767177
 1 -12.34360872287229  3.57604679187919 -0.29088690179018
 1 -12.01963581188119  3.55669962736274 -2.14766408320832
 1 -13.07129815261526  2.40673850955096 -1.69123347874788
 1 -12.80322269546955 -1.08513744044404 -1.40553530463046
 1 -13.51527855235524  0.48572272697270 -1.77293965276528
 1 -12.13840947084708  0.60080689378938 -3.90841818611861
 1 -11.41441640964096 -1.33789136273627 -3.62136108820882
 1 -13.27701445494549 -0.99140823562356 -3.80366790909091
 1 -9.92765931473147 -4.59063838363836 -0.33678598059806
 1 -9.48812279117912 -4.46329427542754 -2.04835173337334
 1 -8.38885406010601 -5.55293356035604 -1.25237319281928
 1 -3.78626047744775 -3.61737802800280 -0.39401074967497
 1 -2.17381777477748 -6.45529062476248  2.36095943004300
 1 -1.81232967936794 -4.60088357225723  3.00211465406541
 1 -3.72036505290529 -5.27468255985599  3.41220809640964
 1  2.70544445194520 -2.03930157365737 -1.22481364836484
 1  2.81514640914091 -0.53079065986599 -2.05393316051605
 1  4.25222799449945 -0.92635494979498  0.61637954095410
 1  5.51136296549655  1.70809331833183 -2.35079979977998
 1  5.62971958915892  0.15609157165717 -2.98022942454245
 1  4.04547466566657  0.84395558235824 -2.91110193529353
 1  6.36387440364036  1.53896002100210 -0.16850704180418
 1  6.08219626432643  0.17385749614961  0.92192990039004
 1  7.29183596849685 -1.31333805840584 -1.17871863146315
 1  8.22665220772077 -0.02247022642264 -1.79972480148015
 1  8.80132561996199  0.85789463076308  0.45844599289929
 1  8.69899296209621 -0.69488363986399  1.11866467886789
 1  10.05637830643064 -0.42607005030503 -1.56565114011401
 1  9.17887820402040 -2.69407810101010 -1.07320586838684
 1  10.97326235733573 -2.66712831263126 -0.98020862576258
 1  9.95866088618862 -2.64246593219322  0.50289201990199
 1  11.15176047344734  1.11423020312031  0.12998158335834
 1  11.13266923042304 -0.41426666316632  1.37764769496950
 1  12.69934464506451 -1.68812038323832 -0.86784999799980
 1  12.59981813401340  0.04524444544455 -1.35768730243024
 1  13.69983113801380  1.12351206200620  0.58148105900590
 1  13.95080930793079 -0.41048747654765  1.43577042294229
 1  14.98088043224322  0.38665987208721 -1.31198321162116
 1  15.01603715661566 -2.28738131993199 -1.31171050425042
 1  16.61572544604460 -1.56842087868787 -1.18850463436344
 1  15.52199747854785 -2.10621575417542  0.37346661806181
 1  16.25946621982198  1.46305287558756  0.67816827582758
 1  16.48516317311731  0.05100572387239  1.20713413601360
 1  18.04602582428243 -0.42461667216722 -0.28333820162016
 1  17.43929851545154  1.07675956425643 -1.26151458395840
 1  18.34881957145715  2.57785418131813  0.16781217091709
 1  18.58558081228123  1.34306011551155  1.46502365236524
 1  20.25628196059606  0.48629659065907 -0.20372921672167
 1  19.56637399399940  3.35319358945895 -1.66194809720972
 1  21.07005424912491  2.35662373207321 -1.92919602620262
 1  19.72777775077508  1.59558518021802 -2.41296347784778
 1  21.10833607010701  1.73839530753075  1.79162019861986
 1  22.15674853205321  2.44050407780778  0.31530568766877
 1  20.72610223962396  3.44805800540054  0.80965970387039
 1 -7.05800763386339  1.85464433763376  0.41676352245225
 1 -7.45442699109911 -0.11800197619762 -0.43113324092409

