%nproc=3
%Mem=2GB
# td=(NStates=1) B3LYP/SVP 

TD

0 1
 6 -5.14618231633163 -2.07525376747675  0.50203507940794
 6 -4.67562788178818  2.69733618531853  1.54888127402740
 6 -9.14995490519052  3.39699049824983 -0.33056152405241
 6 -9.78394644914491 -1.34072487588759 -0.93561611501150
 7 -5.16628579087909  0.34421604450445  0.93207164416442
 6 -4.45116373247325 -0.84083080408041  0.92878632203220
 6 -3.02525221172117 -0.67823425812581  1.38913390919092
 6 -3.10530549594960  0.70135902820282  2.01336044184418
 6 -4.36379557265727  1.21751156905691  1.47807140414041
 6 -3.19093766226623  0.62901041334133  3.52560042264226
 6 -2.05120719141914 -0.74526448814881  0.23080102570257
 6 -0.54298751095110 -0.78355657225723  0.74537699039904
 6  0.35633929532953 -1.08027490039004 -0.41679323692369
 8 -0.01319955235524 -1.42722508910891 -1.51983559505951
 8  1.69986018311831 -0.86641341444144 -0.08227066976698
 7 -7.02768736333633  2.71892916471647  0.57267677687769
 6 -5.90126170157016  3.35030944924492  1.12417327422742
 6 -6.07612079777978  4.72580902040204  1.04924141694169
 6 -7.38435753255326  4.96783561906191  0.56672319971997
 6 -7.93767471337134  3.63990248394839  0.16837699309931
 6 -5.23740425692569  5.87354286938694  1.61873313931393
 6 -7.93534081678168  6.29990400200020  0.27105560686069
 6 -8.72358025622562  6.70466018791879 -0.71799427822782
 7 -9.17350555115511  0.87381461446145 -0.54363683208321
 6 -9.69711357425743  2.08327082578258 -0.70717998719872
 6 -10.98159202570257  2.03860742174217 -1.34108794269427
 6 -11.25055900640064  0.68580592069207 -1.36345129982998
 6 -10.03149537523752 -0.03141309300930 -0.87040028252825
 6 -11.93327182808281  3.15889439103910 -1.58838192849285
 6 -12.48726646614661 -0.03720620012001 -1.79475043474347
 6 -12.65523565426543 -0.31641490589059 -3.33586175747575
 7 -7.46355531313131 -1.27032871807181 -0.13530205870587
 6 -8.56877846534653 -1.93776250305031 -0.61947530993099
 6 -8.23233567256726 -3.37702458465847 -0.75020758805881
 6 -6.87120202930293 -3.45418224652465 -0.29806743064306
 6 -6.41812291569157 -2.13323614221422  0.08963403960396
 6 -9.04328708630863 -4.48444919441944 -1.31052004640464
 6 -5.81230817601760 -4.35085012011201  0.05353629922992
 8 -5.75045453565357 -5.57548707880788 -0.16557382328233
 6 -4.62674030263026 -3.48526928852885  0.60187925002500
 6 -4.10831462936294 -3.98494258775878  1.88236476217622
 8 -4.43086816031603 -3.51472940684068  2.92927099519952
 8 -3.23925261286129 -4.92410738363836  1.65789621752175
 6 -2.63382808660866 -5.54888433453345  2.82845498509851
 6  2.70352252085209 -1.26282017961796 -1.01171519731973
 6  3.94826807360736 -0.76109661206121 -0.43133523362336
 6  4.92103436003600  0.00181123602360 -1.02644660126013
 6  4.74804400010001  0.73926465816582 -2.32335945274527
 6  6.22411415661566  0.34443218241824 -0.23080199439944
 6  7.40466170657066 -0.28285446834683 -0.93520038693869
 6  8.72710431153115 -0.31972595769577 -0.05337368486849
 6  9.96911783748375 -0.83793812041204 -0.79508686348635
 6  9.94844088268827 -2.30826462936294 -0.96465575047505
 6  11.28095194539454 -0.37710202490249  0.00752019631963
 6  12.66367804200420 -0.55785110231023 -0.65237976107611
 6  13.81518010741074 -0.02386961316132  0.13831588708871
 6  15.29933884568457 -0.10854173567357 -0.43874743264326
 6  15.62059163096310 -1.65382424782478 -0.49045781408141
 6  16.21839258355836  0.73743826112611  0.38347737003700
 6  17.64382927172717  0.74971788948895 -0.17000090149015
 6  18.44662558685869  1.89636396529653  0.37818863506351
 6  19.89658155975598  1.88346615121512 -0.08176644914491
 6  20.11202190109011  2.34863143924392 -1.51449952775278
 6  20.79983250455046  2.77644898369837  0.88289007720772
 1 -4.01009867016702  3.20946217821782  2.13698857975798
 1 -10.02432028512851  4.14455169726973 -0.52147347004700
 1 -10.65632988938894 -1.86715387088709 -1.34553402650265
 1 -2.94373670067007 -1.49606884208421  2.20468134383438
 1 -2.24412572707271  1.41528175137514  1.77690060226023
 1 -2.22740299829983  0.13936030443044  3.94088319231923
 1 -3.03633912581258  1.75186023572357  4.03110330553055
 1 -3.98021761866187  0.10228541304130  3.90108528472847
 1 -2.22380788918892 -1.80643537663766 -0.20847529472947
 1 -2.23965730513051  0.11281747274727 -0.51528822302230
 1 -0.31925774557456  0.25899975357536  1.15817617891789
 1 -0.69846018531853 -1.84802676127613  1.26017352575257
 1 -4.09796461296130  6.01578594669467  1.13546634643464
 1 -5.79261446784678  6.76027094179418  1.85033432803280
 1 -4.67425551235123  5.82472051605161  2.55361949594959
 1 -7.38903391279128  7.18584845934593  0.84041559545955
 1 -9.27299265116512  5.96490665116512 -1.42555414151415
 1 -8.94376912351235  7.86352508000800 -0.67300752365237
 1 -12.25120948294830  3.63349253645365 -0.65216302940294
 1 -11.34132798109811  4.05326928432843 -2.40013933073307
 1 -12.88225924872487  2.85474331003100 -1.93093744914491
 1 -12.60909328252825 -0.86315524222422 -1.30226497759776
 1 -13.30760778527853  0.52494664936494 -1.51757411621162
 1 -12.32439806970697  0.84947176027603 -3.59906725102510
 1 -11.85581054905491 -1.02639021262126 -3.52724167626763
 1 -13.53452020552055 -0.83313240804080 -3.81432897519752
 1 -9.99647619641964 -4.67848716851685 -0.71574387638764
 1 -9.28158213711371 -4.40944889088909 -2.49014591279128
 1 -8.30449562426243 -5.25285355235524 -1.06700465596560
 1 -3.87764961636164 -3.46707299749975 -0.24551590019002
 1 -2.18177857085709 -6.51974707040704  2.26331966606661
 1 -1.94172261866187 -4.69284276817682  3.29307374997500
 1 -3.17569058545855 -5.69534462606261  3.70562743834383
 1  2.88335224272427 -2.49941758525853 -1.23300446744675
 1  2.54352924742474 -0.69966754755475 -1.93074084128413
 1  4.23397616931693 -1.13430574487449  0.53850175317532
 1  4.91675350455045  1.79180168916892 -2.05755047484748
 1  5.23797041424142  0.34261022352235 -3.22567396899690
 1  3.68385850405041  0.76891807860786 -2.71839266436644
 1  6.42727074327433  1.43430955595559  0.01946175507551
 1  6.35550359505951 -0.15824571417142  0.88970667806781
 1  7.14536132103210 -1.41880860546055 -1.22501326092609
 1  7.61046058855886  0.30643266386639 -1.86588141714171
 1  9.01229671707171  0.76467530883088  0.44207435573557
 1  8.66873993679368 -0.93381753325333  0.92571538393839
 1  10.09340200880088 -0.30972841614161 -1.71454602960296
 1  9.17269758595860 -2.59662835603560 -1.60560910871087
 1  10.75260029112911 -2.62813441324132 -1.55446605150515
 1  9.97031205130513 -2.99933161876188  0.07597932863286
 1  11.16553185058506  0.73295207530753  0.40486907210721
 1  11.21961792529253 -0.74530976747675  0.99908983918392
 1  12.86420113071307 -1.51828339953995 -0.77785099809981
 1  12.65339349154915 -0.02396247524753 -1.80289182288229
 1  13.33471462636264  0.96169588038804  0.31123403430343
 1  13.78770299729973 -0.49615604340434  1.09716656255626
 1  15.05593793799380  0.26855806190619 -1.47501951525153
 1  14.79001455435544 -2.30232281408141 -0.93959329252925
 1  16.64069794329433 -1.91979601620162 -0.88366415031503
 1  15.37747302610261 -1.96192132473247  0.65654492589259
 1  15.92186245944595  1.75598216851685  0.58502896189619
 1  16.40415507230723  0.50267089038904  1.54517794039404
 1  18.18089931163116 -0.21134534503450 -0.00666053385339
 1  17.43667825342534  0.80215210351035 -1.42674110661066
 1  17.89274396389639  2.91452784868487  0.27343273297330
 1  18.60882313651365  1.85323113261326  1.40537768776878
 1  20.20978731113111  0.86169413041304 -0.03874271807181
 1  19.28256561316132  3.24842311241124 -1.83363526592659
 1  21.09714695839584  2.40262833253325 -1.81672477907791
 1  19.57789276227622  1.63999962166217 -2.23113529502950
 1  20.73131836833684  2.35385685368537  1.88597963456346
 1  21.81023388058806  2.69392942034203  0.66866102320232
 1  20.46829645904591  3.77988118771877  0.63180191809181
 1 -7.07742957605761  1.71926079927993  0.40801264736474
 1 -7.35529707810781 -0.29835001100110 -0.22693282088209

