%nproc=3
%Mem=2GB
# td=(NStates=1) B3LYP/SVP 

TD

0 1
 6 -5.11978967706771 -1.84675091719172  0.47141201710171
 6 -4.83442376137614  2.75198164986499  1.42324871077108
 6 -9.34289419911991  3.33903470267027 -0.27954642254225
 6 -9.79588764326433 -1.40143094649465 -0.97848040144014
 7 -5.11039020132013  0.45744736763676  0.76158459545955
 6 -4.48695731183118 -0.69305602660266  0.79979342274227
 6 -3.00903058955896 -0.52171860656066  1.17166216201620
 6 -3.08354331973197  0.93562245454545  1.75996510231023
 6 -4.42354154725473  1.39709952785279  1.28376197319732
 6 -2.87023559205921  1.00238775107511  3.30148801140114
 6 -2.03128519921992 -0.68891885358536  0.12291023662366
 6 -0.57020023222322 -0.92377059365937  0.55269772247225
 6  0.26990065146515 -1.02089896279628 -0.66249780738074
 8  0.04810657825783 -1.46223859045905 -1.67934154565457
 8  1.70574077117712 -0.77088386148615 -0.31925436813681
 7 -7.11200579517952  2.69626689848985  0.52136164536454
 6 -6.03071464686469  3.29926434473447  1.01009186608661
 6 -6.34506769246925  4.73035947544755  1.00001649444944
 6 -7.61078017481748  4.88559739523952  0.59571609900990
 6 -8.14370531643164  3.60629912361236  0.23495365076508
 6 -5.44389490599060  5.81422693779378  1.59718098409841
 6 -8.26958424112411  6.23106711831183  0.51188969026903
 6 -8.92310020822082  6.68168789068907 -0.56026850565057
 7 -9.26056425702570  0.92545977897790 -0.37341981038104
 6 -9.92915677857786  2.03746624532453 -0.54398366756676
 6 -11.31681554805481  1.88401196219622 -0.94762859675968
 6 -11.48734268476848  0.56768410851085 -1.20556551125113
 6 -10.07349957565756 -0.02240219191919 -0.80282352485249
 6 -12.34682318321832  2.95034353595360 -1.03352644294429
 6 -12.59240698019802 -0.27473995349535 -1.69931089078908
 6 -12.60173030373037 -0.61303456785679 -3.15970414171417
 7 -7.45709466706671 -1.24033571877188 -0.31504003250325
 6 -8.54258584608461 -1.97758648544854 -0.81016437883788
 6 -8.22428486748675 -3.41039792199220 -0.74868743604360
 6 -6.84519942904290 -3.36332316061606 -0.30045766966697
 6 -6.44790589398940 -2.01390420902090  0.07337241344134
 6 -9.01954471207121 -4.66872762226223 -1.11878087248725
 6 -5.80700764596460 -4.31554658975898  0.09724066966697
 8 -5.58206769696970 -5.53277280738074  0.11383411751175
 6 -4.61492912151215 -3.33056381798180  0.52900196229623
 6 -3.89223302120212 -3.76309040254025  1.81250777647765
 8 -4.18391346484648 -3.38497643154315  2.92471053915392
 8 -2.97250593819382 -4.74760973387339  1.55960638853885
 6 -2.46635133893389 -5.33601304740474  2.73259539913991
 6  2.73268543714371 -1.16829072667267 -1.14842886868687
 6  4.08487173397340 -0.65564606700670 -0.65673777387739
 6  4.98243049964996  0.04788584348435 -1.19807376397640
 6  4.93198239393939  0.71190192189219 -2.57622473927393
 6  6.18026977217722  0.34600233943394 -0.42216113031303
 6  7.49021026142614 -0.42048823172317 -0.97114398129813
 6  8.79564116521652 -0.21516550165017 -0.03133148064806
 6  10.05902682838284 -0.59130345694569 -0.75895325012501
 6  10.14078011661166 -2.15151895479548 -1.03867315221522
 6  11.29819366956696 -0.24656897159716  0.12323176747675
 6  12.70125179937994 -0.63910922812281 -0.35588011111111
 6  13.84300288968897 -0.12464969116912  0.43570562606261
 6  15.26268518031803 -0.25977685918592 -0.14660821872187
 6  15.78566813861386 -1.69136800220022 -0.33887265556556
 6  16.26825757005701  0.58358287558756  0.51129015131513
 6  17.66065095389539  0.60830374807481 -0.08631253265327
 6  18.68518944324432  1.52794712361236  0.57898871507151
 6  20.05850775237524  1.67527533213321 -0.04387265976598
 6  20.04228492739274  2.31899847594759 -1.46534461226123
 6  21.05239776107611  2.40634197299730  0.94633642184218
 1 -4.13987164746475  3.44023525552555  1.95661054195420
 1 -10.07258511161116  4.25820306240624 -0.75525684838484
 1 -10.55692994939494 -1.97110426592659 -1.67468694179418
 1 -3.03245557255726 -1.35719495469547  1.97583845954595
 1 -2.21897321182118  1.47763798699870  1.23756666886689
 1 -1.89577983598360  0.79392576097610  3.52488159215922
 1 -3.02467795969597  2.03274832453245  3.63158335353535
 1 -3.66580617751775  0.23452863736374  3.65569074527453
 1 -2.22945845424542 -1.83997873097310 -0.43589803700370
 1 -2.15682902230223  0.27836402740274 -0.71978867306731
 1 -0.25255107490749 -0.03903004940494  1.10511087238724
 1 -0.37253759305931 -1.95750770937094  1.29146665506551
 1 -4.69079389588959  6.25506987508751  0.92931573137314
 1 -5.99925513191319  6.77560247494749  2.15767506210621
 1 -4.91311939873987  5.18673671767177  2.50705483948395
 1 -8.05835084448445  7.03208308280828  1.36673822772277
 1 -8.99177452935294  6.03965412591259 -1.30422200830083
 1 -9.34301904850485  7.60264899239924 -0.60062028492849
 1 -12.30513487548755  3.54876406360636  0.02129431633163
 1 -11.81184503280328  3.67072102950295 -1.78780809760976
 1 -13.47445846864686  2.55501333703370 -1.33867822322232
 1 -12.48357073027303 -1.18521744844484 -1.13276802790279
 1 -13.32646967146715  0.33909806450645 -1.43439579837984
 1 -12.59260489038904  0.43013982708271 -3.86232357665767
 1 -11.85610057805781 -1.41429900350035 -3.56438539063906
 1 -13.66881363486349 -1.10066916171617 -3.42661020332033
 1 -9.97850439923992 -4.69525884568457 -0.61048335033503
 1 -9.22158613751375 -4.73807175317532 -2.31856875507551
 1 -8.21172634733473 -5.40591885888589 -0.88748670417042
 1 -3.83970582198220 -3.57207349754976 -0.31917326592659
 1 -1.74691508450845 -6.08628372407241  2.33823715781578
 1 -1.82352079847985 -4.57337082098210  3.36051049364937
 1 -3.38408142454245 -5.78262335393539  3.21896877247725
 1  2.69026293379338 -2.25484312781278 -1.33653482048205
 1  2.28958385288529 -0.70795837663766 -2.09264703190319
 1  4.18303107480748 -0.97148946324632  0.34864276727673
 1  4.84507633683368  1.87693020202020 -2.22098681848185
 1  5.85109172637264  0.40504646714671 -3.03375477707771
 1  4.19845996419642  0.29711089788979 -3.27412823792379
 1  6.31397941414141  1.59691581658166 -0.40463065416542
 1  6.10545859055906  0.18909902030203  0.82639034643464
 1  7.23349013391339 -1.44412113671367 -0.97419817941794
 1  7.79936947944794  0.10908292889289 -2.03478830783078
 1  8.68616410381038  0.90697953925393  0.09008915721572
 1  8.59710277307731 -0.65749990149015  0.85087790019002
 1  9.91910457905790 -0.01128857215722 -1.81962653765377
 1  9.19256957315732 -2.69573826702670 -1.56186473427343
 1  11.00091512261226 -2.37465906570657 -1.71163176807681
 1  10.30124514461446 -2.92025371097110 -0.21711998129813
 1  11.26905220262026  0.79562834293429  0.21489007420742
 1  11.16442240574058 -0.63638887538754  1.02595252545255
 1  12.66818152875287 -1.75620719191919 -0.62509572257226
 1  12.92854100630063 -0.03242332133213 -1.29497103080308
 1  13.85184633953395  1.08792850365036  0.60206311721172
 1  13.79546377337734 -0.47825425322532  1.44236108200820
 1  14.93169551375138  0.03813501960196 -1.26971898519852
 1  14.86991254415442 -2.30316289808981 -0.75950528372837
 1  16.61074494799480 -1.70739477607761 -1.07069285318532
 1  16.19767504630463 -2.27987311991199  0.55903517491749
 1  15.78405867906791  1.57988455875587  0.57931839083908
 1  16.21188584538454  0.05649627292729  1.53557698029803
 1  18.23111433313331 -0.44177838833883 -0.10222008980898
 1  17.42950753635364  0.94941682998300 -1.12027045954595
 1  18.09471416091609  2.42591898779878  0.54132952265226
 1  18.67758001220122  1.36881269076908  1.62621977197720
 1  20.41712804520452  0.55931389238924 -0.25768461226123
 1  19.74758211481148  3.39395766586659 -1.26783868626863
 1  21.01568881258126  2.34301237093709 -1.90998410501050
 1  19.15734070707071  1.86222184388439 -2.14063624512451
 1  21.00969620612061  1.73837530553055  1.76372740934093
 1  21.96051890909091  2.51135116251625  0.33170732783278
 1  20.75166479587959  3.26834003360336  1.32073081098110
 1 -7.24684651775177  1.65171404460446  0.49672151825183
 1 -7.55234678307831 -0.20844102010201 -0.35768589618962

