%nproc=3
%Mem=2GB
# td=(NStates=1) B3LYP/SVP 

TD

0 1
 6 -5.07689538763876 -1.92727896999700  0.52321719761976
 6 -4.81469178817882  2.72933938563856  1.37807419331933
 6 -9.38436834653465  3.24681548074807 -0.28982745064506
 6 -9.84524257875788 -1.53294409780978 -0.76978953235324
 7 -5.21058022032203  0.44996661956196  0.93364180118012
 6 -4.50320893699370 -0.73002972397240  0.85993943734373
 6 -3.06848653515352 -0.49059549424942  1.25215021082108
 6 -3.06434139953995  0.96859575187519  1.88959806560656
 6 -4.47296648974897  1.42251206910691  1.30822441944194
 6 -3.08704727322732  0.98514602690269  3.42401026362636
 6 -2.05665773647365 -0.59003896559656  0.02709065466547
 6 -0.56401961416142 -0.79923814041404  0.53840629332933
 6  0.29956361776178 -0.97836470937094 -0.64653621122112
 8 -0.00922915531553 -1.48308067466747 -1.75612922442244
 8  1.57460765786579 -0.60532730583058 -0.40830327302730
 7 -7.09730432503250  2.76145341714171  0.55716522572257
 6 -5.99307088248825  3.37595201350135  1.00976183308331
 6 -6.30733391909191  4.90188662816282  0.93113960676068
 6 -7.60475957275728  4.98723755925593  0.52150867826783
 6 -8.11993293919392  3.60938943264326  0.19162931833183
 6 -5.23598411491149  5.91802731783178  1.39046031203120
 6 -8.33911119381938  6.27512152375237  0.27656615791579
 6 -9.15212311051105  6.53355307720772 -0.71865434423442
 7 -9.24496269686969  0.86423365636564 -0.38240070847085
 6 -9.94604846774677  1.95004750345035 -0.59565883508351
 6 -11.29305317181718  1.77960152115212 -1.05610944484448
 6 -11.40044399489949  0.43907124722472 -1.17947290199020
 6 -10.10541276697670 -0.17273722542254 -0.77751099359936
 6 -12.20824932583258  2.92269077067707 -1.08366145644564
 6 -12.65378311781178 -0.21728420792079 -1.63591455115512
 6 -12.77261739243924 -0.47335059945995 -3.12602077337734
 7 -7.53106206380638 -1.33685537073707 -0.05380390889089
 6 -8.65169675717572 -2.09632835963596 -0.46132949534953
 6 -8.13371581058106 -3.55985286748675 -0.66223879117912
 6 -6.72893780288029 -3.40941777007701 -0.28713633753375
 6 -6.46752785618562 -2.06651947054705  0.09381445764576
 6 -8.94941769936994 -4.65565631513151 -1.09072806720672
 6 -5.68444538973897 -4.24674971007101  0.08710965656566
 8 -5.53143263346335 -5.46304583468347  0.05863859795980
 6 -4.42254988358836 -3.27681844344434  0.43890295239524
 6 -3.81493529142914 -3.71681577507751  1.80508703440344
 8 -4.03369844334433 -3.30131806570657  3.00497856595660
 8 -2.86384507210721 -4.68303327622762  1.54536496439644
 6 -2.13970867466747 -5.31424087018702  2.74726686628663
 6  2.66023819241924 -0.88415231283128 -1.35741976777678
 6  3.98434168096810 -0.61953245564556 -0.66432853295330
 6  5.07624988158816  0.15359641454145 -1.01969592619262
 6  4.96135533123312  0.91908263996400 -2.37181429822982
 6  6.33105485068507  0.21189892909291 -0.31289020322032
 6  7.51717295769577 -0.30484666756676 -1.05513238013801
 6  8.86276787788779 -0.34735872097210 -0.17420576807681
 6  10.16362728842884 -0.80638496509651 -0.91477883268327
 6  10.04675071367137 -2.25475927882788 -1.20315960086009
 6  11.31759560976098 -0.47465177987799 -0.02984354005401
 6  12.64805647984799 -0.73169848704870 -0.70653517661766
 6  13.83414200360036 -0.14409163536354  0.16339839533953
 6  15.20675958775877 -0.20050093159316 -0.43251680958096
 6  15.59438901070107 -1.61101996739674 -0.81478024632463
 6  16.24294503880388  0.44144866216622  0.42270129242924
 6  17.60747563636364  0.66544946264626 -0.12578648004800
 6  18.60013093739374  1.46371069997000  0.89012982918292
 6  20.00524242584259  1.67012481708171  0.28513024052405
 6  20.04203490239024  2.49166574267427 -1.04731280908091
 6  20.91606412771277  2.18879021782178  1.40113190139014
 1 -4.15725338563856  3.49059029102910  1.65316019691969
 1 -9.86254410751075  4.25301254335434 -0.02835415811581
 1 -10.49552380878088 -2.18348550405041 -1.26749622272227
 1 -2.71870419741974 -1.15132436763676  1.87076795249525
 1 -2.52861417591759  1.75716593979398  1.37859077127713
 1 -1.96258651665166  0.70746711511151  3.61972107610761
 1 -3.01815730763076  2.12263731343134  3.67568776397640
 1 -3.88880847774777  0.22745793029303  3.67069224542454
 1 -2.23593910231023 -1.57632236533653 -0.45901034823482
 1 -2.12194553395340  0.26079227022702 -0.51109780398040
 1 -0.04415023482348  0.09071292489249  1.00529089038904
 1 -0.26606694599460 -1.80291224982498  1.03908141654165
 1 -4.69538435493549  6.12933730183018  0.44193699349935
 1 -5.81677688408841  6.95412032673267  1.91259055365537
 1 -4.59641772857286  5.57778582258226  2.23768790279028
 1 -8.36155116451645  7.18833870837084  1.00898245214521
 1 -9.57937328922892  5.91395155565557 -1.48119970607061
 1 -9.84117886448645  7.49871859935994 -0.89694991789179
 1 -12.05791015301530  3.72405159235924 -0.23636144924492
 1 -12.06137998629863  3.39384334173417 -2.32887220402040
 1 -13.25179620242024  2.66512434813481 -0.99883423882388
 1 -12.90241261446145 -1.09004793149315 -1.03148789988999
 1 -13.64303132763276  0.25136929162916 -1.29506186498650
 1 -12.70014564446445  0.42274908800880 -3.65531287558756
 1 -11.86392136013601 -1.01834940854085 -3.55820477257726
 1 -13.73906065956596 -0.88696779157916 -3.38167570987099
 1 -10.09076562536254 -4.68584790459046 -0.44217651965197
 1 -9.10394437333733 -4.65311325732573 -2.17873477167717
 1 -8.47957313201320 -5.79874814181418 -1.03736169166917
 1 -3.72375422682268 -3.46340263046305 -0.24193554215421
 1 -1.82061245424543 -6.37112220792079  2.05485881998200
 1 -1.23092153855385 -4.64195767966797  3.04069851245125
 1 -2.85183820022002 -5.72207729932993  3.54192106770677
 1  2.70168407590759 -2.03012065556556 -1.55730689768977
 1  2.62057695219522 -0.21182876367637 -2.20772854005401
 1  4.25207797949795 -1.05429774407441  0.41773967696770
 1  5.76626845604560  1.93396590559056 -2.20907562736274
 1  5.14527114431443  0.11262722522252 -3.23202460406041
 1  3.74200431863186  1.41301248804881 -2.71673249834984
 1  6.54276229242924  1.35831195619562  0.09885969486949
 1  6.27952599729973 -0.45930582018202  0.72467017441744
 1  7.42268905380538 -1.44907163176318 -1.53437419701970
 1  7.83290283278328  0.11888390899090 -2.15270009900990
 1  9.07395288268827  0.65550439173917  0.17170731903190
 1  8.79442250505051 -0.74884903640364  0.64818763116312
 1  10.54917758635864 -0.11437888118812 -1.87162173717372
 1  9.24166448264826 -2.49251794499450 -1.92747129492949
 1  10.82165719681968 -2.78801040084008 -1.78197880278028
 1  9.87191221132113 -2.94990667626763 -0.30891916121612
 1  11.21585688308831  0.63652243234323  0.30357894309431
 1  11.34778074157416 -1.06737197369737  1.07074700490049
 1  12.74280899149915 -1.77289886108611 -1.24703791679168
 1  12.76979513171317 -0.21112119111911 -1.58264979867987
 1  13.57692884778478  0.90689039983998  0.41456436733673
 1  13.73299752675267 -0.67103353115312  1.06753359925993
 1  15.14454679887989  0.33456466256626 -1.33675568886889
 1  14.91140669356936 -1.98373095489549 -1.48286761996200
 1  16.60285415891589 -1.77317135373537 -1.07704348824882
 1  15.55335061386139 -2.55504063666367 -0.02008273687369
 1  15.88161843504350  1.54977154745475  0.58710916991699
 1  16.38607326412641 -0.03830320702070  1.38365178777878
 1  18.10544176587659 -0.31743595409541 -0.45150501830183
 1  17.71113569916992  0.95172706100610 -1.14718315081508
 1  18.01677636713671  2.50586698259826  1.12271766146615
 1  18.65585783998400  0.97254306380638  1.86189333933393
 1  20.25163149554956  0.52069003000300  0.04164532073207
 1  19.68270562716272  3.63657192729273 -0.88863076547655
 1  21.13636087978798  2.50657872757276 -1.29991309790979
 1  19.49019399239924  1.93815943764376 -2.01762394389439
 1  21.04196943344335  1.38963043104310  2.18209924652465
 1  21.87395025222522  1.82789281668167  1.04367852495250
 1  20.60802043144314  3.14485768536854  1.77821655955595
 1 -7.24255608870887  1.67447632083208  0.41020286638664
 1 -7.84823637203720 -0.38012818881888  0.28735860826083

