%nproc=3
%Mem=2GB
# td=(NStates=1) B3LYP/SVP 

TD

0 1
 6 -5.06906460456046 -1.84210045214521  0.40915579147915
 6 -4.79794011301130  2.79459591129113  1.45845223112311
 6 -9.34159406910691  3.26031683088309 -0.05729419731973
 6 -9.92318037253725 -1.42415321872187 -0.76917947134713
 7 -5.21066022832283  0.42973459635964  0.76937537453745
 6 -4.48670728682868 -0.70887760876088  0.71975541894189
 6 -3.03372305880588 -0.60448688338834  1.19479447524752
 6 -3.10936590199020  0.87132602490249  1.82450155595560
 6 -4.43613280638064  1.42043186108611  1.27311090809081
 6 -2.78746731523152  0.82899041134113  3.29341720432043
 6 -2.13723579427943 -0.61300126182618  0.02889083468347
 6 -0.61588480068007 -0.80794901150115  0.38686113881388
 6  0.33195685708571 -0.98745561846185 -0.71461301890189
 8 -0.12980121252125 -1.28125049164916 -1.86264987648765
 8  1.68978917601760 -0.85645241834183 -0.34771721442144
 7 -7.01122571717172  2.76430370217022  0.58355786498650
 6 -5.85692726812681  3.40464488278828  0.97577843474347
 6 -6.21799498519852  4.76448288778878  0.98574506730673
 6 -7.52284138093809  4.88525736123612  0.50885741314131
 6 -8.01588253415342  3.55558405210521  0.22226238163816
 6 -5.22725324182418  5.83929944504450  1.44904617061706
 6 -8.22106938963896  6.21394540614061  0.44022252355236
 6 -9.10775867406741  6.63204292619262 -0.54882736153615
 7 -9.16009421002100  0.92094932793279 -0.47764023242324
 6 -9.85316917981798  2.05494799349935 -0.55087435663566
 6 -11.31576544304430  1.92583614461446 -0.88634246814681
 6 -11.39959390989099  0.54496183628363 -1.10864581928193
 6 -10.11309353505350 -0.08159811151115 -0.75484872737274
 6 -12.32196069696970  2.97758626022602 -1.04585767606761
 6 -12.57774551405140 -0.24953743324332 -1.55471643134313
 6 -12.82872300300030 -0.50341360576058 -3.01514968626863
 7 -7.59346830443044 -1.26437812301230 -0.09271780028003
 6 -8.67293888138814 -2.05542426922692 -0.56213957635764
 6 -8.12348478747875 -3.35908279047905 -0.60078264556456
 6 -6.77204211331133 -3.33355018331833 -0.28860648454845
 6 -6.44054515791579 -1.98078089668967  0.03303838003800
 6 -8.94958771637164 -4.67039778927893 -0.93063205760576
 6 -5.63501044624462 -4.29059409450945 -0.12384143854385
 8 -5.59166865706571 -5.50706023612361 -0.25666293219322
 6 -4.42089971857186 -3.31073183478348  0.48933799589959
 6 -3.94244804270427 -3.74403849734973  1.84289081478148
 8 -4.27144221772177 -3.28546648054805  2.87710577867787
 8 -3.16305499309931 -4.83703867676768  1.56694712261226
 6 -2.63269797359736 -5.40328977507751  2.77638977857786
 6  2.70757292589259 -1.25543944154415 -1.27897192299230
 6  3.98399164596460 -0.84162466486649 -0.67911001110111
 6  4.98919117571757 -0.07515646074607 -1.37335129172917
 6  4.94013320902090  0.44871560326033 -2.74854197099710
 6  6.26265801100110  0.15748348754875 -0.62586150035003
 6  7.58566980738074 -0.51601778467847 -1.15838270517052
 6  8.81206280738074 -0.24209819491949 -0.24812315981598
 6  10.13903482918292 -0.77891221782178 -0.82153950875088
 6  10.13618965756576 -2.31169497239724 -0.89848913381338
 6  11.24467831803180 -0.16006032073207  0.11272071637164
 6  12.72569424362436 -0.40352566976698 -0.46642116521652
 6  13.83353194259426  0.22862563636364  0.29437149264927
 6  15.23118203000300 -0.17317819931993 -0.32308586648665
 6  15.47514708650865 -1.71492035743574  0.00712194389439
 6  16.17259800410041  0.77881239853985  0.42754177647765
 6  17.76205109390939  0.72694561226123 -0.14515841724172
 6  18.68364928922892  1.66868119701970  0.70179099529953
 6  20.16488839043904  1.61546935153515  0.15297702520252
 6  20.15529622852285  2.31189776587659 -1.20817889568957
 6  21.08415093639364  2.36011735053505  1.20431221942194
 1 -4.01008866916692  3.54267549954996  1.96955183608361
 1 -10.04795264836484  4.13507074917492  0.00309898719872
 1 -10.73153741014101 -2.12739989548955 -0.97135660876088
 1 -2.81243357035704 -1.23995323052305  1.86815769146915
 1 -2.30511182568257  1.36389661286129  1.39938285048505
 1 -1.78328858685869  0.37890425882588  3.46659576357636
 1 -3.15254074597460  1.78711376107611  3.77395759095910
 1 -3.75244484138414 -0.03276809230923  3.79783495969597
 1 -2.17443295169517 -1.51083581668167 -0.73850829802980
 1 -2.32398573797380  0.28322451345135 -0.55179187338734
 1 -0.32102792259226  0.01814566816682  0.84091445274528
 1 -0.32611295059506 -1.49089104770477  1.18137564596460
 1 -4.18648346484648  6.00699506760676  0.87161996179618
 1 -5.87693289968997  6.69298421312131  1.64609390399040
 1 -4.93924201100110  5.46963500750075  2.42746688068807
 1 -7.87451246064606  6.78772864736474  1.32980453435344
 1 -9.37623297519752  5.99066922742274 -1.39440102620262
 1 -9.68479322592259  7.55371409890989 -0.69438966186619
 1 -12.42685704770477  3.81454064126413 -0.04473228632863
 1 -12.20991483978398  3.68601255865587 -1.98386770357036
 1 -13.25053607640764  2.35673350905091 -1.28225258065807
 1 -12.69516188938894 -1.20802972967297 -1.05066981808181
 1 -13.44369139363936  0.14340849554956 -0.93632599139914
 1 -12.69891552145214  0.52074888798880 -3.60088743304330
 1 -12.07383235123512 -1.18993656725673 -3.38789774187419
 1 -13.87326407990799 -0.83698279307931 -3.09128667096710
 1 -9.61114766356636 -4.59596891669167 -0.02147444944494
 1 -9.84782876177618 -4.64960290629063 -1.79124602280228
 1 -8.31449662436244 -5.68216648364837 -1.12790074557456
 1 -3.62689454085409 -3.17488377857786 -0.09730107870787
 1 -2.33516390939094 -6.51626672237224  2.28970230433043
 1 -1.64801324772477 -4.79395287918792  3.18284272687269
 1 -3.53298631503150 -5.54490958255826  3.60589746534653
 1  2.50236414391439 -2.45223286678668 -1.48441960896090
 1  2.62710760526053 -0.73293087388739 -2.39557732493249
 1  4.10423319501950 -0.99542185648565  0.58511641464146
 1  4.97441927112711  1.47821033003300 -2.66863158295830
 1  5.73218983618362  0.14174013651365 -3.31462286388639
 1  4.02932305050505  0.06403759055906 -3.44862568766877
 1  6.36339435563556  1.22747887288729 -0.72190238133813
 1  6.26031407610761 -0.04504439403940  0.41104881228123
 1  7.58902568746875 -1.43795051965197 -1.27333809340934
 1  7.76946648914892 -0.05261324072407 -2.14615944494449
 1  8.86762224962496  0.92486132743274 -0.11898174987499
 1  8.75012807560756 -0.50986513801380  0.89995280768077
 1  10.38564123272327 -0.28893633693369 -1.74161873687369
 1  8.88920923712371 -2.66767546074608 -1.23195174297430
 1  10.85775080618062 -2.74193579337934 -1.58194879977998
 1  10.31370639073907 -2.80373205880588  0.01514324502450
 1  11.02821811921192  1.05991477157716  0.09130771597160
 1  11.24063002650265 -0.51359659615962  1.08688861906191
 1  12.68826353695370 -1.49761133233323 -0.37937115011501
 1  12.60326847904791 -0.32024210321032 -1.64046558025803
 1  13.83744489938994  1.38433814461446  0.03741665256526
 1  13.82399662666267 -0.14407083488349  1.35992283818382
 1  15.18863120732073  0.03358456455646 -1.30784279757976
 1  14.82052760566057 -2.55344792659266 -0.22894222742274
 1  16.38590246374637 -2.06294033063306 -0.39918570247025
 1  15.67631291009101 -1.85843097569757  1.11251052245225
 1  15.79798007120712  1.79685625592559  0.43477393639364
 1  16.28551320812081  0.36660728402840  1.67811123372337
 1  18.25614683638364 -0.33521773227323 -0.22160202800280
 1  17.74131871747175  1.00438232653265 -1.19273770627063
 1  18.64694938443845  2.85536193209321  0.42984837453745
 1  18.60453270747075  1.45665147464747  1.65200235023502
 1  20.55566189858986  0.54188214921492  0.29673082928293
 1  19.81629898649865  3.23508177827783 -1.02100400280028
 1  21.26777402110211  2.46263433313331 -1.35861896849685
 1  19.70229520252025  1.77902352405241 -1.96015819731973
 1  20.95157039353936  2.06920838883888  2.28994003060306
 1  22.21914477167717  2.19921994939494  0.84838899599960
 1  20.76863649304931  3.40112331193119  1.17191592949295
 1 -7.23407524062406  1.71182005520552  0.50506235233523
 1 -7.81826337473747 -0.17430760676068  0.11719159155916

