%nproc=3
%Mem=2GB
# td=(NStates=1) B3LYP/SVP 

TD

0 1
 6 -5.04480217831783 -1.82939918201820  0.45334020992099
 6 -4.77818813781378  2.83870032173217  1.36377276317632
 6 -9.48520843054305  3.23609440864086 -0.14695316321632
 6 -9.79742779727973 -1.55432623602360 -0.83966652005201
 7 -5.12704186648665  0.57972959585959  0.63049148614861
 6 -4.46249486558656 -0.58865558655866  0.71670511391139
 6 -3.01118080458046 -0.46210264496450  1.24159915571557
 6 -3.04265923132313  1.10110900320032  1.60783988978898
 6 -4.41025021812181  1.57575739363936  1.17822141914191
 6 -2.85567413591359  1.17836534883488  3.20027789038904
 6 -2.04150622132213 -0.74770473217322  0.08274622022202
 6 -0.59059227142714 -0.78069628622862  0.43031548424842
 6  0.33932759415942 -1.09429630253025 -0.62226378397840
 8 -0.06221445384538 -1.48170053665367 -1.74387799929993
 8  1.55593579067907 -0.80401717481748 -0.32989543224322
 7 -7.05680027462746  2.74700197199720  0.37132664186419
 6 -6.03077465286529  3.38730314861486  1.11834269116912
 6 -6.38036122182218  4.78865530503050  1.14226071887189
 6 -7.74259335613561  4.92887172267227  0.53006953435344
 6 -8.15133607950795  3.59244773847385  0.21699185458546
 6 -5.40252076857686  5.84201971707171  1.56160742674267
 6 -8.30890817351735  6.31990600220022  0.54996349764976
 6 -9.27420531873187  6.80357007890789 -0.32248472727273
 7 -9.24721292189219  0.81041827482748 -0.44612708110811
 6 -9.94915877877788  2.00880337903790 -0.41038030723072
 6 -11.37700156665667  1.81851541254125 -0.83509734363436
 6 -11.51807575807581  0.43788112821282 -0.99581453615362
 6 -10.17129935563556 -0.15673562526253 -0.70346358885889
 6 -12.37390589148915  2.86190469206921 -1.02177526782678
 6 -12.75161290079008 -0.42585506500650 -1.46512747244724
 6 -12.73565369606961 -0.69994325872587 -3.03518168946895
 7 -7.46947590519052 -1.26899858505851 -0.27114564306431
 6 -8.55209679717972 -2.11600032683268 -0.51997535993599
 6 -8.10541298029803 -3.46692357455746 -0.59829239653965
 6 -6.70904581368137 -3.33784061236124 -0.31366899079908
 6 -6.40075117851785 -1.89908272687269 -0.09056398019802
 6 -8.81743450105010 -4.70025077457746 -0.85710470487049
 6 -5.65762270747075 -4.21828686378638 -0.01633068746875
 8 -5.47955744594459 -5.41655118521852  0.07228996309631
 6 -4.37599522812281 -3.23358412001200  0.39087814991499
 6 -3.86573037093709 -3.68661275477548  1.67989451515152
 8 -4.08477355085509 -3.23396133003300  2.75366343444344
 8 -2.79120780838084 -4.61130610351035  1.46672710061006
 6 -2.20791549534954 -5.27324677077708  2.61039317891789
 6  2.60471263986399 -1.02969686728673 -1.28109213501350
 6  4.00620386718672 -0.74313481588159 -0.77552965306531
 6  4.94015627222722  0.00638169306931 -1.26412036863686
 6  4.87256645234523  0.68075880758076 -2.65874299109911
 6  6.22779452465246  0.23486122532253 -0.60951986618662
 6  7.46863810421042 -0.41510769366937 -1.29070593749375
 6  8.79931153225323 -0.14966895199520 -0.41827017451745
 6  10.13310423612361 -0.80173450005000 -1.00980833563356
 6  9.98762480108011 -2.41724552745275 -1.00907019191919
 6  11.30804465466547 -0.33733804850485 -0.10239079477948
 6  12.70189186338634 -0.73936925412541 -0.62440696379638
 6  13.78486707610761 -0.06722394859486  0.28138019351935
 6  15.25906481828183 -0.40759164066407 -0.24333789168917
 6  15.70160973277328 -1.88903776917692 -0.00939970827083
 6  16.29481022532253  0.54270878817882  0.49094811711171
 6  17.69650453925393  0.61591450915092 -0.05591949334934
 6  18.64729565386538  1.54236856575658  0.72271308750875
 6  20.15386728832883  1.68137594219422  0.38833056055606
 6  20.24157485638564  2.22310888698870 -1.00715879367937
 6  20.83290581188119  2.46193753255326  1.37923971217122
 1 -3.99707736803680  3.55381661366137  1.68612349324933
 1 -10.24662251535153  3.90555779787979 -0.12937426012601
 1 -10.70299455585559 -2.08179533503350 -1.29464893799380
 1 -2.96249857685769 -1.27850708590859  1.90120099579958
 1 -2.24081539603960  1.80511073427343  0.95402831503150
 1 -1.99702996099610  0.51754812321232  3.40091919591959
 1 -2.88000349224922  2.14062911261126  3.54007420262026
 1 -3.60755035193519  0.64096928142814  3.66925210141014
 1 -2.34207971637164 -1.76111084418442 -0.29149359655966
 1 -2.41876521592159 -0.16738054705471 -0.85748244244424
 1 -0.32665848564856 -0.05398154455446  0.95906626792679
 1 -0.50015035433543 -1.57215917451745  1.19244675307531
 1 -4.79024384088409  6.16865123322332  0.51023382318232
 1 -5.89726493289329  6.72972788748875  2.17087638223822
 1 -4.68591667846785  5.36681472547255  2.32963709770977
 1 -8.07190219961996  6.96219609410941  1.31625317921792
 1 -9.72930828272827  6.03576373687369 -1.14965655175518
 1 -9.97689243584358  7.70013874137414 -0.43542376527653
 1 -12.57253161516152  3.57010619781978 -0.11146895999600
 1 -11.99635348364836  3.57336129352935 -1.93026234303430
 1 -13.51970299309931  2.43642147784778 -1.36359071447145
 1 -12.49491186438644 -1.19449837653765 -0.85591034213421
 1 -13.63931095559556  0.01487564226423 -1.22129448824882
 1 -13.19756538643864  0.29926673977398 -3.64795213951395
 1 -11.68556352435244 -0.99202677627763 -3.56218517061706
 1 -13.66078283178318 -1.34040313511351 -3.15253279557956
 1 -9.70567711651165 -4.93156247604761 -0.05995829782978
 1 -9.32667664656466 -4.45148309430943 -1.80797769596960
 1 -8.06240141484148 -5.34034230123012 -0.94090204570457
 1 -3.62733458485849 -3.27271356155616 -0.30649199779978
 1 -1.36698709170917 -5.78280337603760  2.18186152025203
 1 -1.87195564196420 -4.52648613251325  3.38257269986999
 1 -3.01797481388139 -5.82639773137314  3.15124199979998
 1  2.79912381988199 -2.12300994449445 -1.35774694169417
 1  2.34319921442144 -0.53995157595760 -2.16290405760576
 1  4.23117588928893 -1.06115843014301  0.25977388038804
 1  5.33689551875188  1.72878538753875 -2.80676539633963
 1  5.70748736593659  0.07421338383838 -3.36679808140814
 1  3.79723984218422  0.41303249004901 -3.14886571167117
 1  6.43524154035403  1.44475060006001 -0.43239343044304
 1  6.16505455015502 -0.17241713131313  0.51049875727573
 1  7.37117390229023 -1.44069079367937 -1.31371213081308
 1  7.54903444594459 -0.07983596299630 -2.29464429342934
 1  8.99651513891389  1.02848168946895 -0.44884473617362
 1  8.56799986278628 -0.48741289278928  0.66220903330333
 1  10.40755342394239 -0.35556299959996 -1.96810138513851
 1  9.02589290549055 -2.75283397659766 -1.48830737853785
 1  10.73003803490349 -2.67463906370637 -1.85344594949495
 1  10.10263528362836 -2.79423110871087 -0.08413668296830
 1  11.33929922732273  0.80447922802280  0.41194978017802
 1  11.07165312881288 -0.91617685418542  0.97657758795880
 1  12.84199891049105 -1.89928149934993 -0.39435264826483
 1  12.86228438063806 -0.44685476447645 -1.62278381208121
 1  13.69640079497950  1.05803551435144  0.17229013991399
 1  13.87651187818782 -0.48325475327533  1.39727657355736
 1  15.17555990019002 -0.28832762666267 -1.35543755705571
 1  15.01547710061006 -2.55196777857786 -0.42564189738974
 1  16.62995686918692 -2.30329436603660 -0.40547633153315
 1  15.71689696849685 -2.11672680528053  1.24817408880888
 1  16.06993726692669  1.64269083938394  0.42781324032403
 1  16.28244290109011  0.26687731103110  1.62874629722972
 1  18.23940516221622 -0.34111832233223 -0.29147901570157
 1  17.65333991959196  0.88020990929093 -1.07116554905491
 1  17.85736042554256  2.53774016991699  0.57634302400240
 1  18.43684593879388  1.33632944244424  1.70849799979998
 1  20.55787211961196  0.53685164616462  0.23082423862386
 1  19.43618097469747  3.21739000910091 -1.32353425582558
 1  21.47104434813481  2.62163023272327 -1.29334244084408
 1  19.89433440644064  1.45247086878688 -1.84353653515352
 1  20.77997323382338  2.14370583858386  2.38358939553955
 1  21.94724758195820  2.80923095049505  1.12783694079408
 1  20.35278490789079  3.44699789938994  1.34471320922092
 1 -7.01711354445445  1.69216809000900  0.26364821092109
 1 -7.88145969436944 -0.39964014001400  0.10854072647265

