%nproc=3
%Mem=2GB
# td=(NStates=1) B3LYP/SVP 

TD

0 1
 6 -5.19323702180218 -1.98122436453645  0.34496937283728
 6 -4.58912923192319  2.59290574227423  1.52087847374738
 6 -9.23613352305230  3.39073987318732 -0.26351481938194
 6 -9.85340339483948 -1.37548835223522 -0.91720427382738
 7 -5.09897906020602  0.34763638653865  0.78970740774077
 6 -4.45065368146815 -0.84453117411741  0.77333077647765
 6 -3.05736542304230 -0.69943637833783  1.20221521732173
 6 -2.97603256865687  0.67749664196420  1.87785689148915
 6 -4.32828202130213  1.30149996789679  1.38318191519152
 6 -3.03888245674567  0.71049856215622  3.36992485508551
 6 -2.07063913461346 -0.74200416211621  0.05329327492749
 6 -0.62522573477348 -0.96121433803380  0.54848730143014
 6  0.42662632403240 -1.27279415231523 -0.59115067266727
 8  0.12181394899490 -1.88707107370737 -1.62670628212821
 8  1.59377957505751 -0.76682345544554 -0.30753319601960
 7 -6.95504009860986  2.76712398419842  0.50265977517752
 6 -5.78860043544354  3.36494091239124  1.06479733663366
 6 -6.03930711641164  4.85448188768877  0.98042453525353
 6 -7.28129722652265  4.92597143264326  0.36504303170317
 6 -7.93987493339334  3.72870136383638  0.16953710911091
 6 -4.97867838433843  5.82686820192019  1.34416568256826
 6 -7.83548083078308  6.29401341294129  0.31356985828583
 6 -8.75492339053905  6.72858258015802 -0.63264574337434
 7 -9.17067526812681  0.93345057805781 -0.36033850225023
 6 -9.79677354025402  2.12140463916392 -0.55088435763576
 6 -11.18077194369437  1.99781334233423 -1.02464629852985
 6 -11.46213016351635  0.68659599969997 -1.20871582628263
 6 -10.15322754845485  0.02973302160216 -0.88162140464046
 6 -12.05140364126413  3.20501900350035 -1.11907499779978
 6 -12.73059079857986 -0.00693317281728 -1.61690264996500
 6 -12.88897902860286 -0.22695595999600 -3.15305347664766
 7 -7.60264922252225 -1.29870155535554 -0.19042757125713
 6 -8.69419100660066 -2.03132185898590 -0.60533389578958
 6 -8.32959539853985 -3.41428831103110 -0.64401696899690
 6 -6.99933484258426 -3.39386621492149 -0.21524914881488
 6 -6.56115721912191 -2.11413423202320 -0.06050097389739
 6 -9.18726148374837 -4.56484723422342 -0.95481447584759
 6 -5.78917586278628 -4.33720875597560  0.00237118271827
 8 -5.81991148134813 -5.55452498259826 -0.03482074797480
 6 -4.59652728132813 -3.45554631623162  0.47419648174817
 6 -4.01380517841784 -3.97500159365937  1.81897842354235
 8 -4.34019909340934 -3.54471240514051  2.87637570567057
 8 -3.19964865246525 -4.88634360726073  1.52792322022202
 6 -2.59705440924092 -5.65542498859886  2.62868500810081
 6  2.63108527712771 -1.08449234683468 -1.17276130193019
 6  3.93032627942794 -0.71062156455646 -0.59991209130913
 6  4.95308756535653  0.06538759365937 -1.13111706830683
 6  4.83804300000000  0.79759049074908 -2.39219633643364
 6  6.20165191039104  0.21432917211721 -0.34900381458146
 6  7.46610785118512 -0.56279246214621 -0.92786965386539
 6  8.79939154025403 -0.21581556665667 -0.12738108560856
 6  10.13376430213021 -0.80676500310031 -0.71979933473347
 6  10.07898393699370 -2.33044684758476 -0.68416770167017
 6  11.28613246344634 -0.22039635433543  0.00217966226623
 6  12.64379605380538 -0.54465978317832 -0.38432295539554
 6  13.81730031943194  0.03945671947195  0.34940699619962
 6  15.26104501630163 -0.09670055155516 -0.39024258215822
 6  15.72056162796279 -1.54390325572557 -0.40760952925293
 6  16.26133687798780  0.81658617591759  0.36145516781678
 6  17.63225811461146  0.88427134483448 -0.19397329872987
 6  18.58773969826983  1.82190651955196  0.55827664386439
 6  20.03110501210121  1.81535934053405  0.04320604810481
 6  20.08756945584559  2.39135571167117 -1.44731280908091
 6  20.86175869716972  2.77373871267127  1.02861464966497
 1 -3.98984664496450  3.33373460546055  2.00062494339434
 1 -9.98968682178218  4.07053429552955 -0.33337466016602
 1 -10.65351960836083 -1.96108326382638 -1.38032750585058
 1 -3.05353768076808 -1.36836607180718  2.03416429212921
 1 -2.04646596109611  1.10975119831983  1.62504541674167
 1 -1.88782904090409  0.70074644304430  3.63470257425743
 1 -3.46108160006000  1.57137218691869  3.85108530373037
 1 -3.52796239313931 -0.10509532503250  4.01138631483148
 1 -2.35420092849285 -1.78491322442244 -0.29594404160416
 1 -2.15940928032803 -0.03031684068407 -0.76219291349135
 1 -0.19776559635964  0.00259411301130  1.00506086738674
 1 -0.51867220652065 -1.68739069766977  1.42855036343634
 1 -4.14749956645665  5.88011237933793  0.71113391319132
 1 -5.41499670607061  6.95290020472047  1.17662695729573
 1 -4.82111019781978  5.73894193819382  2.40273440744074
 1 -7.37860286968697  7.14796467096710  0.99717127102710
 1 -9.44503985588559  6.01098125862586 -1.41613319941994
 1 -9.01739648624862  7.73581230873087 -0.53664388728873
 1 -12.10158452045205  3.95572475967597 -0.20918873197320
 1 -11.80846469476948  3.79341329872987 -1.99590890769077
 1 -13.28126914971497  2.99415725142514 -1.00514486988699
 1 -12.69768214141414 -0.99453838053805 -1.11587633873387
 1 -13.58357538203820  0.52000615531553 -1.00108246704670
 1 -12.85983161306130  0.54870168326833 -3.87827517181718
 1 -12.08657362536254 -0.83838141174117 -3.32303125522552
 1 -13.55863261676168 -0.97984707950795 -3.32241978427843
 1 -10.01310785958596 -4.74688400820082 -0.15659796179618
 1 -9.76328030693069 -4.52767071307131 -1.86219311751175
 1 -8.53569874457446 -5.56549481648165 -0.77461541704170
 1 -3.85353720512051 -3.39050534073407 -0.33694504310431
 1 -1.98439883288329 -6.27541263696370  2.26692002610261
 1 -2.22487093349335 -4.92528601250125  3.27927236983698
 1 -3.41322433883388 -6.22665775737574  3.19519639523952
 1  2.60321422892289 -2.17166480998100 -1.20167133413341
 1  2.42556745124512 -0.66422400320032 -2.27964573177318
 1  3.93000577227723 -1.28765107940794  0.34372227522752
 1  5.24191602080208  1.77106961596160 -2.09786450625062
 1  5.47472408960896  0.29869583208321 -3.24631603320332
 1  3.82695281348135  0.72983417021702 -2.87609843494349
 1  6.53132114831483  1.39753587858786 -0.38914910601060
 1  6.06181422612261 -0.11823171277128  0.73538124552455
 1  7.39457624252425 -1.85979270387039 -0.54328508810881
 1  7.44957449995000 -0.60528850825083 -2.27800262926293
 1  9.15956144354435  0.96334517581758 -0.01763161486149
 1  8.78911197399740 -0.57329148064806  0.92560537293729
 1  10.37570023862386 -0.37814525782578 -1.70477505250525
 1  9.24736505270527 -2.59138783198320 -1.38934748254825
 1  10.95868089918992 -2.81029262906291 -1.12547315221522
 1  9.80277529762976 -2.99141082668267  0.17377910861086
 1  11.21145644304431  1.07870665076508  0.01107969316932
 1  11.36417238073807 -0.29236447294729  1.31145107530753
 1  12.87219192979298 -1.77646921812181 -0.58580179317932
 1  12.73755190739074 -0.24630470947095 -1.56353788748875
 1  13.60225138003800  1.21115082588259  0.47172008290829
 1  13.72639686668667 -0.16229265706571  1.33077992389239
 1  15.23157550175018  0.25111631773177 -1.53500551385139
 1  14.86744229712971 -2.42056463826383 -0.83852318551855
 1  16.51975584908491 -1.73381741834183 -1.28111389528953
 1  16.14741001980198 -2.09483461606161  0.71057032843284
 1  15.94460473367337  1.92061863216322  0.62316277527753
 1  16.21949660646065  0.51878250155015  1.49743316591659
 1  18.10115133683368 -0.26361057155716 -0.13273314111411
 1  17.64718930453045  1.08265015331533 -1.21662009450945
 1  17.94691938143814  2.83005940184018  0.33919930963096
 1  18.63346560076008  1.55092090159016  1.79469661966197
 1  20.25610194259426  0.72477043804380 -0.10269911371137
 1  19.57238459505951  3.31285955605561 -1.59020092249225
 1  21.17386463016302  2.68509657935794 -1.72659576617662
 1  19.56313128612861  1.64243986568657 -2.05913809530953
 1  20.75817105360536  2.39261072907291  2.22115315191519
 1  22.07385024222422  2.77211723912391  0.94980913801380
 1  20.44713434283428  3.80116331593159  1.21897063496350
 1 -7.11616344944495  1.74516338953895  0.40844269036904
 1 -7.71729327772777 -0.33001317731773  0.00429030143014

