%nproc=3
%Mem=2GB
# td=(NStates=1) B3LYP/SVP 

TD

0 1
 6 -5.18002570067007 -2.03023926602660  0.46173104900490
 6 -4.74434475347535  2.68135458715872  1.43820020592059
 6 -9.31268117781778  3.30729152835284 -0.30939940784078
 6 -9.73931198569857 -1.38251905530553 -1.14427698109811
 7 -5.17742690499050  0.40231185408541  0.69932836983698
 6 -4.41396001210121 -0.76086280728073  0.82036547994800
 6 -3.07675736223622 -0.59373580828083  1.32866786258626
 6 -3.09050401580158  0.78819771207121  1.87143624942494
 6 -4.40839003210321  1.38639845774577  1.33817741474147
 6 -2.97479604810481  0.96323383568357  3.41178904150415
 6 -2.08444051475148 -0.89466942864286  0.03810175577558
 6 -0.59036224842484 -0.74231244784478  0.42577503020302
 6  0.32478614001400 -1.18771564446445 -0.60962251985199
 8  0.05536730433043 -1.68661102770277 -1.66891050255026
 8  1.64312450955096 -0.85002177527753 -0.15299774247425
 7 -7.00563515811581  2.81687895969597  0.54609411861186
 6 -5.96432800820082  3.38910332863286  1.01700255715572
 6 -6.21579476517652  4.69917635713571  1.18648514131413
 6 -7.54182327912791  4.88859769526953  0.50131665906591
 6 -8.07251819771977  3.66249474317432  0.30433058845885
 6 -5.22043255975598  5.74193970907091  1.58810007600760
 6 -8.09951723442344  6.24894890649065  0.51065956725673
 6 -8.90367826602660  6.73570329222922 -0.57501998079808
 7 -9.15485368596860  0.90804803780378 -0.62415488388839
 6 -9.82810667356736  2.09279177787779 -0.55226449564956
 6 -11.28223208970897  1.95501906290629 -0.88297213111311
 6 -11.43834778527853  0.58514585468547 -1.15288024272427
 6 -10.09689191489149 -0.03766371807181 -0.89594283678368
 6 -12.26443494439444  3.05803430503050 -0.82979606990699
 6 -12.59511725122512 -0.19496197569757 -1.65159611931193
 6 -12.86487661836184 -0.18531179557956 -3.24135230653065
 7 -7.48333729132913 -1.21981366656666 -0.39329785828583
 6 -8.46770835833583 -2.02700142694269 -0.79802316471647
 6 -8.10246268526853 -3.34057093929393 -0.82413498079808
 6 -6.87611252035204 -3.35054188248825 -0.38544616851685
 6 -6.38565966936694 -2.00818363696370 -0.09625454925493
 6 -8.86233899149915 -4.61793254275428 -1.28037703210321
 6 -5.75612255745575 -4.30498553365337 -0.00464951935194
 8 -5.70069956015602 -5.45227475757576 -0.02425969186919
 6 -4.58316594519452 -3.39674043564356  0.47117617971797
 6 -3.94106790469047 -3.84991908540854  1.80283680938094
 8 -4.51697677117712 -3.52846077997800  2.88404647274727
 8 -3.01829051665167 -4.81415638853885  1.72025245314531
 6 -2.59637434123412 -5.38217766386639  2.91269340894089
 6  2.68876104470447 -1.05671956955696 -1.14711873767377
 6  3.96187943474347 -0.66981748414841 -0.41687378747875
 6  5.03680593719372 -0.05493443854385 -1.17259121572157
 6  4.89702889858986  0.36289702140214 -2.60782789958996
 6  6.28086983218322  0.27348508770877 -0.39501841604160
 6  7.49181042144214 -0.32187837073707 -0.87508437533753
 6  8.76830843194320 -0.11793577867787 -0.06281462896290
 6  10.06391731743174 -0.82666699329933 -0.58255561036104
 6  9.93672971157116 -2.43898770167017 -0.42553183808381
 6  11.36051990219022 -0.27032134683468  0.05743518781878
 6  12.72268394259426 -0.72415773297330 -0.43434795789579
 6  13.79823841324133  0.00422319611961  0.30447250275028
 6  15.22289120092009 -0.21914279577958 -0.25839939783978
 6  15.65874544634463 -1.77373623902390 -0.39330809910991
 6  16.32174291859186  0.79658417571757  0.31962098439844
 6  17.70770565936594  0.80775369306931 -0.31383528492849
 6  18.55117604190419  1.80018434733473  0.40311112731273
 6  20.04176607820782  1.85091289588959 -0.04262253475348
 6  20.18496919581958  2.29791636773677 -1.47471554935494
 6  20.94798732003201  2.58888022682268  0.98152994119412
 1 -3.89342700300030  3.12194342634263  1.95976085698570
 1 -10.13561141424142  4.17237447954795 -0.31236255895590
 1 -10.48417267366737 -2.07352450795080 -1.38196766986699
 1 -2.87670999799980 -1.45191442664266  2.09231010671067
 1 -2.22990430493049  1.39291951515151  1.31448436063606
 1 -1.97553781178118  0.55401176957696  3.86486559055906
 1 -3.12625811771177  2.16549159885989  3.51252144734473
 1 -3.92510210711071  0.43932911741174  3.80428560476048
 1 -2.22623813221322 -1.99399413251325 -0.41876632383238
 1 -2.29440277967797  0.01162735373537 -0.55480217441744
 1 -0.46824264406441  0.28701255485549  0.73007336863686
 1 -0.44399473877388 -1.20232219081908  1.43508101650165
 1 -4.21959677617762  5.47534190229023  1.08647144694469
 1 -5.57558276467647  6.79773468816882  1.39611890649065
 1 -5.19449753655366  5.56721476547655  2.77430156415642
 1 -7.80667567696770  6.90048992349235  1.45302685658566
 1 -8.89320467236724  6.02342250275027 -1.58746033213321
 1 -9.17335208180818  7.84098282578258 -0.58932915581558
 1 -12.46869123112311  3.44808399559956  0.19064125102510
 1 -11.79670351865187  3.73634759215922 -1.64888420522052
 1 -13.15001602440244  2.62992082778278 -1.57465182058206
 1 -12.54835720892089 -1.19497842454245 -1.17088183928393
 1 -13.50795782028203  0.23289744444444 -1.31493385218522
 1 -12.85432106200620  0.72368918201820 -3.75055239953995
 1 -11.91362633063306 -0.69432700630063 -3.61585053715372
 1 -13.86554330783078 -0.60305940074007 -3.43699124142414
 1 -9.82913946274627 -4.38323764356436 -0.74919722172217
 1 -8.93436741564156 -4.81432937893789 -2.44324122232223
 1 -8.25419059375938 -5.43788205520552 -0.74829278477848
 1 -3.62632448384838 -3.44419070927093 -0.10716206480648
 1 -1.90268066106611 -5.81142623832383  2.60749408350835
 1 -2.16999544594459 -4.54272775667567  3.57988243084308
 1 -3.42800581698170 -5.86448153975398  3.46146302190219
 1  2.72717662516252 -2.17470511401140 -1.36646781378138
 1  2.53667856235624 -0.51306888768877 -1.97046481368137
 1  4.17369014071407 -0.97343965826583  0.70394829782978
 1  4.72546437563756  1.47529003800380 -2.71244596439644
 1  5.60022663986399 -0.14928896639664 -3.26866826842684
 1  3.83733385158516  0.26511769856986 -3.34290511561156
 1  6.35409342554255  1.39895602060206 -0.35115530663066
 1  6.14343238793879 -0.02492238183818  0.58297600500050
 1  7.42271905680568 -1.45403212781278 -1.08691945154515
 1  7.70707024952495  0.03512553315332 -2.09444427342734
 1  8.70772626002600  1.07720656195620  0.10981112941294
 1  8.43949701250125 -0.44468862036204  0.91296410881088
 1  10.20370303890389 -0.55076251955196 -1.63401797679768
 1  9.02995331153115 -2.56042473567357 -1.05078362616262
 1  10.81701673277328 -2.89514111391139 -0.62810341524152
 1  9.58544356445645 -2.58404008960896  0.80191192189219
 1  11.34894019141914  0.91717049714972 -0.17293870867087
 1  11.07989395289529 -0.68922415891589  1.02253218341834
 1  12.75819052965297 -1.73755532673267 -0.44178739173917
 1  12.49963811601160 -0.40127020602060 -1.43112464616462
 1  13.57079823472347  1.06874658545855  0.28550146104610
 1  13.77889211621162 -0.09154558235824  1.47735458135814
 1  15.06479882408241  0.26204741084108 -1.19634164746475
 1  14.84967051995199 -2.57354993679368 -0.75605493869387
 1  16.58065193869387 -1.47697173377338 -1.06602238613861
 1  16.03263854265427 -2.15678081068107  0.54834410581058
 1  15.81392166536654  1.80472704300430  0.16353681268127
 1  16.53627828462846  0.50196081938194  1.33529695229523
 1  18.10539176087609 -0.23839805030503 -0.41910177797780
 1  17.62598718431843  1.16810869916992 -1.35997442994299
 1  18.02153684318432  2.80435683158316  0.46593198289829
 1  18.79224147834784  1.50227603710371  1.52508965896590
 1  20.46534286668667  0.91007896889689  0.03023417961796
 1  19.96515387198720  3.43547181728173 -1.73063496589659
 1  21.12217946164617  2.15358342804280 -2.04126723332333
 1  19.61945691869187  1.72940856255626 -2.10442262376238
 1  20.66145138163817  2.28042951095110  2.00153118971897
 1  22.05530838803880  2.46680670807081  0.59125328242824
 1  20.57071670107011  3.62123532313231  0.94335307320732
 1 -7.19917175027503  1.70208908210821  0.44255610171017
 1 -7.66576812521252 -0.24076425242524 -0.27954808240824

