%nproc=3
%Mem=2GB
# td=(NStates=1) B3LYP/SVP 

TD

0 1
 6 -5.10082778087809 -1.89866610871087  0.41225610151015
 6 -4.79897021602160  2.79431588328833  1.22729911581158
 6 -9.45885579527953  3.35575637483748 -0.14927339523952
 6 -9.90000805530553 -1.51819262266227 -0.76730928432843
 7 -5.17234639693969  0.45076669956996  0.73835227222722
 6 -4.53481209730973 -0.79640636163616  0.78495193859386
 6 -3.07184687118712 -0.56482291699170  1.18259325512551
 6 -3.02475744114411  0.91529042134213  1.74165327112711
 6 -4.34952414551455  1.45153497139714  1.27390098709871
 6 -2.84461302980298  0.98624613691369  3.16364422702270
 6 -2.08832090279028 -0.96888685038504  0.16046399199920
 6 -0.55605881808181 -0.75114333093309  0.50293274597460
 6  0.36690035143514 -0.96863373627363 -0.67917947554755
 8  0.20357212481248 -1.69499186578658 -1.57309092059206
 8  1.60132032913291 -0.32100887398740 -0.38131057375738
 7 -7.07961255585559  2.66359363116312  0.44968447764776
 6 -5.99558113351335  3.34251867016702  0.89170002690269
 6 -6.38144132983298  4.76959339883988  0.94590108290829
 6 -7.54584368116812  4.85566440194019  0.40946747414741
 6 -8.07087803370337  3.65819431313131  0.04332448784878
 6 -5.35654617111711  5.75977149224923  1.33497476347635
 6 -8.31974925762576  6.18136214781478  0.39496799809981
 6 -9.19372727092709  6.54908463036304 -0.49211168996900
 7 -9.22487068766877  0.84793202620262 -0.32427489588959
 6 -10.00411427432743  2.02119461816182 -0.46872614181418
 6 -11.32874674117412  1.76975053605361 -0.86628046194619
 6 -11.50002395289529  0.38813615371537 -0.98054300900090
 6 -10.19161138683868 -0.13388334003400 -0.66295953845385
 6 -12.32060056095610  2.86519502110211 -1.16523961426143
 6 -12.75895363486349 -0.34449692919292 -1.47938889858986
 6 -12.69084921562156 -0.44683794819482 -3.00005817711771
 7 -7.56409536713671 -1.29322100730073 -0.04492302080208
 6 -8.63644523202320 -2.10521924872487 -0.47380074247425
 6 -8.16317875687569 -3.51266814901490 -0.65757832513251
 6 -6.84945985508551 -3.39692652095210 -0.11878950285028
 6 -6.49049015241524 -2.14206702530253  0.19764484068407
 6 -9.06574933253325 -4.62635338483848 -0.89966896129613
 6 -5.72562950815082 -4.24702973807381  0.12192313791379
 8 -5.51142063226323 -5.44989451955195 -0.05251251715172
 6 -4.49325695429543 -3.29982074367437  0.46050511261126
 6 -3.89813361126113 -3.74697879137914  1.73929045474547
 8 -4.24895996949695 -3.30146808070807  2.78210627872787
 8 -2.88089677727773 -4.70190516341634  1.52312274017402
 6 -2.38554325812581 -5.30768021412141  2.73753589318932
 6  2.62275444404440 -0.65867976557656 -1.26088011381138
 6  3.97878112491249 -0.43676417881788 -0.74419651975198
 6  4.92973523012301  0.30846190109011 -1.20671462806281
 6  4.86611580728073  1.04462519421942 -2.50379749654965
 6  6.30327207240724  0.45689342854285 -0.47091600580058
 6  7.59124036443644 -0.18906508940894 -1.13619048594859
 6  8.81569317041704 -0.10198418351835 -0.29831817931793
 6  10.25660658635864 -0.67936226282628 -0.94606196099610
 6  10.10853689228923 -2.13848765166517 -1.24588387328733
 6  11.36951080128013 -0.25373968866887 -0.13526408210821
 6  12.69220089428943 -0.75313063026303 -0.66357088018802
 6  13.92197078647865 -0.22447967416742  0.21271332683268
 6  15.22923183498350 -0.29810069156916 -0.46819037693769
 6  15.66016558835883 -1.81302016741674 -0.61778054635464
 6  16.25467621192119  0.42229674697470  0.45215423772377
 6  17.75409029782978  0.53503642134213  0.04537063566357
 6  18.72145306960696  1.41320564946495  0.98707952415241
 6  20.06200810241024  1.54844264886489  0.38178990649065
 6  20.25688638753875  2.13715029112911 -0.92904098189819
 6  21.06421894319432  2.25110644944494  1.35945773397340
 1 -4.03932159245925  3.44389562156216  1.78729361026103
 1 -10.08486633973397  4.23099034113411 -0.51991331403140
 1 -10.70018427482748 -2.28227538303830 -1.21039051215122
 1 -2.82980530753075 -1.19904914011401  1.95215609130913
 1 -2.31510282478248  1.54056427962796  1.21857476967697
 1 -1.93378363636364  0.54122049044905  3.64732383638364
 1 -3.15788128002800  2.11445649534953  3.46628682388239
 1 -3.70158975587559  0.45687087158716  3.39777495369537
 1 -2.33695920432043 -2.00582531563156 -0.35974042124212
 1 -2.14856819621962 -0.27295110411041 -0.72704939913991
 1 -0.41831765156516  0.58099195279528  0.75820618191819
 1 -0.12922326162616 -1.32833479207921  1.51370887928793
 1 -4.37549236573657  5.54377874597460  0.76933973377338
 1 -5.68933413981398  6.71792670737074  0.99606890149015
 1 -5.28305639243924  5.76123416741674  2.52732686668667
 1 -8.27064207360736  6.84436431093109  1.15877743164316
 1 -9.58249360126013  6.09310947144714 -1.47599918601860
 1 -9.40563531013101  7.67369609710971 -0.49981020392039
 1 -12.66276063806381  3.59002819001900 -0.27133494659466
 1 -12.10162401070107  3.36806076347635 -1.93206252305231
 1 -13.29346036883688  2.34986282198220 -1.41431578697870
 1 -12.81456382958296 -1.28984791149115 -1.08111286238624
 1 -13.59194621912191  0.01806596129613 -1.03273563236324
 1 -12.67451308120812  0.51431824492449 -3.52961030533053
 1 -11.66703167116712 -0.90761833543354 -3.26974592669267
 1 -13.36547330083008 -1.25533462826283 -3.44321186348635
 1 -9.82407895669567 -4.45951527132713 -0.37233953595360
 1 -9.28145212411241 -4.78942688868887 -1.98631552975297
 1 -8.51780695539554 -5.58768703570357 -0.71948990449045
 1 -3.85161701310131 -3.53439973017302 -0.39912126072607
 1 -1.85909630263026 -6.14750984668467  2.30433376747675
 1 -1.98699714611461 -4.64501798569857  3.53597804040404
 1 -3.06211922832283 -5.63581867346735  3.55169204480448
 1  2.52790669816982 -1.88790643414342 -1.66792795979598
 1  2.50771566606661 -0.15807338813881 -2.19682744994499
 1  4.09798256995700 -0.82949526382638  0.39989789278928
 1  5.35383721292129  1.93382589158916 -2.48948366816682
 1  5.62749936713671  0.54550051255126 -3.11875327692769
 1  3.87782790099010  1.06231741854185 -2.85464628972897
 1  6.42966098229823  1.51593771877188 -0.47794798589859
 1  6.22084012871287  0.30414052445245  0.55289299669967
 1  7.25467225212521 -1.12720944554455 -1.46340710031003
 1  7.91903144564457  0.22454447504750 -2.13208803780378
 1  9.13730921832183  0.85395423672367  0.01329147744775
 1  8.74232729552955 -0.69702385388539  0.77071988438844
 1  10.34560722932293 -0.13883132643264 -1.93100767576758
 1  9.24666498269827 -2.28291698489849 -2.10526907470747
 1  10.75222025312531 -2.50486208600860 -2.00306091099110
 1  9.89091411151115 -2.93749543514351 -0.38741701100110
 1  11.34316961436144  0.85510429052905  0.04398298349835
 1  11.21533749724973 -0.69410464696470  0.82469239943994
 1  12.62306701730173 -1.74949652085208 -0.54110732373237
 1  12.68692684488449 -0.54263434243424 -1.73049458315832
 1  13.77351850675067  0.91763147394739  0.43846675757576
 1  13.74795902290229 -0.56294272207221  1.14811165706571
 1  15.12282462666266  0.31548275437544 -1.43203521682168
 1  14.89243479637964 -2.61717429922992 -0.95962529572957
 1  16.55910978447845 -1.72775681228123 -1.27771355525553
 1  15.87539281808181 -2.42248738133813  0.40400967236724
 1  15.86609688288829  1.59012558285829  0.62533299229923
 1  16.47993265006501 -0.12126150285028  1.34468789138914
 1  18.20895211691169 -0.45723993449345 -0.00698056585659
 1  17.88003258885889  1.16763865216522 -0.97716614911491
 1  18.22758744824483  2.35164156005601  1.02219760946095
 1  18.82083433763377  0.94546035553555  2.01871902190219
 1  20.54209054145414  0.73874183518352  0.49637079327933
 1  19.81288864546455  3.14706297639764 -1.07094899729973
 1  21.31340858455846  1.99923799349935 -1.17026013261326
 1  19.86633160616061  1.76402202390239 -1.80750293179318
 1  21.14167940444045  1.73064453245325  2.36810784738474
 1  22.12639549674968  2.45827585498550  0.98866302340234
 1  20.57462709210921  3.28699189878988  1.75009374727473
 1 -7.00667250035003  1.55047392059206  0.27357920402040
 1 -7.62923447184718 -0.28168834483448  0.06475634803480

