%nproc=3
%Mem=2GB
# td=(NStates=1) B3LYP/SVP 

TD

0 1
 6 -5.24473217131713 -1.93677992009201  0.46444132003200
 6 -4.58820913991399  2.67961441314131  1.46499288518852
 6 -9.21163107280728  3.35975677487749 -0.14283275117512
 6 -9.80849890439044 -1.36415721912191 -1.05290784418442
 7 -5.15796495879588  0.37756937983798  0.81615005200520
 6 -4.60379899599960 -0.80108682968297  0.83641708510851
 6 -3.08142782928293 -0.73286972167217  1.23466846264626
 6 -3.06740170557056  0.81894078637864  1.74408351415142
 6 -4.24316350945094  1.37109692759276  1.32809640664066
 6 -2.67527609610961  0.90575808810881  3.25166302890289
 6 -2.03378544924492 -1.07722768446845  0.18610655625563
 6 -0.58206141834183 -1.01194941154115  0.66874932763276
 6  0.40327398879888 -1.34486135903590 -0.45820737833783
 8  0.12116388398840 -1.74600696729673 -1.59520313181318
 8  1.66967716481648 -0.97224399749975 -0.10376281898190
 7 -6.95555014961496  2.73370064186419  0.69974948414841
 6 -5.88140971637164  3.34303872217222  1.16490734763476
 6 -6.06676986268627  4.68154459395940  1.16639313211321
 6 -7.33561265806581  4.89867870337034  0.59890641804180
 6 -7.92208315421542  3.71527002070207  0.27345750115012
 6 -5.05698621512151  5.75591110621062  1.48389965596560
 6 -7.96714399709971  6.28547255885589  0.50917941924192
 6 -8.83835173337334  6.59706942884288 -0.53060553935394
 7 -9.20490869146915  0.86396362936294 -0.32907537593759
 6 -9.73142700560056  2.06389888858886 -0.64598386758676
 6 -11.21293516001600  2.05185874687469 -1.06489032293229
 6 -11.40535448594859  0.73106044614461 -1.32337729242924
 6 -10.16528875457546 -0.02047199889989 -0.91825506800680
 6 -12.09202770367037  3.20484898649865 -1.38698178847885
 6 -12.62849058855886  0.03105062556256 -2.02558351805181
 6 -12.39832996369637 -0.12520578497850 -3.60272844414441
 7 -7.50756971457146 -1.26680836603660 -0.25169369786979
 6 -8.61155274277428 -1.95961468826883 -0.57597095949595
 6 -8.27871031003100 -3.41102798499850 -0.63402596989699
 6 -6.93983889298930 -3.37821464976498 -0.38289591349135
 6 -6.49120022342234 -2.10460327892789 -0.10420534433443
 6 -9.17798055565556 -4.58400915041504 -1.07678667306731
 6 -5.81651859705971 -4.34853988908891 -0.04253330773077
 8 -5.85602509270927 -5.48416794689469 -0.03949121502150
 6 -4.63471109970997 -3.41113187478748  0.45910497259726
 6 -4.18059185708571 -3.89326341984198  1.81741826752675
 8 -4.76057113061306 -3.50149808370837  2.89269733783378
 8 -3.27877656525653 -4.71733670657066  1.82082251015101
 6 -2.96847155095510 -5.60025947204721  2.98295043464346
 6  2.67474964356436 -1.22209610721072 -1.04986901270127
 6  4.00988423522352 -0.67501800420042 -0.43122522262226
 6  4.98739099569957  0.02365342024202 -0.99662361896190
 6  4.88045724142414  0.53015374707471 -2.36585370217022
 6  6.39654139933993  0.21753949314931 -0.29450836503650
 6  7.51406264666467 -0.59882606550655 -0.86672353925393
 6  8.81486308740874 -0.32963694879488 -0.07846619411941
 6  10.06623754945494 -0.92157648424842 -0.69212656745675
 6  10.08731477007701 -2.40104390729073 -0.50854013891389
 6  11.33279712991299 -0.28940325502550 -0.03542409810981
 6  12.67386906110611 -0.46613193039304 -0.72171669476948
 6  13.80108869826983  0.15083785758576  0.16795885138514
 6  15.17961687348735  0.03992311081108 -0.46531008890889
 6  15.55796536833683 -1.48773763916392 -0.51293006130613
 6  16.21458220252025  0.82209672697270  0.29099812211221
 6  17.63637852665267  0.79535245294529 -0.33285718711871
 6  18.48574949924992  1.92964729362936  0.39985080128013
 6  20.05182708430843  1.87103490809081 -0.05083335583558
 6  20.11466216511651  2.77467404350435 -1.41177925572557
 6  20.90560308160816  2.49924126292629  0.88251003920392
 1 -3.83562122242224  3.37649888188819  1.89561444234423
 1 -9.81882973607361  4.36723396549655 -0.05805712841284
 1 -10.52654691109111 -2.03879103460346 -1.56002547564756
 1 -2.88802112911291 -1.27490672587259  2.21452232793279
 1 -2.32908422292229  1.49142936613661  1.22249516171617
 1 -1.74309456745675  0.44463083148315  3.52604170817082
 1 -2.79533502540254  2.00092514221422  3.67580777597760
 1 -3.21937153405341  0.27116230073007  4.16091126732673
 1 -2.44124963336334 -2.02571730483048 -0.15736018321832
 1 -2.23834717411741 -0.38432224122412 -0.76526322052205
 1 -0.33069888968897  0.09008286188619  0.96556691799180
 1 -0.56261660096010 -1.66806876547655  1.50598810721072
 1 -4.12672748924893  5.67890225832583  0.79452225202520
 1 -5.25565077147715  6.83871878657866  1.46837613221322
 1 -4.65910399719972  5.55733377737774  2.61673580758076
 1 -7.83415842524252  6.82458233273327  1.33386494039404
 1 -8.76664201610161  5.93824398489849 -1.34351593769377
 1 -9.33663841044104  7.61323005050505 -0.48681890479048
 1 -12.48956331833183  3.81745093229323 -0.61489930303030
 1 -11.65981983028303  3.80039399679968 -2.35841515831583
 1 -13.11718274107411  2.89748758445845 -1.72196655205521
 1 -12.55159753295329 -1.10954988168817 -1.72526727782778
 1 -13.60088711321132  0.32032618731873 -1.74706706550655
 1 -12.14996062596260  0.83517033013301 -4.09842718701870
 1 -11.62042701070107 -0.71713928752875 -3.88244719681968
 1 -13.38518527202720 -0.48311740654065 -3.94411195349535
 1 -9.97313386218622 -4.61508082788279 -0.40473277527753
 1 -9.54100807970797 -4.47440538653865 -2.24988188638864
 1 -8.54538971367137 -5.56400466746675 -0.74694264976498
 1 -3.86544839623962 -3.83038932913291 -0.35873722232223
 1 -2.24736512951295 -6.57737283298330  2.56938027212721
 1 -2.10108855525553 -5.09809329322932  3.62435687828783
 1 -3.83071608800880 -5.99815490709071  3.33607048264827
 1  2.78298220572057 -2.30890853435344 -1.36150731773177
 1  2.24855975047505 -0.41616919771977 -1.93186095329533
 1  3.93395616731673 -0.92066438073807  0.70065796879688
 1  5.46776860606061  1.68458096709671 -2.24948966876688
 1  5.41466808400840  0.01463742624262 -3.27102850445045
 1  3.98634875307531  0.42154334113411 -2.71221204630463
 1  6.50302831903190  1.28346447144714 -0.19204939603960
 1  6.37443548824882 -0.16872676227623  0.58369607700770
 1  7.23224000890089 -1.68065479007901 -1.00199095869587
 1  7.76901644414442 -0.10409838923892 -1.82200702970297
 1  9.04007949534953  0.99136797809781 -0.07194704640464
 1  8.62947601040104 -0.42654680618062  0.96244905730573
 1  10.18671133973397 -0.70728817211721 -1.80032460746075
 1  9.15673598979898 -2.89759845304530 -0.92521106890689
 1  10.93965899699970 -2.87231883168317 -1.09721032593259
 1  10.27676269636964 -2.78150983658366  0.59202093279328
 1  11.08356365376538  0.99988876897690  0.12133071827183
 1  11.29581554505451 -0.68997423392339  1.06362629282928
 1  12.76900161076108 -1.59083065426543 -0.98803201620162
 1  12.70512866506651 -0.25152523152315 -1.86921845554555
 1  13.35602675757576  1.07515722652265  0.34001691259126
 1  13.93896812381238 -0.40956738453845  1.18510535643564
 1  15.15127747194719  0.32607381348135 -1.44470648394839
 1  14.83244879777978 -2.22449503130313 -0.81542087528753
 1  16.42959683318332 -1.62604664126413 -1.12296808070807
 1  15.77103238203820 -1.73030816341634  0.50002927432743
 1  16.04871514471447  2.12507907820782  0.28232869186919
 1  16.24157881468147  0.46764738803880  1.40764418701870
 1  18.14865608730873 -0.28098230873087 -0.24112398019802
 1  17.60598518411841  1.05506739503950 -1.53932236473647
 1  17.61738642814282  2.88106450235023  0.33746913661366
 1  18.50338259245925  1.56328213771377  1.55328247824782
 1  20.24746107850785  0.86976493749375 -0.22953179697970
 1  19.79697705430543  3.70886915701570 -1.29465136753675
 1  21.25234247794780  2.80355842554255 -1.52239534613461
 1  19.57838281128113  2.10115573727373 -2.17539972147215
 1  21.07997323382338  2.07879934793479  1.97276831343134
 1  21.89425228242824  2.59794982238224  0.44262841994199
 1  20.68684831423142  3.53990719031903  1.22104084198420
 1 -6.83957579067907  1.69180805400540  0.66556840294029
 1 -7.70189173757376 -0.25963613961396  0.07791766416642

