%nproc=3
%Mem=2GB
# td=(NStates=1) B3LYP/SVP 

TD

0 1
 6 -5.03944164226423 -1.91323756585659  0.35873074897490
 6 -4.76528684768477  2.77120357205721  1.42106849274927
 6 -9.30987089678968  3.23424422362236 -0.22725119301930
 6 -9.82335038953895 -1.50652145554555 -1.02820537393739
 7 -5.24864402670267  0.45545716861686  0.82863130013001
 6 -4.52013062916292 -0.71090781178118  0.76464990839084
 6 -3.08979866636664 -0.48397483218322  1.29950494629463
 6 -3.10716568196820  0.91308020032003  1.83907301310131
 6 -4.47136632973297  1.48536835473547  1.33095669266927
 6 -3.00151872037204  0.93191070337034  3.45924378697870
 6 -2.08484055475548 -0.78267822952295  0.04571251685169
 6 -0.78373158535854 -0.69915813241324  0.47452990569057
 6  0.33334699609961 -0.98850572347235 -0.79062061966197
 8 -0.00262849524952 -1.25405777237724 -1.89457306880688
 8  1.53048324542454 -0.70267704080408 -0.36827927062706
 7 -7.03123771837184  2.73173044484448  0.46155566476648
 6 -5.92120369576958  3.37400181848185  0.98395925282528
 6 -6.25578876457646  4.79893633313331  1.05689218201820
 6 -7.58086718351835  4.92124095959596  0.57231375877588
 6 -8.03391433733373  3.61711020472047  0.22151230663066
 6 -5.41996251275128  5.86589210431043  1.63146441244124
 6 -8.35630291299130  6.25416942854285  0.41911041234123
 6 -9.08168606680668  6.59817953985399 -0.58303078187819
 7 -9.17649585018502  0.86461369436944 -0.48190065846585
 6 -9.85632949584958  2.01764426312631 -0.46328559775978
 6 -11.25781964846485  1.84078763976398 -0.97023085698570
 6 -11.45352930343034  0.58052539263926 -1.18530348504850
 6 -10.18345057075708 -0.05454540624062 -0.97593083558356
 6 -12.25459396029603  2.94215271687169 -1.37460055035504
 6 -12.65965370487049 -0.26195867536754 -1.58206916661666
 6 -12.47599773047305 -0.68768203260326 -3.12761093239324
 7 -7.49468842644264 -1.27612929812981 -0.22526105460546
 6 -8.64688627612761 -2.07307603440344 -0.58830219261926
 6 -8.15382782178218 -3.52504938713871 -0.50713328062806
 6 -6.78742365146515 -3.43376020432043 -0.11054867876788
 6 -6.38397950135014 -2.01788460706071  0.10132520872087
 6 -9.00285304290429 -4.57947869736974 -0.81227022142214
 6 -5.66463340854085 -4.25677071217122  0.15943688928893
 8 -5.58425791599160 -5.44796432653265 -0.01173843974397
 6 -4.46202383098310 -3.27781854345434  0.51180024212421
 6 -3.92802660056006 -3.71591568506851  1.83561008670867
 8 -4.08836390989099 -3.19507744164416  3.00865893399340
 8 -3.15934462206221 -4.81921689458946  1.62260268816882
 6 -2.69471417521752 -5.39513895999600  2.87262940254025
 6  2.65028719731973 -0.90051394899490 -1.20041406720672
 6  3.97851109790979 -0.61169167156716 -0.41802390249025
 6  5.01962421902190  0.01082213711371 -1.07429138573857
 6  5.19040823652365  0.65550628232823 -2.48182529932993
 6  6.33041478667867  0.17788552775278 -0.32075098929893
 6  7.54814605500550 -0.51950813371337 -0.96129299619962
 6  8.84254585568557 -0.26482046714671 -0.32848119561956
 6  10.14123504920492 -0.80883521012101 -0.94730208500850
 6  10.08223426202620 -2.31105490839084 -1.36091537643764
 6  11.32830668086809 -0.46840115481548 -0.05213576927693
 6  12.68627030123012 -0.59130444764476 -0.73201772487249
 6  13.93512210161016 -0.13773099929993  0.15338739423942
 6  15.27341625342534 -0.18516939843984 -0.53810736863686
 6  15.62971254305431 -1.62587145254525 -1.08241701000100
 6  16.29823056735674  0.48062257955796  0.43363238553855
 6  17.64791968076808  0.72555547324732 -0.12010591199120
 6  18.56473739803980  1.45287961686169  0.83088390459046
 6  20.10192209380938  1.71669947454745  0.36333806130613
 6  20.19608030693069  2.42132870897090 -0.99969804760476
 6  20.86934945624563  2.48515985478548  1.50519230743074
 1 -3.92832049234923  3.29297052905291  1.88755363626363
 1 -9.84609246234623  4.22377962006201 -0.29673099579958
 1 -10.57647190359036 -2.23906106160616 -1.20658013111311
 1 -2.96110843784378 -1.23503273847385  2.18835971167117
 1 -2.31744305880588  1.42391261446145  1.29125203740374
 1 -2.08019827782778  0.39393576197620  3.86364546854685
 1 -3.16545203710371  2.04856990669067  3.80484067926793
 1 -4.05793539043904  0.63060824532453  3.88733390959096
 1 -2.44972048044804 -1.71723645674567 -0.44515896309631
 1 -2.33443678307831  0.04761095209521 -0.78631532573257
 1 -0.52074789458946  0.35693954755476  0.91767212851285
 1 -0.61547188648865 -1.44836679527953  1.13797130553055
 1 -4.53037785428543  6.09370373847385  0.97002980278028
 1 -5.99306451285129  6.85245015971597  1.84908420302030
 1 -5.13397148394839  5.73915195919592  2.67079121312131
 1 -8.21411642104210  6.74891476597660  1.18689024292429
 1 -9.14820017191719  6.15957611811181 -1.73072465856586
 1 -9.45108985558556  7.75946467396740 -0.73352357525753
 1 -12.35365972797280  3.27451663886389 -0.27964577767777
 1 -11.73647749604961  3.75453941134113 -2.18116743354335
 1 -13.15896691949195  2.47947578327833 -1.65680003540354
 1 -12.99899227242724 -1.01430035673567 -0.85819057015702
 1 -13.54994201870187  0.46977113181318 -1.58610096889689
 1 -12.39153478337834  0.22212902600260 -3.81333867816782
 1 -11.66807177517752 -1.50041761536154 -3.42735168726873
 1 -13.50479723322332 -1.14795389018902 -3.61584912721272
 1 -9.81983853265327 -4.76238555835584  0.15655335333533
 1 -9.52159613851385 -4.41308925492549 -1.81641854005401
 1 -8.32806798149815 -5.40822908990899 -0.78014597009701
 1 -3.74791664306431 -3.62371866206621 -0.25292664126413
 1 -2.18559895289529 -6.57327242294229  2.60728406250625
 1 -1.91536998339834 -4.62306579047905  3.14533897649765
 1 -3.52503551995200 -5.35240033163316  3.88361523712371
 1  2.78734264176418 -1.94724236773677 -1.57954912191219
 1  2.54006890139014 -0.34828240904090 -2.11755952315232
 1  4.28126089778978 -1.17249956425643  0.56174407740774
 1  5.36713854305430  1.74705721472147 -2.47837255705571
 1  5.96083270047005  0.17882384488449 -3.12660406200620
 1  4.12262238043804  0.70464165096510 -2.87241806690669
 1  6.53411142734273  1.27592371737174 -0.23060325142514
 1  6.04135217991799 -0.13416330593059  0.81753946134613
 1  7.35081186608661 -1.54374109870987 -1.07057781738174
 1  7.41547108960896 -0.28074605400540 -2.07112194119412
 1  8.94153964136414  0.77297613891389  0.00120026832683
 1  8.51803486628663 -0.90169432093209  0.63574638703870
 1  10.37423009160916 -0.18319576287629 -1.89043361836184
 1  9.44154447064706 -2.85497419061906 -2.04575312311231
 1  11.18484351545154 -2.30043164296430 -1.66810741564156
 1  10.04372939303931 -3.01687337293729 -0.40827909720972
 1  11.41997729512951  0.58057683778378  0.41302988818882
 1  11.44987095059506 -1.17031226772677  0.85161509170917
 1  13.03449816041604 -1.72328389958996 -0.92251546454645
 1  12.78187633983398  0.07804772577258 -1.57721925562556
 1  13.76988814371437  1.03488319911991  0.19280219111911
 1  13.83217744474447 -0.73440986878688  1.09874672057206
 1  15.27825016921692  0.55232643874387 -1.50862287558756
 1  14.87330288318832 -2.07719030083008 -1.90956028922892
 1  16.65922979647965 -1.53598763536354 -1.70538632253225
 1  15.69733501230123 -2.65304043664366 -0.24242497109711
 1  16.05500577377738  1.54439100940094  0.68986944594459
 1  16.41166582338234 -0.09751912861286  1.61910533313331
 1  18.11151237293729 -0.37313152365237 -0.48160802860286
 1  17.60061464706471  1.46121801010101 -1.14101253375338
 1  17.92015670517052  2.45749214511451  1.35811120082008
 1  18.81380363456346  0.80948675817582  1.95601275127513
 1  20.43770010241024  0.82061002200220  0.36455761196120
 1  19.60297765436544  3.21996026612661 -0.84376627902790
 1  21.38495573927393  2.99892796249625 -1.32233534013401
 1  20.00551552455245  1.66080170187019 -1.80924310581058
 1  20.82610784728473  1.97068853685368  2.50520155675568
 1  22.03385624282428  2.44136416381638  1.24628878597860
 1  20.41425105450545  3.51713491309131  1.60559929782978
 1 -7.18983081618162  1.82381125432543  0.21071291739174
 1 -7.63977552595260 -0.27429760576058 -0.08211833943394

