%nproc=3
%Mem=2GB
# td=(NStates=1) B3LYP/SVP 

TD

0 1
 6 -5.08743644174417 -1.86624286638664  0.43103797969797
 6 -4.70980129912991  2.81021747344735  1.14863124902490
 6 -9.45975588528853  3.15758655785579 -0.08725719361936
 6 -9.81416947144714 -1.53590439383938 -0.90534308770877
 7 -5.16536569886989  0.50500212311231  0.73739217621762
 6 -4.45707432353235 -0.59448616961696  0.78716215961596
 6 -2.94965465196520 -0.48344477917792  1.13932892869287
 6 -3.04681964736474  0.93141203350335  1.75902500830083
 6 -4.33092228532853  1.53037285518552  1.22619621662166
 6 -2.89863843234323  1.09476698899890  3.24614247684768
 6 -2.01711378207821 -0.66224618631863  0.03305125072507
 6 -0.48966217841784 -0.71218943554355  0.38584103680368
 6  0.42666632803280 -0.81221809470947 -0.74752631023102
 8  0.04339610721072 -0.94457682428243 -2.01930554205421
 8  1.65769596669667 -0.77405417851785 -0.33439588228823
 7 -7.02679727432743  2.76110338213821  0.47055656485649
 6 -5.95632720812081  3.42909732803280  0.88641949884988
 6 -6.32735592129213  4.81050749024903  0.94983147594759
 6 -7.77645674247425  4.94879371487149  0.68077460486049
 6 -8.17942888878888  3.58346684038404  0.29631978737874
 6 -5.32851336783678  5.85712122722272  1.37468873487349
 6 -8.44782206490649  6.30868488008801  0.50031853315332
 6 -9.41331923012301  6.63394311621162 -0.39685216401640
 7 -9.37152535313531  0.79476670967097 -0.45504797319732
 6 -10.09067293019302  1.91223372207221 -0.44358362756276
 6 -11.43813768026803  1.71303486448645 -0.83715754965497
 6 -11.50229417991799  0.39843718381838 -1.05922087678768
 6 -10.20098232393239 -0.22061201290129 -0.87872111461146
 6 -12.47068556945695  2.78545704730473 -1.01448453875388
 6 -12.67111485098510 -0.39605208470847 -1.65234619431943
 6 -12.70171030173017 -0.69240250465046 -3.20490866216622
 7 -7.44080303790379 -1.24832651785179 -0.11926045454545
 6 -8.53728531603160 -1.96383511031103 -0.54670803320332
 6 -8.08724116311631 -3.34681156335634 -0.56355892319232
 6 -6.77933284238424 -3.35111193949395 -0.20871849574958
 6 -6.41294239763976 -2.01946476507651 -0.03366829062906
 6 -8.80160291789179 -4.61083183268327 -0.90772976737674
 6 -5.63136008120812 -4.29424445954595  0.07768871447145
 8 -5.61268075827583 -5.49098862896290  0.06677941204120
 6 -4.43418104670467 -3.31422218381838  0.46675573767377
 6 -3.86365016291629 -3.78826291979198  1.72243876957696
 8 -4.24464953845384 -3.44711264516452  2.80774884298430
 8 -2.80635932353235 -4.66343131603160  1.47843827172717
 6 -2.19769447324732 -5.19918936503650  2.63597573717372
 6  2.68907107570757 -0.86975087268727 -1.33105713151315
 6  4.02062530933093 -0.71264176657666 -0.61107320742074
 6  5.01802405900590  0.16871792669267 -1.07162111871187
 6  4.96439563526353  1.01037176887689 -2.27166428322832
 6  6.30086183138314  0.28142588178818 -0.27989690389039
 6  7.50498173857386 -0.51415759865987 -0.95525239213921
 6  8.83786538763876 -0.21437542264226 -0.09744809230923
 6  10.11282220792079 -0.82890721732173 -0.76002335713571
 6  10.07839387798780 -2.26800060296030 -0.81905119001900
 6  11.30313416361636 -0.28928324302430  0.05674511881188
 6  12.67193886808681 -0.76867218441844 -0.47868239133913
 6  13.84745333473347 -0.28756598279828  0.34624668016802
 6  15.14652356415641 -0.41676255775578 -0.33331688958896
 6  15.68827839963996 -1.83109197459746 -0.45419418771877
 6  16.24779552385239  0.49758427572757  0.49761878417842
 6  17.53354824362436  0.61810472817282 -0.20979488088809
 6  18.55108603290329  1.49932426132613  0.60363117931793
 6  20.07963986558656  1.53335113971397  0.16409813731373
 6  20.20814151305131  2.19586616271627 -1.21546962476248
 6  21.02394491579158  2.35585692449245  1.19747153535354
 1 -3.81457911821182  3.44040527252725  1.50091497239724
 1 -10.30730858395840  3.99756699879988 -0.22011333403340
 1 -10.36002025842584 -2.23345050055006 -1.18238771187119
 1 -2.67099942694269 -1.18212744794479  1.95880675637564
 1 -2.17469878437844  1.67082730593059  1.31881479367937
 1 -1.80961121912191  0.68360472887289  3.56607571157116
 1 -2.99792528442844  2.20451550125012  3.62110230543054
 1 -3.72828242514251  0.36162134663466  3.66156133233323
 1 -2.28505401380138 -1.74457919101910 -0.41527597479748
 1 -2.26326966636664  0.20390658165817 -0.73832052625263
 1 -0.46957277707771  0.05182903650365  1.02824318561856
 1 -0.15445578487849 -1.54598655725573  1.00030753915392
 1 -4.42759757625763  5.97147151525153  0.78238103790379
 1 -5.82926813321332  6.91095601030103  0.96346564116412
 1 -5.01273936073607  5.82413045704570  2.38073220722072
 1 -8.32979798919892  6.93180305480548  1.30816237013701
 1 -9.61108646054605  6.18976913741374 -1.35068665476548
 1 -9.87005175177518  7.65925465296530 -0.38921914481448
 1 -12.60682504450445  3.10127931513151 -0.08002581568157
 1 -12.17564141244124  3.70987494489449 -1.67303662046205
 1 -13.38732975577558  2.34499233493349 -1.49890424582458
 1 -12.71120349354935 -1.27610653735374 -0.97530228132813
 1 -13.60612763726373  0.32289644434443 -1.48024038283828
 1 -12.58644427432743  0.16230304340434 -3.84076142044204
 1 -12.09468443644364 -1.50245781938194 -3.56258521062106
 1 -13.70594734823482 -1.08985808060806 -3.29859740204020
 1 -9.85326187498750 -4.46758607840784 -0.27073937593759
 1 -9.30653463236324 -4.78890683668367 -1.94538143634363
 1 -8.24293946864687 -5.49224749174918 -0.57744570007001
 1 -3.58490034143414 -3.43346963716372 -0.16134748334833
 1 -1.15409580258026 -5.66939203490349  2.19964329842984
 1 -2.03348179457946 -4.35385886978698  3.35574001660166
 1 -2.71888490489049 -5.93437852945295  3.21998887448745
 1  2.80072397989799 -1.94410205370537 -1.95304647164716
 1  2.51667656215622 -0.00121770257026 -2.04848261546155
 1  4.24511728342834 -1.17927024132413  0.37903580658066
 1  5.33000482968297  2.01693420242024 -2.34058877867787
 1  5.49404602180218  0.71262722522252 -3.16594799639964
 1  4.12217233543354  0.91527271407141 -2.87320814591459
 1  6.65108312451245  1.40488661366137 -0.33404359545955
 1  6.13218126282628 -0.08340823042304  0.66643435083508
 1  7.42073885878588 -1.61554827942794 -1.09276003560356
 1  7.61344088658866 -0.21098907830783 -2.08398322732273
 1  8.96279176657666  0.85023386468647 -0.01056090779078
 1  8.65428849164917 -0.72518667016702  0.84902771517152
 1  10.28935160376038 -0.35505294859486 -1.77152172717272
 1  9.21962227842784 -2.63155184838484 -1.21734028182818
 1  10.90908593969397 -2.97391899169917 -1.10545115001500
 1  9.76891191129113 -2.47963964956496  0.22485421612161
 1  11.17065236263626  0.81651043114311  0.21459004420442
 1  11.18951491499150 -0.64152938943894  1.20234016421642
 1  12.92761747234723 -1.84301587278728 -0.72091530453045
 1  12.82821097329733 -0.43128320732073 -1.51252278597860
 1  13.59640079497950  0.80743045384539  0.51909482038204
 1  13.86080030703070 -0.80379680748075  1.16577342324232
 1  15.13836618081808  0.07912911901190 -1.40314232753275
 1  14.84333988688869 -2.29121170297030 -1.14841417461746
 1  16.58256212971297 -1.87288132473247 -1.03459924382438
 1  15.81603688248825 -2.29905503810381  0.39689896129613
 1  15.58486876007601  1.44920149044905  0.61562202120212
 1  16.37118177497750  0.08787941124112  1.63369679227923
 1  18.29240046174617 -0.34604881538154 -0.34353422122212
 1  17.42138672427243  1.01355324362436 -1.28006643914391
 1  18.33007769726973  2.53946034193419  0.53015840554055
 1  18.69929218341834  1.22133794329433  1.56929407940794
 1  20.32938927132713  0.40608856985699  0.10138129432943
 1  19.85310266686669  3.13073134323432 -1.38073997639764
 1  21.23585082878288  2.44980305000500 -1.53440654725473
 1  19.72767774077408  1.64293991569157 -1.96508869036904
 1  20.90529576607661  1.88887035503550  2.17212824942494
 1  22.19014187138714  2.36338636603660  0.67617177427743
 1  20.80194982438244  3.38298149774978  1.41969070697070
 1 -7.05015684878488  1.66093496669667  0.39441128722872
 1 -7.68124967336734 -0.17626780278028 -0.00755088268827

