%nproc=3
%Mem=2GB
# td=(NStates=1) B3LYP/SVP 

TD

0 1
 6 -5.12272997109711 -1.91884812691269  0.56893176907691
 6 -4.72727304630463  2.82298875057506  1.42169855575558
 6 -9.42049195889589  3.30840163936394 -0.19224769266927
 6 -9.81887994249425 -1.48571937533753 -0.87373992739274
 7 -5.11324048634864  0.50704232713271  0.89312774977498
 6 -4.40601921802180 -0.74337105810581  0.94311775517552
 6 -3.00793047954796 -0.49561599629963  1.33331832763276
 6 -2.96484144954495  1.02925181748175  1.82090119591959
 6 -4.40921011411141  1.44838465636564  1.33443704070407
 6 -2.74039260776078  1.12539005130513  3.33920178277828
 6 -2.03566563726373 -0.83024298599860  0.16087403300330
 6 -0.58794200640064 -0.70246846344634  0.52163461616162
 6  0.39899356075608 -0.95129200210021 -0.64919647724772
 8  0.04523629122912 -1.33383575017502 -1.76270988248825
 8  1.68540873797380 -0.68484525762576 -0.22348479117912
 7 -7.11039563416342  2.69722699449945  0.52472198139814
 6 -5.97522909830983  3.40066448474848  0.99021987888789
 6 -6.28916210191019  4.78517495699570  0.91628812161216
 6 -7.57426652345235  4.90179901540154  0.47882440984098
 6 -8.05864681058106  3.50097859155916  0.11986214161416
 6 -5.35721623812381  5.86588210331033  1.40177144314431
 6 -8.29476675937594  6.19083309490949  0.30521902320232
 6 -9.19750764896490  6.39955967786779 -0.66436891569157
 7 -9.22206040664066  0.84409164216422 -0.48197066546655
 6 -9.96189005190519  2.00283278197820 -0.51720098929893
 6 -11.27765163166317  1.82948650965097 -1.02086592049205
 6 -11.42058600910091  0.48974631473147 -1.09660461516152
 6 -10.17852007770777 -0.14435438713871 -0.77347058955896
 6 -12.36972547344734  2.87044554615462 -0.95884897519752
 6 -12.64769250875088 -0.40497297679768 -1.57120808050805
 6 -12.78156828752875 -0.39159242364236 -3.09444761606161
 7 -7.49747870547055 -1.22482416761676 -0.17309583808381
 6 -8.56746833433343 -2.01024975177518 -0.59514287668767
 6 -8.14287672667267 -3.43534041624162 -0.68121068836884
 6 -6.84258916801680 -3.35330215851585 -0.10426805070507
 6 -6.42802390579058 -2.06838965756576  0.13714879107911
 6 -8.81313407100710 -4.66091684118412 -1.11397039143914
 6 -5.63901084628463 -4.23060809590959  0.03262420802080
 8 -5.54596408660866 -5.43897342744274 -0.16377364326433
 6 -4.50100772937294 -3.27692845444544  0.46296535863586
 6 -3.84577837573757 -3.75988008150815  1.76518304400440
 8 -3.97757283078308 -3.13079101300130  2.84404247234723
 8 -3.04004269186919 -4.78881385428543  1.53831425932593
 6 -2.55984068786879 -5.44168361446145  2.67461960156016
 6  2.77359952855286 -0.97516141374137 -1.20530455625563
 6  3.97028027482748 -0.53787428982898 -0.58847094719472
 6  4.98847110371037  0.10991204610461 -1.13145710231023
 6  4.91545074077408  0.60703143484348 -2.53527064386439
 6  6.31060280548055  0.39229696889689 -0.45322423662366
 6  7.36101734213421 -0.46492267516752 -0.98735560246025
 6  8.71452305340534 -0.30350433553355 -0.22092043954395
 6  9.95059598529853 -0.85552987958796 -0.81854920972097
 6  9.95281131973197 -2.35795959885989 -1.39165845074507
 6  11.23070692089209 -0.45869018371837  0.01601104540454
 6  12.67028870307031 -0.56445176237624 -0.63277780088009
 6  13.82093068246825 -0.14843206940694  0.21186324182418
 6  15.23322223402340 -0.14868575007501 -0.48319187708771
 6  15.60788035983598 -1.53677254265427 -0.61736050435043
 6  16.15539628392839  0.65088960626063  0.50755977827783
 6  17.60015490429043  0.77481039873987 -0.12871677307731
 6  18.58246917121712  1.55345967486749  0.77981879807981
 6  20.11323322492249  1.52752055665567  0.26374810231023
 6  20.28065876477648  2.20479705580558 -1.04851292909291
 6  20.89595211651165  2.25738707750775  1.37830961916192
 1 -3.91590925122512  3.62753398539854  1.71578645954595
 1 -10.05178303140314  4.23050029212921 -0.26498782148215
 1 -10.48507276367637 -2.21876903240324 -1.17142661576158
 1 -2.75111743874387 -1.17242647784778  1.99278015371537
 1 -2.16449776427643  1.64409463266327  1.19765267746775
 1 -1.62531278927893  0.74695106350635  3.45623472747275
 1 -2.76489198109811  2.23963901360136  3.63292348754876
 1 -3.53058265516552  0.77444262876288  3.88172334853485
 1 -2.43872938133813 -1.93326805990599 -0.10489493669367
 1 -2.43346668606861 -0.11779558855886 -0.68600529472947
 1 -0.57769358915892  0.51763561716172  0.98860922222222
 1 -0.31354169346935 -1.44151611021102  1.23456096449645
 1 -4.62756757325733  6.08125249334933  0.71752455225522
 1 -5.74648985538554  6.85357027172717  1.75821511611161
 1 -4.65536362316232  5.66099414341434  2.37705183918392
 1 -8.18165317471747  7.06277615211521  0.79714126802680
 1 -9.49338469036904  5.56566672717272 -1.38046963306331
 1 -9.74787953455346  7.41911063856386 -0.80121034393439
 1 -12.37157151915192  3.25306449364936  0.05837802470247
 1 -12.46699054735474  3.90917487488749 -1.50928024482448
 1 -13.33982500530053  2.59723755945595 -1.41118547394739
 1 -12.55432780598060 -1.31342026872687 -1.22079683078308
 1 -13.45610263476348  0.02678683338334 -0.94823718251825
 1 -13.08015364526453  0.50991780488049 -3.47272461676168
 1 -11.79110407840784 -0.87277485108511 -3.55308426052605
 1 -13.63249000250025 -1.08935803060306 -3.28924646694669
 1 -9.41248779757976 -5.29192851265127 -0.19595189718972
 1 -9.39281326022602 -4.04018196419642 -2.00439733793379
 1 -8.10097527222722 -5.39356762376238 -1.89308726422642
 1 -3.58541039243924 -3.24130042024202 -0.25705705430543
 1 -2.28992938593859 -6.54277937363736  2.25007834193419
 1 -1.54636308270827 -4.89758324222422  3.02448689128913
 1 -3.58640165656566 -5.50468556015602  3.39718659425943
 1  2.47778168566857 -2.16631427492749 -1.10723189018902
 1  2.64705960046005 -0.57996557735774 -2.20002776997700
 1  4.17553032473247 -1.12088440274027  0.39466736973697
 1  4.97234906410641  1.75953846284628 -2.59417413721372
 1  5.75270188738874 -0.06900093759376 -2.99162056365637
 1  3.97283740194019  0.49557074387439 -2.95686651175118
 1  6.70365838203820  1.45745187018702 -0.71365155625563
 1  5.99299734443444  0.12499260966097  0.46495420282028
 1  7.18772555745575 -1.56607333193319 -1.16673743334333
 1  7.76782632513251  0.11615363596360 -1.91404623362336
 1  8.88438392579258  0.75166400770077  0.01688183648365
 1  8.61555461826183 -0.74019817131713  0.81078389078908
 1  10.01482415101510 -0.45036247954795 -1.74987956295630
 1  9.09401971817182 -2.40926962016202 -1.92027057485749
 1  11.05463049414941 -2.45855745554556 -2.13886449134913
 1  9.83658867896790 -3.18815050065006 -0.56519478877888
 1  11.20913621102110  0.54718349844985  0.69206779197920
 1  11.18357432093209 -1.14538977547755  1.10954088428843
 1  12.93580829142914 -1.68408998019802 -0.77393060606061
 1  12.66026417861786  0.00097001800180 -1.67600913461346
 1  13.80540169506951  0.85277498829883  0.46886979787979
 1  14.08131235823582 -0.90546697449745  1.13018986488649
 1  15.10344268846885  0.61843304940494 -1.46555856915692
 1  14.89019457235723 -2.14775735753575 -1.21837117031703
 1  16.57151102460246 -1.70327436403640 -1.10944672857286
 1  15.31078635743574 -2.15176030863086  0.39533880528053
 1  15.86286655985599  1.62436900720072  0.65508596759676
 1  16.31974663146315  0.05257588088809  1.47559098169817
 1  18.12386360806081 -0.13918812931293 -0.24375424322432
 1  17.58274285988599  1.22323421172117 -1.16401483398340
 1  18.09992468196820  2.70049644554455  0.76972236193619
 1  18.59064131833183  1.07216302580258  1.79598674867487
 1  20.60285661806181  0.65885384638464  0.20748190439044
 1  19.66937429402940  3.37924619471947 -1.14488639103910
 1  21.34033127682768  2.53410147984798 -1.17909101570157
 1  19.88334330733073  1.40767638933893 -1.87893007450745
 1  20.55808104460446  1.94166563456346  2.39106014261426
 1  22.02344520172017  2.30148017541754  1.31693585068507
 1  20.53016264566457  3.24682788238824  1.40378911681168
 1 -7.15832766586659  1.61925079827983  0.36249809590959
 1 -7.75777732613261 -0.36085626162616 -0.06731685928593

