%nproc=3
%Mem=2GB
# td=(NStates=1) B3LYP/SVP 

TD

0 1
 6 -5.16811450955096 -1.96966320842084  0.36149102500250
 6 -4.62377269626963  2.68818527022702  1.50480686658666
 6 -9.28583849354935  3.43184398359836 -0.37615608350835
 6 -9.80152820732073 -1.43767457085709 -0.83965651905190
 7 -5.20444960726073  0.39048067096710  0.93078151515151
 6 -4.44219283538354 -0.79523624462446  0.83334677807781
 6 -3.01715140164016 -0.59183561826183  1.27609260506051
 6 -2.97419238463846  0.92394128642864  1.80149925572557
 6 -4.33803299639964  1.38809862776278  1.46642023902390
 6 -2.82606117461746  0.85754326662666  3.28556641924192
 6 -2.02837490819082 -0.72892285398540  0.03118106370637
 6 -0.59393260546055 -0.82231044764476  0.52817527022702
 6  0.37590125152515 -1.23251012391239 -0.48039959755976
 8  0.07990975857586 -1.88770113671367 -1.50368397989799
 8  1.63959415651565 -0.78790556365637 -0.21704414711471
 7 -6.95518011261126  2.77861513331333  0.55040454965497
 6 -5.81507308270827  3.37926234453445  1.02304316121612
 6 -6.08960214591459  4.76891333083308  1.07027352015202
 6 -7.40592968976898  4.95958479397940  0.47720424782478
 6 -7.97924887078708  3.65134362806281  0.13058321372137
 6 -5.08043856035604  5.90914642974297  1.43342460846085
 6 -8.10772805550555  6.35627963956396  0.26968546984698
 6 -8.98093599179918  6.65449517141714 -0.64159663846385
 7 -9.10511871247125  0.97545477847785 -0.64256672507251
 6 -9.78298216111611  2.12804530323032 -0.65841511071107
 6 -11.21107497399740  1.90888444944494 -1.01099493339334
 6 -11.38406235673567  0.57916525662566 -1.07599255395540
 6 -10.04622684838484 -0.05788574027403 -0.69478272077208
 6 -12.17529603050305  3.03055155675568 -1.17734082438244
 6 -12.67783552305231 -0.18992147164716 -1.46079703940394
 6 -12.74459459015902 -0.51500476487649 -2.97199537083708
 7 -7.53514247184718 -1.31330301550155 -0.06114464296430
 6 -8.66703829132913 -2.04581330813081 -0.44370773317332
 6 -8.20453289228923 -3.40025690789079 -0.56486905420542
 6 -6.89230413951395 -3.41438826712671 -0.18108573247325
 6 -6.50491159455946 -2.06235905450545  0.01826690289029
 6 -9.12364512211221 -4.40410115961596 -1.09709870427043
 6 -5.70933787898790 -4.27278231333133  0.01119206480648
 8 -5.67371686188619 -5.45524505460546 -0.18532579847985
 6 -4.41316894549455 -3.30192095369537  0.44727378947895
 6 -3.95601939983998 -3.81419551305131  1.78118464416442
 8 -4.15872094559456 -3.43573150705070  2.85468353645365
 8 -3.06586527412741 -4.80875584848485  1.50944137203720
 6 -2.48979368316832 -5.43840328642864  2.62237437703770
 6  2.71337350595060 -1.35362926052605 -1.07607163296330
 6  4.09649289608961 -0.78248875127513 -0.58287038713871
 6  4.90666292289229 -0.06905585068507 -1.26772072867287
 6  4.74395359105911  0.51706243794379 -2.77903502030203
 6  6.14959670487049  0.29052679187919 -0.52355126932693
 6  7.37261850225022 -0.36730291319132 -1.13085995289529
 6  8.59005060616062 -0.29655364046405 -0.28788713621362
 6  10.05704663036304 -0.70278460506051 -0.89810716551655
 6  10.03759979857986 -2.27449125202520 -1.37859714461446
 6  11.21729557975798 -0.39342365706571  0.12763220752075
 6  12.52829450365036 -0.49864518171817 -0.56975149824983
 6  13.76137472687269 -0.03947117331733  0.33484554005401
 6  15.14096300810081 -0.21158203970397 -0.17264082198220
 6  15.62197176897690 -1.58546741214121 -0.54267303560356
 6  16.15259600390039  0.71173569086909  0.49325834813481
 6  17.56682157095710  0.92103502120212 -0.15129903130313
 6  18.54713563786379  1.69930425932593  0.77842865906591
 6  19.99452135373537  1.82097990259026  0.28256998449845
 6  20.21605230413041  2.24251082718272 -1.16547462526253
 6  20.76969949124913  2.62539387818782  1.28347013521352
 1 -3.92707036733673  3.40275150715072  1.92017689858986
 1 -9.92021987508751  4.35991323342334 -0.36896821952195
 1 -10.54539879627963 -2.00681783728373 -1.02749222232223
 1 -2.72963529052905 -1.39356859205921  2.05168604430443
 1 -2.04008532303230  1.57535775897590  1.14852776497650
 1 -1.88858911691169  0.36113248164816  3.68351745574557
 1 -2.80908640054005  1.77323237293729  3.79990018521852
 1 -3.60858045494549  0.42423760826083  3.84830000620062
 1 -2.25779128752875 -1.63097783088309 -0.48882332953295
 1 -2.14530787018702  0.25204139513951 -0.78490518471847
 1 -0.46375219501950 -0.00738688508851  1.16837719901990
 1 -0.50966130543054 -1.78072003060306  1.33986149454946
 1 -4.09613442994300  6.04014838293829  0.82283508330833
 1 -5.45189039543954  7.04858977367737  1.37747704230423
 1 -4.58942702950295  5.53579162316232  2.44335846984698
 1 -7.71140615001500  7.07191706620662  1.05821737563756
 1 -9.20708606050605  5.95230539103910 -1.51037262336234
 1 -9.44218896549655  7.53881260876088 -0.82285250815082
 1 -12.26450081208121  3.78351753895390 -0.29405721882188
 1 -11.94039788808881  3.64339829722972 -1.98321763856386
 1 -13.11299232203220  2.36834467016702 -1.13221757715772
 1 -12.58611098429843 -1.08484741144114 -0.83468821992199
 1 -13.58350537503750  0.38538269296930 -1.13893625242524
 1 -12.48840447034704  0.38087490059006 -3.72505985028503
 1 -11.98662363036304 -1.28328590219022 -3.40016896899690
 1 -13.81840859435944 -0.95423451825183 -3.29298684098410
 1 -10.16873342214221 -4.46306562636264 -0.42008431043104
 1 -9.41720569946995 -4.32467041304130 -2.10562746094609
 1 -8.68032320702070 -5.55427369436944 -0.74092204770477
 1 -3.82620447184718 -3.35119140934093 -0.39687103570357
 1 -1.47233762676268 -5.84082917861786  2.41349468356836
 1 -2.39179762616262 -4.60798428232823  3.44844928752875
 1 -3.12247526392639 -6.30658575017502  2.85364223982398
 1  2.71245515301530 -2.40646829032903 -1.31879304630463
 1  2.52033692819282 -0.89410699149915 -2.21613938113811
 1  4.27828059975998 -1.13561587588759  0.41432933593359
 1  5.11469329852985  1.58897140614061 -2.84141886168617
 1  5.46225284248425  0.03022898539854 -3.28414981658166
 1  3.73549366756676  0.56151733853385 -3.08387921302130
 1  6.30451846804680  1.34471059605961 -0.32995318641864
 1  6.09143718841884 -0.11640152975298  0.33519122652265
 1  7.15040182508251 -1.32387911251125 -1.37217797739774
 1  7.73912345484549  0.15318733933393 -2.11692652165217
 1  8.61324681208121  0.80556939823982  0.19084923322332
 1  8.69639270207021 -0.85872002350235  0.44676748914892
 1  10.37936060466047 -0.03121056435644 -1.79593416841684
 1  9.18086840304030 -2.45586427962796 -2.24687323512351
 1  11.16683171427143 -2.60784238403840 -1.80731133603360
 1  9.70991601170117 -2.74988667426743 -0.63336160546055
 1  11.04106940434044  0.77775655575558  0.73172175737574
 1  11.16273223672367 -1.22497773427343  0.95370530073007
 1  12.52604731533153 -1.43790536173617 -1.34735794879488
 1  12.51073922612261  0.24313423442344 -1.49846137983798
 1  13.61486264116412  1.07892760356036  0.50723363426343
 1  13.46809103610361 -0.69670609840984  1.26787363326333
 1  15.20005234943494  0.15290649674968 -1.24063607690769
 1  14.98377393029303 -2.24067664946495 -1.43088242144214
 1  16.46406027952795 -1.75832986958696 -1.11454723862386
 1  15.90078535733573 -2.31556668926893  0.26555582698270
 1  15.59273954715472  1.57745431573157  0.78348880788079
 1  16.40074473127313  0.28579920322032  1.51142456505651
 1  18.07173839553955 -0.04533874437444 -0.26330619841984
 1  17.42802738833883  1.51286317461746 -1.00525895839584
 1  18.05897058655866  2.79839623552355  0.87902329202920
 1  18.37474972917292  1.41474728422842  1.75149229922992
 1  20.48982531493149  0.72321028202820  0.38699985618562
 1  19.50421777837784  3.14921319141914 -1.17875977837784
 1  21.25783302700270  2.26054412411241 -1.67009011561156
 1  19.69558453145315  1.64038966066607 -1.85796797829783
 1  20.44089932643265  2.03683515151515  2.19909094569457
 1  21.77302015921592  2.81715174257426  1.00187434453445
 1  20.15588521792179  3.68227142674268  1.43323206110611
 1 -7.03707554065407  1.86699557275728  0.33499534563456
 1 -7.36257780618062 -0.23483365936594 -0.05599572717272

