%nproc=3
%Mem=2GB
# td=(NStates=1) B3LYP/SVP 

TD

0 1
 6 -5.03124082218222 -1.93289953205320  0.44886976287629
 6 -4.71732205120512  2.72520897259726  1.25239162506251
 6 -9.36359626932693  3.28873967316732 -0.18579704760476
 6 -9.80854890939094 -1.53189399279928 -0.94683723712371
 7 -5.13652281458146  0.47363898679868  0.63163160016002
 6 -4.50518913501350 -0.67625434643464  0.79628307170717
 6 -3.03442312881288 -0.45547198189819  1.27602259805981
 6 -3.00281524692469  0.95135402770277  1.84254336013601
 6 -4.32908210131013  1.38069788768877  1.24587818481848
 6 -2.95103367186719  0.97627513981398  3.38706656925693
 6 -2.07261933263326 -0.75579554125413  0.18405635123512
 6 -0.60769398159816 -0.83837205380538  0.53205565826583
 6  0.37099076047605 -0.94444131703170 -0.57422898049805
 8  0.06900866846685 -1.22398476507651 -1.75167877937794
 8  1.59325952305231 -0.60358713181318 -0.17355979867987
 7 -7.03133772837284  2.69203647544754  0.32377188638864
 6 -6.00017159255926  3.32557697599760  0.89939079597960
 6 -6.36959014471447  4.76921336083608  0.95292178497850
 6 -7.63340243704370  4.91039987548755  0.54313084048405
 6 -8.08963990989099  3.56886538023802  0.19393954935494
 6 -5.34239475597560  5.79320483558356  1.32961422742274
 6 -8.37309459215922  6.17626163776378  0.50311881318132
 6 -9.17512541074107  6.55431515341534 -0.51006348514851
 7 -9.17931613221322  0.78153538653865 -0.46373884228423
 6 -9.90587445034503  2.02316481518152 -0.45789505870587
 6 -11.35139900640064  1.75647920892089 -0.87007084098410
 6 -11.52038598909891  0.38366570667067 -1.03075803050305
 6 -10.05430765646565 -0.14104405610561 -0.88849209170917
 6 -12.43818231913191  2.83176167776778 -1.06461955225523
 6 -12.80661840134013 -0.37900037953795 -1.38103906360636
 6 -13.10298042874287 -0.50025328972897 -2.81870004130413
 7 -7.41468042564256 -1.18049973517352 -0.41135966446645
 6 -8.51086267376738 -2.08709743654365 -0.77688105050505
 6 -8.08873131213121 -3.35919280148015 -0.84637720502050
 6 -6.80702561166117 -3.34500132843284 -0.36307393129313
 6 -6.39107021042104 -2.02812563116312 -0.14250917471747
 6 -8.79792254985498 -4.70402115161516 -1.20537953235324
 6 -5.69161610681068 -4.27527256235624 -0.09687874227423
 8 -5.56193568376838 -5.52953248334833 -0.13834110001000
 6 -4.46930455905591 -3.28941970357036  0.41289035113511
 6 -3.87371116901690 -3.81521561506151  1.72074860056006
 8 -4.26189126262626 -3.51207914181418  2.83098116621662
 8 -2.83014170177018 -4.67556252915292  1.51651207910791
 6 -2.26714141794179 -5.36955640174017  2.65432757235724
 6  2.57148931753175 -0.73045694329433 -1.15471949774978
 6  3.89485273207321 -0.45150565296530 -0.58983108320832
 6  4.97371962856286  0.32706376127613 -0.95200915751575
 6  4.94901409710971  1.01519225092509 -2.33754087088709
 6  6.22741448664866  0.36930466966697 -0.15227414161416
 6  7.53359459985999 -0.22840902380238 -0.91173804070407
 6  8.72985458655866 -0.16910089518952 -0.00429877737774
 6  9.93831475717572 -0.79455378197820 -0.60501785658566
 6  10.00557659625963 -2.36801060396040 -0.33450273517352
 6  11.15331918211821 -0.11533584828483  0.05866531083108
 6  12.58910058425843 -0.49787510471047 -0.44499902300230
 6  13.82083067246725  0.00603337713771  0.39947200270027
 6  15.18708762056206 -0.25212609410941 -0.16178973687369
 6  15.50002957475748 -1.82052091749175 -0.19894866316632
 6  16.37179792409241  0.57257177447745  0.52960198249825
 6  17.64508939773977  0.54310722842284 -0.21670557195720
 6  18.71650257455746  1.60505483438344  0.47080789698970
 6  20.21711361296130  1.46954475907591 -0.17483575607561
 6  20.36417711661166  1.87286386248625 -1.59870794859486
 6  21.22173469476948  2.15367670647065  0.82313410161016
 1 -3.88009566986699  3.39763099509951  1.87587246814681
 1 -10.20098795189519  4.08071531363136 -0.33041436413641
 1 -10.53937819421942 -2.18750590609061 -1.26508598169817
 1 -3.11190351735174 -1.23015225042504  2.18371924762476
 1 -1.98543985848585  1.47811803500350  1.44941785398540
 1 -2.08118837683768  0.29921629002900  3.75815491949195
 1 -2.73586907880788  2.01150620032003  3.69172936813681
 1 -4.01941153805380  0.70789597409741  3.98309348554855
 1 -2.29731523992399 -1.76018075117512 -0.22892733993399
 1 -1.99141248064806  0.10076626762676 -0.68381507570757
 1 -0.10678649844984 -0.08139428582858  1.09418978027803
 1 -0.44242458175818 -1.52419437803780  1.35461296969697
 1 -4.55997081358136  6.09616398449845  0.38191099089909
 1 -5.92123733013301  6.84090900560056  1.43025231983198
 1 -4.85341342814281  5.82845088908891  2.41641577557756
 1 -8.41251626102610  6.93989386388639  1.34548610251025
 1 -9.13283863576358  5.79193935443544 -1.33262484858486
 1 -9.55678042464246  7.53757248474848 -0.48081830473047
 1 -12.60793515551555  3.48004719191919 -0.20667848094809
 1 -12.11984583288329  3.65275923332333 -1.81178049484948
 1 -13.35307633043304  2.46571440714071 -1.42040639603960
 1 -12.88343071627163 -1.35399432613261 -0.85802055315532
 1 -13.57898492299230 -0.03202904820482 -0.82412477127713
 1 -13.36943257315732  0.40862767586759 -3.45718306260626
 1 -12.35620058805881 -1.12339991359136 -3.28531748384838
 1 -14.13200995449545 -1.06961605640564 -3.01129867216722
 1 -9.59426597539754 -4.71342066186619 -0.58062036403640
 1 -9.26851082998300 -4.58686663266327 -2.31060795899590
 1 -7.98941411611161 -5.46447471447145 -1.19811776727673
 1 -3.85483733513351 -3.43820011021102 -0.63493484208421
 1 -1.40813120612061 -6.10579567526753  2.25935927002700
 1 -1.73516196259626 -4.80235371927193  3.16471091369137
 1 -2.99898291469147 -5.83188828042804  3.27876475207521
 1  2.77243115061506 -1.69231687518752 -1.69339050605061
 1  2.16540143464346 -0.11895947674767 -1.98793656085609
 1  4.17489026072607 -1.05260757505751  0.25934383738374
 1  5.45458728792879  1.96448895789579 -2.44912963276328
 1  5.40598721592159  0.41613757625763 -2.86760816241624
 1  3.90178029622962  1.24016520332033 -2.89007983308331
 1  6.56504452065206  1.51329745474547  0.10597040594059
 1  6.16676472117212 -0.04712460206021  0.82280998839884
 1  7.13616040094009 -1.04103082768277 -1.14544530413041
 1  7.63094263676368  0.38093011361136 -1.89834466346635
 1  9.06211169856986  0.68539738103810  0.26574672297230
 1  8.48953201600160 -0.73998815031503  0.94756756915692
 1  10.08098076667667 -0.57557500080008 -1.73949852485249
 1  9.18308862506251 -2.64685337853785 -0.98785733353335
 1  10.86945197629763 -2.91039263906391 -0.83744434933493
 1  10.03611863196320 -2.58057974357436  0.67250898159816
 1  10.94638993639364  1.21114989508951 -0.03535495029503
 1  10.97105306880688 -0.08701393789379  1.22209213941394
 1  12.53933864446445 -1.76774834603460 -0.31667488048805
 1  12.69572772497250 -0.17979805880588 -1.57712924662466
 1  13.88022917781778  1.05266497729773  0.39445235613561
 1  13.85331955895590 -0.42012844064406  1.45445229112911
 1  15.01569391359136 -0.08245703960396 -1.25829784308431
 1  14.94722027492749 -2.30467304910491 -0.87560689388939
 1  16.46320019351935 -2.01655569216922 -0.50624640854085
 1  15.32475775457546 -2.34240937353735  0.82312158355836
 1  16.00064033723373  1.60327689798980  0.77096755575558
 1  16.55092974977498  0.13373399669967  1.50953437603760
 1  18.16292751445145 -0.67901211171117 -0.23113298109811
 1  17.67007159275927  0.77439932823282 -1.42404083658366
 1  18.40250493999400  2.72631902780278  0.21096648634863
 1  18.94427668186819  1.35227103660366  1.53305045504550
 1  20.36993332573257  0.37551551255125 -0.25573441724172
 1  19.95647300390039  2.99899816991699 -1.73675557795780
 1  21.51048829252925  1.87726579627963 -1.96505961256126
 1  19.81195616861686  0.93444906660666 -2.16475865736574
 1  21.33259849634964  1.88275974397440  1.75604664126413
 1  22.20203306050605  2.26666669406941  0.35412957005701
 1  20.75655528492849  3.23421662126213  0.84616335423542
 1 -7.20587242034203  1.67858673187319  0.10007185328533
 1 -7.44241578997900 -0.10243041904190 -0.64202433003300

