%nproc=3
%Mem=2GB
# td=(NStates=1) B3LYP/SVP 

TD

0 1
 6 -5.04278197629763 -1.87572381448145  0.39547442334233
 6 -4.73948426742674  2.78109456115612  1.49848623452345
 6 -9.29294920462046  3.33990478967897 -0.17516598449845
 6 -9.78260631513151 -1.52321312471247 -0.81621417481748
 7 -5.22220138243824  0.42285390829083  0.82708114511451
 6 -4.54331294739474 -0.68750547154715  0.86265970937094
 6 -3.00941062756276 -0.50035647034703  1.18493348914891
 6 -3.08503346874687  0.89622851515152  1.89016812261226
 6 -4.44055324842484  1.41477129502950  1.37573117011701
 6 -3.13875244374437  0.87550506280628  3.37565542814281
 6 -2.14333640434043 -0.56217617931793 -0.02105415981598
 6 -0.55821903410341 -0.56336455305531  0.27212966566657
 6  0.28850251165117 -1.00644751765177 -0.73177473507351
 8  0.01519328692869 -1.38436080268027 -1.89156276777678
 8  1.60310050715071 -0.62202897599760 -0.39973241594159
 7 -7.02178677327733  2.75481275307531  0.49901941114111
 6 -5.98654022942294  3.30989540784078  1.01242209910991
 6 -6.25682886858686  4.76658309780978  1.18707520032003
 6 -7.67582667946795  4.96977581308131  0.67658418581858
 6 -8.04729567546755  3.75730422412241  0.26879703510351
 6 -5.31941245774577  5.81514702980298  1.59624089008901
 6 -8.17042432513251  6.25165917751775  0.53682218351835
 6 -9.00944884308431  6.51432115401540 -0.53123560236024
 7 -9.23750195079508  0.85599283228323 -0.40036250465047
 6 -9.91723558645865  2.03246574527453 -0.42177144634463
 6 -11.18556242274228  1.80819438043804 -0.89830366426643
 6 -11.36955090559056  0.50890823092309 -1.15722067676768
 6 -10.11493371907191 -0.13497344904490 -0.67551079357936
 6 -12.27127562846285  2.84185268686869 -1.22889597989799
 6 -12.62759049854986 -0.27104958445845 -1.67415837553755
 6 -12.57698782948295 -0.57459072347235 -3.09538771007101
 7 -7.39972893049305 -1.20957264246425 -0.28325685418542
 6 -8.55622721022102 -2.05072379917992 -0.63745710811081
 6 -8.14117655665567 -3.38854573677368 -0.54342690999100
 6 -6.74831974107411 -3.29879670797080 -0.20558818271827
 6 -6.32253335673567 -2.05723854245425 -0.00267519131913
 6 -9.02609536713671 -4.70991174067407 -0.93245223962396
 6 -5.60059700490049 -4.30544557965797 -0.09915897029703
 8 -5.48983847404740 -5.45030456055605 -0.06435370127013
 6 -4.36669429802980 -3.31838259985999  0.32732179427943
 6 -3.89106290419042 -3.77180127362736  1.67198372407241
 8 -4.05572064556456 -3.40639857375738  2.78129619771977
 8 -2.87234592219222 -4.73689866276628  1.37975840374037
 6 -2.15446014981498 -5.26938638473847  2.50271241084108
 6  2.64820698929893 -1.02052595019502 -1.30936496229623
 6  3.85909915671567 -0.47001750415042 -0.60425252535254
 6  5.00233248984898  0.15639669456946 -1.17414137073707
 6  5.17384658035804  0.29021975367537 -2.87837495429543
 6  6.24892663786379  0.44284202340234 -0.46479539373937
 6  7.52831407180718 -0.43351953485349 -0.86547341424142
 6  8.82324392549255 -0.01057504260426 -0.20589893739374
 6  9.99728065376538 -0.96945127172717 -0.66078343314331
 6  9.79252529112911 -2.43952775567557 -0.44703398829883
 6  11.29537338753875 -0.35920023472347  0.06583602790279
 6  12.64240591479148 -0.69841515871587 -0.52083660676068
 6  13.67449603900390  0.05670844464446  0.24299635513551
 6  15.15767467926793 -0.36644752625263 -0.13166672457246
 6  15.42289186098610 -1.84160302570257 -0.01590035833583
 6  16.08290903520352  0.64401891919192  0.47814683698370
 6  17.51545643444345  0.53730664836484 -0.04420832223222
 6  18.50428135243524  1.64595892479248  0.57939875607561
 6  19.96398830043004  1.63099090369037  0.03218494599460
 6  20.01184188308831  2.17692426852685 -1.42251032883288
 6  20.91953447474748  2.58383972277228  0.86736852505250
 1 -4.02112977327733  3.32223345534553  1.90559544044404
 1 -10.07285513861386  4.04094133623362 -0.16983830653065
 1 -10.47406166256626 -2.33105026052605 -1.24919439253925
 1 -2.64449677667767 -1.26624585978598  1.92095297099710
 1 -2.16593790829083  1.48251847504750  1.52149506170617
 1 -2.14173443144314  0.46690305870587  3.64878398239824
 1 -3.10924641654165  1.81385643534353  3.82904309950995
 1 -3.93196279317932  0.31387657215722  3.67070224642464
 1 -2.39372488088809 -1.56403113621362 -0.50023447064706
 1 -2.21668500790079  0.31787797879788 -0.73669036323632
 1 -0.25121094089409  0.21334518811881  0.84891525282528
 1 -0.12473281258126 -1.45532749134913  1.20614812321232
 1 -4.59267408390839  5.76685105320532  0.86252905270527
 1 -5.79907511391139  6.75568048274827  1.74533382798280
 1 -4.59462754955496  5.43883192719272  2.45718985298530
 1 -7.90904591399140  7.16275615011501  0.91551310521052
 1 -9.26872222412241  5.81900206070607 -1.35302688878888
 1 -9.28987373397340  7.54254298179818 -0.59668989188919
 1 -12.34193855585559  3.48893808100810 -0.43522133523352
 1 -12.07110095839584  3.55207916531653 -1.98500781758176
 1 -13.04116513931393  2.20844868056806 -1.46585094049405
 1 -12.72178455165517 -1.15053398009801 -1.06192094319432
 1 -13.47270429492949  0.33838799349935 -1.17717007580758
 1 -12.46252188208821  0.39338615171517 -3.69838718301830
 1 -11.66113108110811 -1.07162473607361 -3.38616756885689
 1 -13.36824357785779 -1.19510860566057 -3.60145768806881
 1 -10.01811836063606 -4.67809712951295 -0.55217751975197
 1 -9.16977095599560 -4.57148509450945 -2.03980087828783
 1 -8.34315949064906 -5.46911517851785 -0.59925788128813
 1 -3.54607645904591 -3.25866215641564 -0.40851219981998
 1 -1.40427082008201 -5.79910500620062  2.01119445354535
 1 -1.68887733413341 -4.28349183308331  3.18436287888789
 1 -3.06252926932693 -5.86278136973697  3.11034791039104
 1  2.74189809730973 -2.20859850335034 -1.05616678367837
 1  2.34873976847685 -0.69964754555456 -2.35970373757376
 1  3.71021379307931 -0.54239655395540  0.67756565956596
 1  5.48372020122012  1.36317882688269 -2.95413013281328
 1  5.82124874207421 -0.69618365586559 -3.55269667126713
 1  4.19048916711671  0.20398158495850 -3.49489031413141
 1  6.32462047824782  1.52516864186419 -0.51824201530153
 1  6.12771081578158  0.39519963036304  0.73257096449645
 1  7.19625641054105 -1.60490721532153 -0.61313207280728
 1  7.69370891339134 -0.43876185558556 -2.11082591159116
 1  9.11532702010201  1.05302414371437 -0.38755860756076
 1  8.35585864866487 -0.06353050455045  0.99146195859586
 1  10.28320098869887 -0.95232267556756 -1.78059263426343
 1  9.01145146134614 -2.91107980118012 -1.11569011681168
 1  10.74775980708071 -2.94181578137814 -0.80678128302830
 1  9.46784180428043 -2.74984667026703  0.66299803050305
 1  11.08800409780978  0.84898367846785 -0.05183659845985
 1  11.17099306280628 -0.73679891639164  1.19834976517652
 1  12.85109982058206 -1.80657222842284 -0.39646285928593
 1  12.69966811901190 -0.22514259325933 -1.52986452015202
 1  13.71533268816882  1.23787349814981  0.24453736463646
 1  13.56381060806081 -0.07160358815882  1.39427627352735
 1  15.20444278847885 -0.32372116601660 -1.31803381668167
 1  14.87161271417142 -2.49108168996900 -0.76152548574857
 1  16.49457333083308 -1.98019205580558 -0.04960074397440
 1  15.34235951475147 -2.28370350295030  1.00396966836684
 1  15.69917019021902  1.72106867716772  0.22963342234223
 1  15.96785144194419  0.62895351865187  1.77247066966697
 1  17.95268649034903 -0.34132834333433  0.23678381058106
 1  17.64419900550055  0.77829971827183 -1.05528396089609
 1  17.98842353185319  2.70460685658566  0.47152254195420
 1  18.66030828502850  1.45129093859386  1.72446959695970
 1  20.25594192659266  0.46684464546455  0.21958311451145
 1  19.81010836743674  3.25436370647065 -1.40135203760376
 1  21.07616486018602  2.31449951965196 -1.85678878547855
 1  19.39748472147215  1.57350297199720 -2.19741192269227
 1  20.97409264576458  2.19786125412541  1.85919695629563
 1  21.98289114631463  2.46975700310031  0.46646080318032
 1  20.46842647204721  3.48823202280228  0.84932367026703
 1 -7.25504733783378  1.62451132433243  0.46113795989599
 1 -7.42092364076408 -0.18684886088609 -0.14697482508251

