%nproc=3
%Mem=2GB
# td=(NStates=1) B3LYP/SVP 

TD

0 1
 6 -5.09879757785779 -1.90482672477248  0.45018989488949
 6 -4.86373669266927  2.81750820252025  1.41491787768777
 6 -9.36055596529653  3.26273707290729 -0.21744021192119
 6 -9.70001805630563 -1.37945874927493 -0.93721627502750
 7 -5.15029419171917  0.42697432033203  0.80793923092309
 6 -4.47875649174918 -0.61912863386339  0.79231267466747
 6 -3.04334402090209 -0.53180961566157  1.28053304910491
 6 -3.13298826422642  0.94458335063506  1.90172927872787
 6 -4.39330852395239  1.48233805170517  1.33412700970097
 6 -3.05844441294129  0.85772328462846  3.45117297989799
 6 -1.99105117581758 -0.57549751145115  0.16652459805981
 6 -0.58774198639864 -0.77425564216422  0.57006945964596
 6  0.31384504590459 -1.11569844274427 -0.56940849844985
 8  0.01030279787979 -1.56465883248325 -1.63873748524852
 8  1.62148234533453 -0.86216298939894 -0.20065250795079
 7 -7.18672326692669  2.78727599939994  0.57648715791579
 6 -6.02196377177718  3.40720513881388  1.03067392429243
 6 -6.26082926862686  4.83231967146715  1.07882437523752
 6 -7.56394549134914  4.98007684318432  0.59499602700270
 6 -8.05299624552455  3.70663915761576  0.22750290569057
 6 -5.22165268176818  5.88147366246625  1.63883514951495
 6 -8.34227150985098  6.28701271287129  0.34235273657366
 6 -9.11681958015802  6.68720844274427 -0.62568504730473
 7 -9.22121032163216  0.93316054905491 -0.50334280268027
 6 -9.90538440134013  2.05935843454345 -0.52865213441344
 6 -11.28910277677768  1.83597715871587 -0.87195102900290
 6 -11.39716366686669  0.45637297739774 -1.07941289598960
 6 -10.02662488818882 -0.07107705940594 -0.80847408990899
 6 -12.32571107200720  2.82985148674867 -1.14265735603560
 6 -12.63726146564657 -0.31779425892589 -1.66179713941394
 6 -12.68022815351535 -0.38253151755176 -3.24557272857286
 7 -7.40550950855086 -1.14383606880688 -0.23670219871987
 6 -8.43830541804181 -1.92455118191819 -0.66569993239324
 6 -8.08797123612361 -3.29822670487049 -0.63088565586559
 6 -6.74616952605261 -3.28573540184018 -0.22020964486449
 6 -6.40582168556856 -2.02822564116412  0.05090016621662
 6 -8.98914167176718 -4.42401315081508 -0.99582857725773
 6 -5.63945089028903 -4.24575961106111  0.05959690529053
 8 -5.57897738793879 -5.44952448254825 -0.17371463736374
 6 -4.43971159975998 -3.22810357195720  0.43962302440244
 6 -3.95077887578758 -3.76749084258426  1.79803632933293
 8 -4.24878995249525 -3.46212414631463  2.88413648174817
 8 -3.05261394899490 -4.71539651255125  1.63927435533553
 6 -2.46863156695670 -5.48289773587359  2.75444758435844
 6  2.69173134173417 -1.10321421902190 -1.27558158395840
 6  4.03210645744574 -0.69294979737974 -0.60518261836184
 6  4.99092134873487 -0.07174611971197 -1.20034399099910
 6  4.98590778647865  0.30993172487249 -2.64222133893389
 6  6.36123786898690  0.11047878707871 -0.54699361356136
 6  7.54284552495249 -0.52465864876488 -1.20056692359236
 6  8.82557415851585 -0.43387737283728 -0.29827817531753
 6  10.13371429712971 -1.02042636923692 -0.79038639343934
 6  10.00756679527953 -2.53183698659866 -0.92716200110011
 6  11.27154100430043 -0.57373168786879  0.04442388668867
 6  12.69907158135814 -0.77389270647065 -0.59935445854585
 6  13.78332692209221 -0.09401662786279  0.17046910241024
 6  15.23294220602060 -0.22227310881088 -0.46124968286829
 6  15.76634620642064 -1.62979184458446 -0.61972074037404
 6  16.24881562586259  0.61286580388039  0.51110013231323
 6  17.66597148594860  0.86630954865487 -0.16446034743474
 6  18.54732565686568  1.83883821272127  0.68569938613861
 6  19.95897779937994  1.92861066566657  0.23082480998100
 6  20.06390708960896  2.42387896399640 -1.21806988478848
 6  20.76687920922092  2.70651198999900  1.28207999619962
 1 -4.00834849514951  3.42881411341134  1.91794667556756
 1 -9.94849270237024  4.30035727782778 -0.50867218991899
 1 -10.34841909830983 -2.09293644914491 -1.41526099919992
 1 -2.50764309130913 -1.32556179137914  1.76136701240124
 1 -2.32545385988599  1.67243746694669  1.65874878707871
 1 -2.03235349334934  0.71797816621662  3.77731683568357
 1 -3.28463395529553  1.87949299899990  3.80807100230023
 1 -3.90457005390539  0.29813499799980  3.93118829502950
 1 -2.17497300570057 -1.43039777287729 -0.53727817501750
 1 -2.24372771217122  0.36559275027503 -0.51805850005000
 1 -0.49318513831383  0.01848570217022  1.28164852615262
 1 -0.15247558685869 -1.40451240984098  1.18753626202620
 1 -4.31253607010701  5.67356172427243  1.12713551335133
 1 -5.67082228862886  6.97370228492849  1.42004129872987
 1 -5.07878596539654  5.68135617961796  2.62414654865487
 1 -8.06453146254625  6.94490436493649  1.14224577847785
 1 -9.27410276217622  5.83807396789679 -1.55721730783078
 1 -9.38724347094709  7.90465919341934 -0.45542576547655
 1 -12.05660002200220  3.58158734593459 -0.33329114221422
 1 -12.41866571487149  3.51393535093509 -2.14558387518752
 1 -13.38481950475047  2.34399223492349 -1.10870522592259
 1 -12.64043641684168 -1.28428735543554 -1.34375912701270
 1 -13.65107213171317  0.09766392109211 -1.48073043184318
 1 -12.66656228612861  0.53015982908291 -3.72575992029203
 1 -11.75657062506251 -0.88173574717472 -3.80050900300030
 1 -13.37617437093709 -1.17795689048905 -3.61269881218122
 1 -10.00367691649165 -4.20728004780478 -0.52291459345935
 1 -9.19147312621262 -4.36007395339534 -2.08728562676268
 1 -8.50972614731473 -5.45469373637364 -0.75479343484348
 1 -3.46516836823682 -3.34728101830183 -0.28226957555756
 1 -1.90440083308331 -6.27506260196020  2.32287562166217
 1 -2.15871431783178 -4.75028851275127  3.53981842444244
 1 -3.51892490889089 -6.14702979457946  3.16670354595460
 1  2.56008991649165 -2.08336598009801 -1.70595176217622
 1  2.49627452195219 -0.64777235803580 -2.28271603880388
 1  4.08738150985098 -0.93236555085509  0.48610651365137
 1  5.69035086428643  1.23628613761376 -2.99873459325933
 1  5.56509312651265 -0.57323136063606 -3.38449985158516
 1  4.01080119831983  0.59486067286729 -3.13349417451745
 1  6.48100611681168  1.16560268526853 -0.23646383748375
 1  6.38699674437444 -0.44668455805581  0.50366807420742
 1  7.21251803670367 -1.46108283288329 -1.45785654525452
 1  7.56113565606561 -0.11252923232323 -2.29729455845585
 1  8.92438792619262  0.76879572087209 -0.12018186988699
 1  8.60569363216322 -0.61933608510851  0.68521133353335
 1  10.20595326392639 -0.48980642394239 -1.88300287528753
 1  9.13304362056206 -3.03186187938794 -1.33907245504551
 1  10.82175720682068 -2.91258285808581 -1.58061866676668
 1  10.20380540064006 -2.99773145874587  0.00006173687369
 1  11.11303660106011  0.36694547464746  0.21005959115912
 1  11.22846881038104 -1.03649888638864  0.92926285648565
 1  12.96667137773778 -1.77231880308031 -0.63049626262626
 1  12.65132328452845 -0.29861994099410 -1.81485301900190
 1  13.51231238613861  0.85701541234123  0.23741665256526
 1  13.81080530753075 -0.49049547734773  1.27543438933893
 1  15.28288063226323  0.11037224332433 -1.39459147244725
 1  14.98078363126313 -2.31300388218822 -1.18517785098510
 1  16.68303217671767 -1.75829986658666 -1.13982976687669
 1  15.94797007580758 -2.18899403200320  0.35308457985799
 1  15.66550682388239  1.59741631193119  0.71846230523052
 1  16.35071972877288  0.16383700700070  1.55953937653765
 1  18.15884710641064 -0.15871008150815 -0.06113598139814
 1  17.71731631723172  1.05760764906491 -1.24787321982198
 1  18.06333102260226  2.84837123302330  0.75268065776578
 1  18.50091234543454  1.40322613211321  1.78100525052505
 1  20.36753308570857  0.97073503450345  0.06873803000300
 1  19.90148750535054  3.60592886298630 -1.36502840524052
 1  21.22873011671167  2.30864893459346 -1.37911101770177
 1  19.45046001900190  1.66683230493049 -1.76874905640564
 1  20.89084432093209  2.31820328832883  2.53442447904790
 1  21.97364022122212  2.66813684108411  1.21591574867487
 1  20.49557918731873  3.81863506310631  1.15693443134313
 1 -7.31537337043704  1.68192706590659  0.44533637973797
 1 -7.63554510291029 -0.07557773377338  0.06522639503950

