%nproc=3
%Mem=2GB
# td=(NStates=1) B3LYP/SVP 

TD

0 1
 6 -5.05469316741674 -1.92017825992599  0.36721159705971
 6 -4.83136345534553  2.78762521422142  1.43966035193519
 6 -9.42240214991499  3.32478327752775 -0.21705017291729
 6 -9.85623367786779 -1.45297610101010 -0.83475602900290
 7 -5.11265042734273  0.54479610251025  0.67857629462946
 6 -4.49805842194219 -0.70398711971197  0.68598204160416
 6 -3.07929761626163 -0.59970640534053  1.14508950475047
 6 -3.08464342974297  0.88702759505951  1.83557266306631
 6 -4.38024721782178  1.46941675957596  1.36626022302230
 6 -2.94058262676268  0.92222973527353  3.40575843844384
 6 -2.13021509220922 -0.67159712141214  0.01766971257126
 6 -0.61092430463046 -0.60116833343334  0.45503795649565
 6  0.38194185558556 -1.04566143904390 -0.57022858045805
 8  0.04772654025403 -1.49964233083308 -1.65816942844284
 8  1.73227342444244 -0.58366513961396 -0.22617506020602
 7 -7.14654924952495  2.69730700250025  0.53099260846085
 6 -6.02250382578258  3.44122854115412  1.04697555445545
 6 -6.33784697039704  4.82066850635064  1.09234572737274
 6 -7.63395249204920  4.97537637313731  0.40490701810181
 6 -8.08248919481948  3.66710520422042  0.26007616301630
 6 -5.34824534103410  5.91779729482948  1.41185245124512
 6 -8.35314259695970  6.19280329192919  0.45355385668567
 6 -9.14314221242124  6.56627634953495 -0.59678215701570
 7 -9.20831903250325  0.91803903690369 -0.47851031943194
 6 -10.02262612551255  2.06006850555056 -0.52747201640164
 6 -11.32856672317232  1.85264882588259 -0.93904773867387
 6 -11.42796674717472  0.46368370847085 -1.02289724442444
 6 -10.08271049674967 -0.03855380708071 -0.81133437593759
 6 -12.34367286818682  2.89578808040804 -1.18310140044004
 6 -12.62031977147715 -0.23000548004800 -1.62801376107611
 6 -12.63778390909091 -0.43617688208821 -3.15208337963796
 7 -7.40803976157616 -1.32198388358836 -0.28569709820982
 6 -8.62043363086309 -2.04684341114111 -0.56183954635464
 6 -8.15376781578158 -3.37476435863586 -0.69703227052705
 6 -6.81402631173117 -3.44239106740674 -0.32599022292229
 6 -6.36480758415842 -2.08636145474547 -0.06786170997100
 6 -8.92603536113611 -4.67864861436144 -0.87860685508551
 6 -5.74225117031703 -4.35788082318232  0.04629557515752
 8 -5.68368785898590 -5.55702523262326  0.17472020612061
 6 -4.49086671527153 -3.32218297989799  0.40674973707371
 6 -3.86220001790179 -3.82091618511851  1.65922244794479
 8 -4.08270334383438 -3.43680161406141  2.77459552765277
 8 -2.95327401500150 -4.75400037293729  1.39532996089609
 6 -2.21196590039004 -5.50540998709871  2.54297643724372
 6  2.71058322692269 -1.05314921252125 -1.12462648844884
 6  4.01355460226023 -0.64341484388439 -0.57034913501350
 6  4.91417367396740  0.22045310021002 -1.10344430103010
 6  4.96894609030903  0.71199193089309 -2.44175129192919
 6  6.28020976617662  0.40670841004100 -0.34653356755676
 6  7.54387562796280 -0.38988517141714 -0.94820168706871
 6  8.79491109220922 -0.27161114621462 -0.00878922642264
 6  10.10321124682468 -0.77254158075808 -0.64140149494949
 6  10.07159319791979 -2.18588239113911 -0.90108939383938
 6  11.25905975617562 -0.30222453715372  0.31985142944294
 6  12.65097677187719 -0.61149646684668 -0.42994751785179
 6  13.79094768416842 -0.08812603880388  0.33099515501550
 6  15.20559947174717 -0.21010189168917 -0.33726728462846
 6  15.76201577337734 -1.65687455285529 -0.50968973727373
 6  16.25028577287729  0.57192170947095  0.38032705500550
 6  17.70249513831383  0.65426834453445 -0.15552945434543
 6  18.60814173847385  1.56514084298430  0.57678849504951
 6  20.09189109070907  1.54841264586459  0.07398912641264
 6  20.20368106700670  2.12040861696170 -1.35850392819282
 6  20.94899742104210  2.34214555335534  0.93459524772477
 1 -4.00577823812381  3.48952018401840  1.87162204310431
 1 -10.11086893999400  4.33986122822282 -0.19246056875688
 1 -10.71418567496750 -2.14708186368637 -1.23071254435444
 1 -2.79223155015502 -1.26106534173417  2.02827370307031
 1 -2.33017433193319  1.66786700990099  1.20364327652765
 1 -1.87792805080508  0.57508387678768  3.70408951295130
 1 -2.96857234913491  2.08680373007301  3.82653284848485
 1 -3.72926252315232  0.30061524602460  3.82810798699870
 1 -2.18563407180718 -1.78448318141814 -0.37604205140514
 1 -2.25684902430243  0.02217840884088 -0.65322201640164
 1 -0.44279009880988  0.45783963756376  0.71155151645165
 1 -0.56077641694169 -1.03113507210721  1.52919042744274
 1 -4.42840765726573  5.86601096919692  0.69645244504450
 1 -5.91598680508051  7.02814772947295  1.46058535313531
 1 -4.96050413721372  5.81428947294729  2.36411054505451
 1 -8.26940194959496  6.89445932043204  1.29861141504150
 1 -9.34433978587859  5.96308646914691 -1.46548813491349
 1 -9.88816356295629  7.39345807330733 -0.29520974387439
 1 -12.64124848684868  3.55412459965997 -0.30590840394039
 1 -12.01598544684468  3.58028198559856 -2.06134545134514
 1 -13.32767379017902  2.27244508020802 -1.49868422382238
 1 -12.66666904010401 -1.31833075977598 -1.12287703880388
 1 -13.38613563806381  0.37253140784078 -1.32457481628163
 1 -12.76559218911891  0.46919373247325 -3.82042938723872
 1 -11.67548251625163 -0.99280685428543 -3.44398335043504
 1 -13.44228098159816 -1.15305440024002 -3.49988753105311
 1 -10.03502005080508 -4.45988530833083 -0.59369167116712
 1 -8.98624260316032 -4.84506245224522 -1.94053095129513
 1 -8.24967014171417 -5.47718598559856 -0.32765072057206
 1 -3.70401225262526 -3.42008829902990 -0.50601194979498
 1 -1.90453084608461 -6.48901399709971  2.08107144124412
 1 -1.43774222062206 -4.80357384128413  2.99159360196020
 1 -3.04671768816882 -5.93041813341334  3.31239811541154
 1  2.70788469596960 -2.13297094059406 -1.57976914391439
 1  2.57080197469747 -0.46116369716972 -2.04962272947295
 1  4.15507827952795 -1.11379369366937  0.41556945994599
 1  5.49499132833283  1.66952946194620 -2.29157387718772
 1  5.28841545874587  0.08801476397640 -3.20852225382538
 1  3.82273239143914  0.76786797359736 -2.73888471357136
 1  6.29414743094309  1.52986911191119 -0.26168635973597
 1  6.20065811051105 -0.27388727832783  0.60426813421342
 1  7.35633241814181 -1.56102282688269 -1.05776653625363
 1  7.83027256975698  0.09836185678568 -1.90160498949895
 1  8.84933042044204  0.78055689698970  0.32894304260426
 1  8.36965002780278 -0.91603575507551  0.90437324972497
 1  10.15605827442744 -0.11543898719872 -1.43462803780378
 1  9.27661797799780 -2.35714440764076 -1.48781732953295
 1  11.11813684478448 -2.37937953775378 -1.36706731163116
 1  10.21710673077308 -2.86438812441244 -0.00103837313731
 1  11.14643994139414  0.59157793789379  0.54655324052405
 1  10.81302726622662 -0.87912314881488  1.13873380358036
 1  12.77228193879388 -1.71961353255326 -0.42126533953395
 1  12.51484963716372 -0.34686476547655 -1.49295082878288
 1  13.68723987888789  1.10011972277228  0.49008191909191
 1  13.61714594159416 -0.62552898069807  1.43502034793479
 1  15.07261960616061  0.28465967206721 -1.21106311961196
 1  14.97241279417942 -2.32673525532553 -0.99363869706971
 1  16.63983785728573 -1.78960299689969 -1.14443022692269
 1  16.12941822062206 -2.02780791339134  0.53451272267227
 1  15.76742701590159  1.55852242254225  0.29159961896190
 1  16.31528618541854 -0.06444582128213  1.35170859345935
 1  18.15166638833883 -0.27594180468047 -0.38612848064806
 1  17.45348993459346  1.01646353465347 -1.38973740624062
 1  18.21165585508551  2.65426182208221  0.64569995969597
 1  18.61652390659066  1.51115692519252  1.65457260726073
 1  20.31955828822882  0.45257321832183  0.01037219341934
 1  19.87368472507251  3.09013728382838 -1.53473537593759
 1  21.24128137183719  1.90288835853585 -1.73135624222422
 1  19.49526449944995  1.65673129482948 -2.10382256375638
 1  21.12154739123913  1.93401486948695  2.04635567216722
 1  22.03138599579958  2.27670769816982  0.70954511161116
 1  20.75831546094610  3.45508870847085  0.84971370927093
 1 -7.08698053115311  1.74642351555156  0.33540538663866
 1 -7.56495804420442 -0.34155433143314 -0.24970509810981

