%nproc=3
%Mem=2GB
# td=(NStates=1) B3LYP/SVP 

TD

0 1
 6 -5.24228192629263 -1.99668591069107  0.58607348324832
 6 -4.59668998799880  2.67216366806681  1.50858724462446
 6 -9.09669957965797  3.42430322952295 -0.27548601650165
 6 -9.85887394189419 -1.26911771517152 -0.96774932833283
 7 -5.06725588788879  0.42310393329333  0.81387982498250
 6 -4.47240585668567 -0.82861958295830  0.92385582898290
 6 -3.04018370487049 -0.74303073777378  1.33349834563456
 6 -2.90601556695670  0.63857274957496  1.83075218101810
 6 -4.32285147824782  1.32596241414141  1.37598119511951
 6 -2.87922649114911  0.84706221852185  3.33379124172417
 6 -2.13146521722172 -1.10472043374337  0.25205315091509
 6 -0.53682689488949 -1.02011022762276  0.68573102580258
 6  0.41851551295129 -1.32625949884988 -0.46591814941494
 8  0.09611137873787 -1.83638600520052 -1.46477008850885
 8  1.73255345244524 -0.98298507160716 -0.22333477617762
 7 -6.88124271887189  2.76043331513151  0.40579008820882
 6 -5.72919449484948  3.29100351865186  0.96431728862886
 6 -5.95579876557656  4.70038647814782  0.93575006780678
 6 -7.30972006880688  4.93372220772077  0.51558808620862
 6 -7.88242918881888  3.59048754245425  0.20074022942294
 6 -5.04605512201220  5.67996351145115  1.59123038903890
 6 -7.84289157185718  6.37191120272027  0.25560406170617
 6 -8.74814271247125  6.71924164606461 -0.67646012481248
 7 -9.13976217681768  0.91367860086009 -0.59676214461446
 6 -9.75591945484548  2.25252775147515 -0.70001927112711
 6 -11.14743861036104  2.14045760676068 -1.10738457235724
 6 -11.38793274377438  0.79462680278028 -1.20944589928993
 6 -10.17160938663866  0.09460950925093 -0.85722896539654
 6 -12.15431393229323  3.20628913051305 -1.12723581388139
 6 -12.65378311781178  0.00224774527453 -1.74178513821382
 6 -12.60974110481048 -0.34121738613861 -3.28617678897890
 7 -7.50730968856886 -1.20430211541154 -0.24787331583158
 6 -8.61388297579758 -1.83072179897990 -0.65553891629163
 6 -8.38540097909791 -3.34952183438344 -0.78517108440844
 6 -7.04497940704070 -3.35725255355536 -0.28145576947695
 6 -6.49622072547255 -2.00285310391039  0.10999607580758
 6 -9.18732148974897 -4.42406315581558 -1.20373936833683
 6 -5.98976592179218 -4.28685372047205  0.07503844944494
 8 -5.98674816501650 -5.55278480858086 -0.01843910981098
 6 -4.75104273287329 -3.46728749034903  0.55311437353735
 6 -4.07354115201520 -3.98927302080208  1.83865039073907
 8 -4.37579265276528 -3.41506944084408  2.98463653175318
 8 -3.40874956255626 -5.04331930483048  1.70915134303430
 6 -2.89879458325833 -5.75746519261926  2.85234737433743
 6  2.69977214581458 -1.16695059265927 -1.20939496529653
 6  3.99478272507251 -0.94079458185819 -0.64810691079108
 6  4.95869812641264 -0.12905185028503 -1.04322827942794
 6  4.83228242394239  0.72146287798780 -2.23281039783978
 6  6.25163690889089 -0.16323858465847 -0.17287620182018
 6  7.46687792819282 -0.55088127102710 -1.02936980388039
 6  8.75692729382938 -0.40900488558856 -0.24076242374237
 6  10.10527145284528 -0.77694202080208 -0.79222657745775
 6  10.19672571117112 -2.23589739263926 -1.03745303020302
 6  11.29521337153716 -0.24450876557656  0.07974741904190
 6  12.64485615981598 -0.47702301950195 -0.48258278137814
 6  13.88217680708071  0.10604337813781  0.27996005150515
 6  15.19358827062706  0.03291240974097 -0.30414397229723
 6  15.59533910571057 -1.57229609500950 -0.49914868316832
 6  16.18097884218422  0.84929944724472  0.31754077637764
 6  17.64473936273627  0.94152707040704 -0.32102600400040
 6  18.55014593889389  1.96826115501550  0.45910672687269
 6  19.97721962356236  1.99514731933193 -0.04315258775878
 6  20.06567726662666  2.82286886298630 -1.33050112791279
 6  20.89834235553555  2.66443778257826  0.99510129832983
 1 -3.90515817611761  3.25203643564356  1.68155303620362
 1 -9.59393724682468  4.38535577767777 -0.35077640034003
 1 -10.76428068446845 -1.88710586608661 -1.35992546564656
 1 -2.93857618461846 -1.58651788698870  2.07342821852185
 1 -2.01657297179718  1.05255547874787  1.45793870607061
 1 -2.02803306130613  0.44291065946595  3.68500760476048
 1 -3.11703719561956  1.81999704940494  3.59288948414841
 1 -3.77236683358336  0.18154333883388  3.80956613281328
 1 -2.30322583098310 -2.23008774187419 -0.02914736193619
 1 -2.14065740514051 -0.44531834083408 -0.67097379157916
 1 -0.34652047184719 -0.14394054045405  1.05353571487149
 1 -0.18692903220322 -1.69684164276428  1.31843935233523
 1 -3.93319813631363  5.68871323942394  1.27027982778278
 1 -5.42231743814381  6.88998391309131  1.37109640424042
 1 -4.96333442024202  5.73734177817782  2.83291742574257
 1 -7.26865187458746  7.12082195669567  0.94221577547755
 1 -9.27347269916992  6.06381654215422 -1.32789437553755
 1 -9.23036778337834  7.79376810431043 -0.78633885678568
 1 -12.22768713071307  3.81840102730273 -0.21578939203920
 1 -11.85461931023102  4.03904786218622 -1.86175549234923
 1 -13.00602162496250  2.68619645534553 -1.53812816821682
 1 -12.57993036623662 -0.74369329602960 -1.09419417051705
 1 -13.53630065456546  0.55404955965597 -1.67081944074407
 1 -12.77283291319132  0.57202401550155 -4.05788313261326
 1 -11.56518148614862 -0.87645521912191 -3.66369532163216
 1 -13.63695044854486 -1.00244933973397 -3.34460200250025
 1 -10.53952050085008 -4.18636795659566 -0.92637493949395
 1 -9.31214519341934 -4.71520946694669 -2.42472937113711
 1 -8.62905808050805 -5.32925119211921 -0.39520747624762
 1 -3.98667051845185 -3.61615790599060 -0.24731608020802
 1 -2.28528892189219 -6.46601169686969  2.45396873097310
 1 -2.46080452685269 -5.07716120002000  3.66140058265826
 1 -3.65314833123312 -6.11301639323932  3.35662253785379
 1  2.48600250775077 -2.08994663816382 -1.76132729972997
 1  2.55936083058306 -0.63298087888789 -2.09431719891989
 1  4.17778054975497 -1.41906422072207  0.37228513151315
 1  5.30634246344634  1.82468497749775 -1.83158787858786
 1  5.36195281248125  0.46952291479148 -3.16171757335734
 1  3.65940605880588  0.94729591639164 -2.52753357845785
 1  6.31282929912991  1.04848097309731  0.38484829372937
 1  5.99088713341334 -0.80552044164416  0.66083379077908
 1  7.23269005390539 -1.64949167376738 -1.19664042364236
 1  7.43666320882088  0.07206922752275 -1.97991282028203
 1  8.93143863126313  0.63431227252725  0.21962211051105
 1  8.46994005680568 -1.34359851135114  0.67331014341434
 1  10.11075374397440 -0.38919636293629 -1.86372094709471
 1  9.25361567776778 -2.46596528972897 -1.42808135593559
 1  11.29625465656566 -2.53663526332633 -1.55458606350635
 1  10.09530455055506 -2.99001068666867 -0.30562883218322
 1  11.23081837923792  0.90063884398440  0.21786037123712
 1  11.49185514901490 -0.82625786228623  0.99622955315532
 1  12.85420013061306 -1.51715328652865 -0.72578579157916
 1  12.64104225642564  0.13702362336234 -1.40022155585559
 1  13.60441159605961  1.18253796459646  0.39273218411841
 1  13.67334156115612 -0.34001042884288  1.27507435333533
 1  15.09758210241024  0.40218142424242 -1.36329834313431
 1  14.92313786668667 -2.16902948474847 -1.01208054125413
 1  16.50938481198120 -1.66515055165517 -0.78111389528953
 1  15.67106238503850 -2.13352848544854  0.51716098749875
 1  15.59498977217722  1.88041461176118  0.26282674167417
 1  16.30671532833283  0.50541116441644  1.31703512611261
 1  18.05022624432443 -0.13603781428143 -0.17309717751775
 1  17.69329391499150  1.06969885818582 -1.47278571107111
 1  17.98718340784079  3.04595099099910  0.59549493919392
 1  18.64980723492349  1.58651446094609  1.67938508850885
 1  20.49502583498350  1.04683264426443 -0.00889973377338
 1  19.93501085768577  4.02881115121512 -1.50073197559756
 1  21.06870411411141  2.67920599029903 -1.77363046964697
 1  19.31046601960196  2.36147176887689 -2.09196137763776
 1  21.19875511201120  1.94423589158916  1.80174121072107
 1  21.83988684588459  2.89113914131413  0.57523168026803
 1  20.44719434883488  3.66020922052205  1.58001673957396
 1 -7.03189502260226  1.75736460966097  0.33783562966297
 1 -7.55717726612661 -0.17255743174317  0.00432030443044

