%nproc=3
%Mem=2GB
# td=(NStates=1) B3LYP/SVP 

TD

0 1
 6 -5.06625432353235 -1.85245148724872  0.49320419631963
 6 -4.69303962296230  2.83872032373237  1.31560794669467
 6 -9.35770568026803  3.32956375557556 -0.18216668456846
 6 -9.81381943644364 -1.54348515191519 -0.88453100650065
 7 -5.21912107440744  0.45359698259826  0.80764920192019
 6 -4.47518613471347 -0.69592631363136  0.83801724512451
 6 -2.99015870237024 -0.55117155185519  1.19519451525153
 6 -3.01579654505451  1.00328922122212  1.76225533133313
 6 -4.38155734883488  1.47569738763876  1.30387398439844
 6 -2.84575314381438  1.04432194449445  3.35820368296830
 6 -2.00620269096910 -0.63050301200120  0.00241818741874
 6 -0.50339355155516 -0.55841405800580  0.48839129182918
 6  0.37422108350835 -1.10058693159316 -0.72258381598160
 8 -0.04799303170317 -1.61430379697970 -1.70926453795380
 8  1.68174837193719 -0.78743551665167 -0.39700214291429
 7 -6.97089168376838  2.76510378217822  0.48708821802180
 6 -5.97230880628063  3.34541896019602  0.87052790969097
 6 -6.19270245594559  4.79317575707571  0.97869436223622
 6 -7.49293839063906  4.93475231073107  0.55243177057706
 6 -8.04116506240624  3.65516401010101  0.09994014941494
 6 -5.34188470497050  5.78474398949895  1.60018128412841
 6 -8.23347062976297  6.26114012561256  0.50088859015902
 6 -9.22775067326733  6.55936565846585 -0.32526500530053
 7 -9.18687688828883  0.85256248924892 -0.40858332673267
 6 -9.85048891179118  1.98191068976898 -0.48625789498950
 6 -11.22706657315732  1.83388694969497 -0.97026085998600
 6 -11.39707365786579  0.50239757985799 -1.17320227492749
 6 -10.10615284098410 -0.16533648534853 -0.72724596709671
 6 -12.31671017191719  2.86698520012001 -1.16122921322132
 6 -12.63173091259126 -0.31821430093009 -1.66870783048305
 6 -12.63549368006801 -0.43738700310031 -3.11245941724172
 7 -7.51285024262426 -1.27233891909191 -0.15937446594659
 6 -8.52582416991699 -2.10872959975998 -0.45008837123712
 6 -8.13959639863987 -3.53028991119112 -0.60315288258826
 6 -6.79040394949495 -3.39778660696070 -0.15968359225923
 6 -6.45327643104310 -2.08079089768977  0.14078915511551
 6 -8.99899265686569 -4.66826757625763 -0.96737573197320
 6 -5.59086603180318 -4.22775781088109  0.02794373997400
 8 -5.54868435863586 -5.43112264236424 -0.08802606850685
 6 -4.46323395199520 -3.34327508910891  0.40958002010201
 6 -3.98176197409741 -3.70507460096010  1.78757528322832
 8 -4.30580565406541 -3.27083501740174  2.83168123622362
 8 -2.97804649224922 -4.62597757065707  1.66795722362236
 6 -2.46559126292629 -5.21514096019602  2.85291743134313
 6  2.67263943254325 -1.14275817341734 -1.36746077187719
 6  3.99995324212421 -0.68198870127013 -0.74835693579358
 6  5.00399265586559  0.12713376827683 -1.26903085968597
 6  5.00275947164716  0.64718545024502 -2.71869898669867
 6  6.23550529572957  0.26876461566157 -0.44314322852285
 6  7.44859610001000 -0.47365354825483 -1.03075994289429
 6  8.71843344444444 -0.27650163526353 -0.17273562106211
 6  10.06382730843084 -0.83702802940294 -0.87781513631363
 6  9.96109214781478 -2.30466426932693 -1.01842112701270
 6  11.30175402560256 -0.28106242094209 -0.08024858055806
 6  12.67126880108011 -0.54587990519052 -0.65484000710071
 6  13.85970455985599 -0.14577180338034  0.24541659715972
 6  15.25938485028503 -0.37251813331333 -0.39311286918692
 6  15.60458002980298 -1.79924879027903 -0.66967573587359
 6  16.25382612691269  0.46474099139914  0.50477950025002
 6  17.59334422322232  0.71936485418542 -0.09539344074407
 6  18.48355928022802  1.52212654155416  0.74588540474047
 6  19.95263716531653  1.73785158975898  0.32770449794980
 6  20.01794249314932  2.64212078817882 -1.03690176797680
 6  20.86980950225023  2.31586292509251  1.39401118931893
 1 -3.93830149044904  3.54357558955896  1.58244312521252
 1 -10.08574642774277  4.15655289738974 -0.42238356105611
 1 -10.57878213461346 -2.25982313781378 -1.11024049714971
 1 -2.70917324432443 -1.09851908710871  2.08077895359536
 1 -2.52486380088009  1.66970719391939  1.10957386958696
 1 -1.84603486148615  0.70155652405240  3.70947005100510
 1 -3.06048154005400  2.15068011771177  3.61974216941694
 1 -3.54366396329633  0.30731591609161  3.69426460266027
 1 -2.15874138253825 -1.49697443054305 -0.54485893309331
 1 -2.17169050845084  0.41057724872487 -0.59077577177718
 1 -0.04672049184919  0.51488534213421  0.87749811111111
 1 -0.46416675597560 -1.40676263486349  1.16548405680568
 1 -4.46595141164116  6.03390775887589  0.98644144394439
 1 -5.86701190759076  6.79515443014301  1.50768006260626
 1 -5.02105019181918  5.52580062406241  2.78583271727173
 1 -7.96553156255626  6.95804567906791  1.41025257915792
 1 -9.47672302420242  5.82113227372737 -1.22684427052705
 1 -9.61157590419042  7.48377710521052 -0.40494071697170
 1 -12.40388475047505  3.50647983518352 -0.19376718981898
 1 -11.99452330063006  3.70398435583558 -2.08060737753775
 1 -13.27911893469347  2.40300813651365 -1.17396175157516
 1 -12.81934430763076 -1.18175710241024 -0.94496924802480
 1 -13.61374839933993  0.54785894059406 -1.51532389118912
 1 -12.26063169306931  0.32991980508051 -3.81292863716372
 1 -11.98149311731173 -1.30834840844084 -3.17454640674067
 1 -13.86435318881888 -0.82610170497050 -3.33598114041404
 1 -9.66201275007501 -4.74761408120812 -0.10127242924292
 1 -9.46005998489849 -4.40178812481248 -2.01321822002200
 1 -8.31976715141514 -5.34982324932493 -0.97908586408641
 1 -3.67804965636564 -3.59678596879688 -0.26404775337534
 1 -1.55705609860986 -5.93583867956796  2.42401573567357
 1 -1.98114656105611 -4.55074855875587  3.67572201480148
 1 -3.19856287268727 -5.93323841544154  3.48090496609661
 1  2.63960786828683 -2.24331197469747 -1.60722188918892
 1  2.54082897739774 -0.62884046484648 -2.31280904810481
 1  4.22048482018202 -1.10468278257826  0.26159406240624
 1  5.13790561976198  1.81444395339534 -2.89931465126513
 1  5.98028464566457  0.31762772527253 -3.18697009860986
 1  4.07536765496550  0.17096828362836 -3.36030685578558
 1  6.50835885208521  1.43216934193419 -0.40090028112811
 1  6.02872091679168 -0.00198008760876  0.50823853125313
 1  7.26734351925192 -1.37895462006201 -1.08348910851085
 1  7.72774231673167 -0.24905288468847 -1.98835366436644
 1  8.84775026242624  0.84508334963496 -0.05780563226323
 1  8.53354641744174 -0.78358250975098  0.67804061646165
 1  10.19709237783778 -0.36946438973897 -1.78165274027403
 1  9.06950726692669 -2.51173986718672 -1.67611615941594
 1  10.89925495659566 -2.67314891469147 -1.59645024992499
 1  9.72190721082108 -2.95057674327433 -0.04254252355236
 1  11.18555385278528  0.66844562466247  0.02059064426443
 1  11.08706466996700 -0.66233146964696  0.93394332453245
 1  12.93197790839084 -1.63402497369737 -0.79625283828383
 1  12.67187533973397 -0.00770084908491 -1.69339087278728
 1  14.00176133103310  0.92511222202220  0.73152606350635
 1  13.77385161216121 -0.94669109690969  0.99872671857186
 1  15.21895423962396  0.29155036113611 -1.35977799109911
 1  14.90516606950695 -2.24360694249425 -1.31742107530753
 1  16.67402127562756 -1.89989402600260 -0.99140492439244
 1  15.48980425922592 -2.43623875647565  0.34962423382338
 1  15.70757103030303  1.50389695999600  0.93041350035003
 1  16.32201685848585 -0.16445582228223  1.63864728732873
 1  17.98183940564056 -0.25735994649465 -0.42207207500750
 1  17.52008659425942  1.36034792309231 -1.15009344184418
 1  18.09454414391439  2.62228862476248  0.90314570427043
 1  18.31704395859586  0.94585039453945  1.79362651265127
 1  20.26840317271727  0.63358131913191 -0.02933177697770
 1  19.69068642524253  3.71930020012001 -0.75006690909091
 1  21.02314955865587  2.66552462216222 -1.39341244784478
 1  19.46860183318332  2.25419104080408 -1.93110529202920
 1  20.90571580808081  1.41770323832383  2.35053609020902
 1  21.82832568976898  2.76519654705471  1.01550570767077
 1  20.26069569896990  3.34287748734873  2.05934467236724
 1 -7.08163999709971  1.77837671087109  0.22768461456146
 1 -7.63613516191619 -0.15137531353135 -0.06234636223622

