%nproc=3
%Mem=2GB
# td=(NStates=1) B3LYP/SVP 

TD

0 1
 6 -5.05335303340334 -1.95761200330033  0.46011088698870
 6 -4.89202952195220  2.73116956865687  1.51753813971397
 6 -9.44381429112911  3.35604640384038 -0.08040650855085
 6 -9.74575262976298 -1.46327713111311 -1.02057461086109
 7 -5.19951911421142  0.42475409830983  0.80466890389039
 6 -4.50752936903690 -0.68326504750475  0.90063350675067
 6 -3.09977966446645 -0.58421485618562  1.34346934273427
 6 -3.12891785718572  0.88785767806781  1.93467257305731
 6 -4.45990518361836  1.37646746464646  1.44420801780178
 6 -2.83153172167217  1.01734924722472  3.46860472307231
 6 -2.15770784148415 -0.74422438413841  0.19078702430243
 6 -0.61326453865387 -0.60487870447045  0.67302975567557
 6  0.36895055645565 -0.93983085598560 -0.42762432003200
 8  0.04265603320332 -1.37578994559456 -1.56091970347035
 8  1.57552774987499 -0.66895366846685 -0.16779922262226
 7 -6.99193378797880  2.77883515531553  0.53619312851285
 6 -6.01408298369837  3.34859927822782  1.11207206410641
 6 -6.34369755545555  4.76339277877788  1.19240573337334
 6 -7.60020911771177  4.94939377487749  0.62064859225923
 6 -8.08136908280828  3.67035552925293  0.22796295169517
 6 -5.38718923542354  5.83625914101410  1.59690095609561
 6 -8.29500678337834  6.24052806440644  0.38164666596660
 6 -9.20043794199420  6.49246896879688 -0.57279975877588
 7 -9.16998519911991  0.83270050305031 -0.55145761416142
 6 -9.82696655955596  2.01927442614261 -0.59683895309531
 6 -11.31981584808481  1.78622218321832 -1.14971880578058
 6 -11.37362131263126  0.42905024512451 -1.25093004770477
 6 -10.07316954265426 -0.16882683438344 -0.96482972547255
 6 -12.26526502740274  2.93397189878988 -1.48934202450245
 6 -12.55685342484249 -0.27434991449145 -1.75799675937594
 6 -12.48873900460046 -0.45156842124212 -3.32417058835884
 7 -7.46428538613861 -1.25273695889589 -0.21842037053705
 6 -8.55963755125513 -2.01468019481948 -0.59265262766277
 6 -8.07725016401640 -3.37174405660566 -0.58670123742374
 6 -6.75380028912891 -3.36951377967797 -0.18709633353335
 6 -6.39053015641564 -2.00216303490349  0.01040611681168
 6 -8.93968672627263 -4.59977072657266 -1.03547254165417
 6 -5.66020296549655 -4.25798083318332 -0.03835288968897
 8 -5.54313380358036 -5.48626815691569 -0.17515478137814
 6 -4.48044567316732 -3.31410217181718  0.52484154625463
 6 -3.96812060996100 -3.77072116561656  1.75979250495049
 8 -4.34493956745675 -3.41095902980298  2.77656572467247
 8 -3.04806349394939 -4.78180315321532  1.67020744864486
 6 -2.52675737953795 -5.25070451655166  2.83855599519952
 6  2.66970913951395 -1.02592649024902 -1.14819884568457
 6  3.96795004180418 -0.74360486288629 -0.54023612371237
 6  4.98171042764276 -0.02419136423642 -1.13576753335334
 6  4.80932012771277  0.67443817551755 -2.40052716951695
 6  6.20595234043404  0.23094083328333 -0.49573848804880
 6  7.48719996039604 -0.34385056795680 -1.05229209610961
 6  8.77307890899090 -0.20998498359836 -0.15641398889889
 6  10.17473839953995 -0.69262358895890 -0.89485684048405
 6  10.08957499609961 -2.20420422332233 -1.02373165806581
 6  11.31235508570857 -0.28499281398140  0.02730217451745
 6  12.69948162236224 -0.59689500670067 -0.60643516661666
 6  13.90072866226623 -0.12033926012601  0.27316937243724
 6  15.35533444524452 -0.17758864036404 -0.34013757165717
 6  15.68291786358636 -1.70212907830783 -0.58899766806681
 6  16.30473121742174  0.55988050535054  0.47747676997700
 6  17.60458534733473  0.74316723442344 -0.24867876927693
 6  18.63245416971697  1.55668999789979  0.72911372757276
 6  20.00739264086409  1.61638944354435  0.12030375787579
 6  20.01232193109311  2.11457803390339 -1.35228330613061
 6  21.01543406470647  2.39604094289429  0.99377116531653
 1 -4.01663932423242  3.09614084608461  1.94140902180218
 1 -9.99436728982898  4.22709995209521  0.12063074037404
 1 -10.59320357675768 -2.10672782828283 -1.09829930303030
 1 -2.87720004700470 -1.14599383458346  2.16907778347835
 1 -2.28704001850185  1.50696091929193  1.52303521572157
 1 -1.87745800380038  0.34901126952695  3.43035213921392
 1 -3.07604309620962  2.17115216491649  3.82639283448345
 1 -3.54104370127013  0.29013419791979  3.97529270547055
 1 -2.35675118351835 -1.75352008510851 -0.42687713491349
 1 -2.48104144354435  0.06194238523852 -0.64739143334333
 1 -0.35933175297530  0.35957981158116  1.30750111141114
 1 -0.36285662496250 -1.29799175777578  1.36588409680968
 1 -4.51510632713271  6.02039640774077  0.80785358515852
 1 -5.82414762116212  6.78071298599860  1.66438573317332
 1 -4.76637472427243  5.39517756175618  2.49291342534253
 1 -8.06516152555256  6.81329120362036  1.13318487238724
 1 -9.37610296219622  5.74762492299230 -1.43233481958196
 1 -9.79670441704170  7.58009673717372 -0.56891711461146
 1 -12.42494685668567  3.66322550975098 -0.64671248434844
 1 -12.11199504780478  3.61021497889789 -2.12974229102910
 1 -13.33143416621662  2.47349518521852 -1.62331668706871
 1 -12.51378375157516 -1.39769869656966 -1.41512626372637
 1 -13.44431145564556  0.39215337003700 -1.55685804460446
 1 -12.23489911981198  0.48054486758676 -3.82635998029803
 1 -11.68056302430243 -1.13885145874587 -3.68863781588159
 1 -13.35684243774377 -0.88949804460446 -3.83941148344835
 1 -9.82578912771277 -4.80154947474748 -0.42600490249025
 1 -8.99976395529553 -4.42258020402040 -2.18677557575758
 1 -8.20871604630463 -5.38633690069007 -0.86625458095810
 1 -3.92939479087909 -3.38145443564356 -0.35847719631963
 1 -1.86417681068107 -6.14098919461946  2.54592792689269
 1 -1.72212065846585 -4.38206169006901  3.41391583418342
 1 -3.21743475987599 -5.72269736133613  3.64295117071707
 1  2.33187709520952 -2.03412105560556 -1.43663483048305
 1  2.56241113561356 -0.29128670947095 -1.79992775997600
 1  4.20857362906291 -1.13422573687369  0.39716761976198
 1  5.03456528572857  1.60172268126813 -2.23013773357336
 1  5.43782039923992  0.32844880738074 -3.19171057265727
 1  3.86448656685669  0.70884207100710 -3.07799862496250
 1  6.37237525372537  1.41330745574557 -0.20059025012501
 1  6.26177422212221 -0.19036892649265  0.60861856925693
 1  7.28968575347535 -1.48353507810781 -1.00137089668967
 1  7.83053259575958 -0.12414039343934 -2.08660348934894
 1  8.99220470787079  0.87090593189319  0.07761791009101
 1  8.60105316811681 -0.81043519501950  0.77267007940794
 1  10.34120678927893 -0.22403984728473 -1.95432000700070
 1  9.23203351955195 -2.56288498169817 -1.85689423722372
 1  10.97852288338834 -2.95462706250625 -1.38087869276928
 1  9.99828484858486 -2.73667535313531 -0.02359062836284
 1  11.23198849624963  0.79474825492549  0.20071865706571
 1  10.94104006750675 -0.64664990149015  1.05875580578058
 1  12.86225093569357 -1.71678324952495 -0.86923013601360
 1  12.80038819101910 -0.03618369736974 -1.51467300100010
 1  13.83454460936094  0.91517122792279  0.70479339023902
 1  14.16630085708571 -0.82873930173017  1.20869771567157
 1  15.21106345054505  0.30705191129113 -1.29011102440244
 1  15.06526207910791 -2.17362994479448 -1.54251358455846
 1  16.84839871337133 -1.64083812041204 -0.84133991789179
 1  15.75696097489749 -2.31639677227723  0.17652692409241
 1  15.99516979017902  1.49108567886789  0.40774123312331
 1  16.38049270607061  0.09313993729373  1.50374379697970
 1  18.19484070577058 -0.20838504900490 -0.61229109690969
 1  17.42836742234223  1.41157304560456 -1.27062549504951
 1  18.12688737823783  2.54644104000400  0.81221661136114
 1  18.72689494369437  1.18398420792079  1.64447159715972
 1  20.35924225662566  0.49641760276028  0.11462261846185
 1  19.58602595919592  3.10203847394739 -1.56020792319232
 1  21.16107335103511  1.99760783048305 -1.74222732933293
 1  19.47776274927493  1.51784740644064 -2.05878806030603
 1  21.01741697819782  1.86548801680168  1.99777081368137
 1  22.10836369356936  2.11920194759476  0.46348050515051
 1  20.61998162756276  3.40313351295129  0.99269800770077
 1 -7.18397023012301  1.72171104430443  0.43018486458646
 1 -7.48950049844984 -0.25660583658366 -0.26829695729573

