%nproc=3
%Mem=2GB
# td=(NStates=1) B3LYP/SVP 

TD

0 1
 6 -5.02381007910791 -1.88110435253525  0.39598447434744
 6 -4.71398171717172  2.82855930763076  1.46782316821682
 6 -9.24207411711171  3.29894069326933 -0.11706017391739
 6 -9.80285834033403 -1.45308611201120 -0.98996154955496
 7 -5.18909807210721  0.54643626652665  0.81763020002000
 6 -4.51662027812781 -0.67950467146715  0.82528597199720
 6 -3.05244493099310 -0.57071350605060  1.22742773857386
 6 -2.99845481088109  0.91941083338334  1.84295340114011
 6 -4.40734992809281  1.45752557045705  1.35217881488149
 6 -3.03852242074207  0.86999451175117  3.44629249184918
 6 -2.00478254895490 -0.71098105980598 -0.01414346874687
 6 -0.55488870107011 -0.76708492509251  0.47734018671867
 6  0.38565222662266 -1.12154902780278 -0.69496105370537
 8  0.07754952255226 -1.75960832743274 -1.73407701920192
 8  1.62362255935594 -0.75130190329033 -0.30669311201120
 7 -6.96066066066607  2.72996026782678  0.55836534573457
 6 -5.89060063546355  3.40144456275628  1.13240409730973
 6 -6.26778996469647  4.83910034953495  1.12121861466147
 6 -7.52889198599860  4.89892872837284  0.48941546894689
 6 -7.98775972187219  3.60088858255826  0.26146630203020
 6 -5.44680519701970  5.92649816491649  1.61728299429943
 6 -8.21717900060006  6.13744775637564  0.34128262956296
 6 -8.87128502670267  6.65782550445044 -0.80708318711871
 7 -9.19199740034003  0.85800303330333 -0.47785025342534
 6 -9.82118598149815  2.03689618831883 -0.43185245444544
 6 -11.24261812831283  1.84998855985599 -0.86267010091009
 6 -11.42842679317932  0.55059239933993 -1.11484643934393
 6 -10.14081630733073 -0.07947789948995 -0.89679292179218
 6 -12.22269076997700  2.91186968856886 -1.05863895419542
 6 -12.61932967246725 -0.24544702420242 -1.47586854655466
 6 -12.96574670537054 -0.36300956535654 -3.04149232053205
 7 -7.53977293489349 -1.26575826102610 -0.16219474797480
 6 -8.62141372887289 -2.13301202800280 -0.63536689908991
 6 -8.06650908990899 -3.34533141534153 -0.69936250355035
 6 -6.81477638673867 -3.40918774707471 -0.23687131103110
 6 -6.45937704110411 -2.04782760136014 -0.01065598939894
 6 -8.88557131473147 -4.64679542904290 -1.23677267166717
 6 -5.63614055925593 -4.34573960906091 -0.00092914731473
 8 -5.65502499269927 -5.49530906100610 -0.28326559245925
 6 -4.52996062466247 -3.31870263186319  0.43229229132913
 6 -4.03257705560556 -3.81189528302830  1.72190871657166
 8 -4.30094516801680 -3.49839777367737  2.78661672977298
 8 -3.06043473107311 -4.74286925982598  1.47868829672967
 6 -2.61462616641664 -5.57241668776878  2.66239837943794
 6  2.70144231283128 -1.08910280788079 -1.21875590139014
 6  4.02223547034703 -0.50549105150515 -0.49830193029303
 6  4.97219947654765  0.06937799269927 -1.22198615521552
 6  4.96989618531853  0.38266899859986 -2.73594071087109
 6  6.25417716291629  0.38507624682468 -0.48281719591959
 6  7.55192643304330 -0.34746092899290 -0.98879574647465
 6  8.72681428252825  0.06908292319232 -0.17017536503650
 6  10.02629355505551 -0.75210953755376 -0.57458481328133
 6  9.89368540714072 -2.37389119201920 -0.32823210811081
 6  11.23640749094910 -0.09148346304630  0.11719116341634
 6  12.57304897909791 -0.50029534673467 -0.51439596269627
 6  13.81561015041504  0.17358013181318  0.16196825232523
 6  15.23038194999500 -0.29635051655166 -0.37591114901490
 6  15.52002157395740 -1.86985585098510 -0.06727549584959
 6  16.29082982728273  0.67876239353935  0.42875189748975
 6  17.66429131793180  0.70661357905791 -0.25112901430143
 6  18.69172009630963  1.60191452035204  0.47733855005501
 6  20.17692959455946  1.66536434103410  0.09495122262226
 6  20.29660035893589  2.11429800590059 -1.38420649844985
 6  21.05596811811181  2.56195753455346  0.96502829102910
 1 -4.03978163846385  3.50898213021302  2.05775065596560
 1 -10.09963781688169  4.12951019311931 -0.17991931463146
 1 -10.67384164056406 -2.21535869136914 -1.29267874097410
 1 -2.84119644664466 -1.14220345554555  2.26632750845085
 1 -2.11833314781478  1.49705992919292  1.56739965216522
 1 -2.12687294529453  0.44055042344234  3.96901600560056
 1 -3.39089458135814  1.78298334803480  3.77705790099010
 1 -4.00496009290929  0.23253843834383  3.64555973217322
 1 -2.28090359875988 -1.76031076417642 -0.59661410861086
 1 -2.16870020942094  0.03618980998100 -0.70207690189019
 1 -0.55228104790479  0.30341419501950  0.86999736103610
 1 -0.33106344564456 -1.50079203780378  1.33345085348535
 1 -4.42495731223122  5.97163153125313  1.12622542234223
 1 -6.03176838323832  7.06763167786779  1.62004129872987
 1 -5.09628771557156  5.84986303030303  2.54915904990499
 1 -8.13163817321732  6.96195607010701  1.21504305820582
 1 -8.90822617451745  6.03707386788679 -1.81068265436544
 1 -9.36351109770977  7.58531725922592 -0.76590681358136
 1 -11.94078844084408  3.67741692889289 -0.14463227632763
 1 -11.88791263956396  3.44201815921592 -1.88676799359936
 1 -13.29985100790079  2.48856669236924 -1.34233858925893
 1 -12.40282265546555 -1.30389931663166 -1.19626437753775
 1 -13.67220424492449  0.28486264096410 -1.06912927172717
 1 -13.07849347924792  0.72097891099110 -3.35403274757476
 1 -12.03525849384939 -0.76668424202420 -3.61622057415742
 1 -13.70958771227123 -0.89140823562356 -3.40689823212321
 1 -9.67847439623963 -5.04108342814281 -0.28552085408541
 1 -9.48396237513751 -4.34190213621362 -2.05746264446445
 1 -8.23960913561356 -5.58321658865887 -1.33418137363736
 1 -3.82546439783978 -3.37830412061206 -0.48414976357636
 1 -1.96626701970197 -6.26841193689369  2.29135246934694
 1 -2.32333077947795 -4.96003948784879  3.37552199479948
 1 -3.55198821522152 -6.05000009160916  3.18421529712971
 1  2.78628253575358 -2.04969261276128 -1.40814198119812
 1  2.32912780728073 -0.79977755855585 -2.18178594579458
 1  4.15481825352535 -0.71284359865987  0.57049495249525
 1  5.20493232243224  1.38478098709871 -3.12445716551655
 1  5.69266588378838 -0.35526956445645 -3.16063746534653
 1  4.11071118931893  0.09677086388639 -3.26281710681068
 1  6.38831684788479  1.46950307530753 -0.61382157325733
 1  5.86655470017002  0.16178628902890  0.49738744614461
 1  7.24511129602960 -1.26680340494049 -1.08911967156716
 1  7.74092363486349  0.05251727232723 -1.97823265226523
 1  8.87835332273227  1.07725656695670 -0.13773362506251
 1  8.54266732953295 -0.10782493399340  1.06875968836884
 1  9.97448011661166 -0.42964040734073 -1.55073964896490
 1  8.93411372757276 -2.69079777297730 -1.03291183898390
 1  10.64467949904991 -3.01683328312831 -0.57338794369437
 1  9.78005302540254 -2.43800548614861  0.80177190789079
 1  11.07224252165217  1.02472125222522 -0.04905632043204
 1  11.35074103760376 -0.35256049254926  1.15090502070207
 1  12.52134684528453 -1.58142971417142 -0.70190340334033
 1  12.62989114131413 -0.08238831783178 -1.48899043274327
 1  13.64935609050905  1.22791250205020 -0.10760784988499
 1  13.73217744474447 -0.14372079987999  1.32419926582658
 1  15.29470181438144 -0.16473526742674 -1.48481049434944
 1  14.87329288218822 -2.54801738353835 -0.62390172337234
 1  16.50328420192019 -2.35751978857886 -0.53703948784879
 1  15.51277655645564 -2.04903003560356  1.05407467886789
 1  15.90517079027903  1.73213978427843  0.44891535053505
 1  16.49034369116912  0.48831945524552  1.47673109570957
 1  17.88777999969997 -0.44232844334433 -0.11499136693669
 1  17.47235182078208  0.96342823112311 -1.33208164066407
 1  18.46314100360036  2.58090448634863  0.37486287598760
 1  18.66270852505250  1.70117592709271  1.77441459145915
 1  20.35490182258226  0.59091705270527  0.27922907910791
 1  19.76939429602960  3.05277354745475 -1.47474937733773
 1  21.36450369406941  2.31205927562756 -1.60394350095010
 1  19.61739671267127  1.50482610431043 -2.21870405190519
 1  21.14764000050005  2.13270473847385  1.86117715431543
 1  22.11103396059606  2.36625665306531  0.70066422352235
 1  20.73499312871287  3.60591379097910  0.75843458135814
 1 -6.96748858195820  1.72542141534153  0.52435428152815
 1 -7.74421596999700 -0.12767294329433 -0.20520064766477

