%nproc=3
%Mem=2GB
# td=(NStates=1) B3LYP/SVP 

TD

0 1
 6 -5.15171286938694 -1.87674391649165  0.38540341624162
 6 -4.87660797979798  2.81213766546655  1.20581696759676
 6 -9.40383029272927  3.24949574877488 -0.33961242914291
 6 -9.91044909940994 -1.53586438983898 -0.80992354575458
 7 -5.21972113441344  0.50124174707471  0.72874131113111
 6 -4.49811842794279 -0.64369109010901  0.76456990039004
 6 -3.00751043754375 -0.39648608330833  1.08162315811581
 6 -3.04768973437344  0.98418731103110  1.70136924272427
 6 -4.43720291339134  1.52478229612961  1.15545914291429
 6 -2.86603517201720  1.07671518381838  3.18485634823482
 6 -1.99181125182518 -0.69562952465247 -0.02093414781478
 6 -0.55930914311431 -0.64756297289729  0.40571302400240
 6  0.43040670207021 -0.87342421532153 -0.70428198579858
 8  0.11312307990799 -1.26687905450545 -1.83817742924292
 8  1.61552174927493 -0.62855962906291 -0.33576601930193
 7 -7.12787738233823  2.81616888868887  0.43730323952395
 6 -6.00154172957296  3.47472189048905  0.90903176007601
 6 -6.36076926262626  4.88157459695970  1.08603509630963
 6 -7.66826592339234  4.98989782528253  0.56553308070807
 6 -8.15771671757176  3.65351384508451  0.16614677007701
 6 -5.50777129362936  5.95828134323432  1.49229049504951
 6 -8.44026130883088  6.19097310891089  0.38410691199120
 6 -9.30090798899890  6.52010173207321 -0.59466194499450
 7 -9.27712591319132  0.74298153115312 -0.45708817721772
 6 -10.02061592449245  1.93482598129813 -0.50580985018502
 6 -11.40097396389639  1.72756631763176 -0.90509434333433
 6 -11.51901585208521  0.41315865596560 -1.09079403410341
 6 -10.11116334203420 -0.17147709940994 -0.79377261976198
 6 -12.42128062896290  2.90834933653365 -1.02726581688169
 6 -12.65719345884589 -0.29689216871687 -1.45773673337334
 6 -12.69885001570157 -0.90244350875087 -2.94198236953695
 7 -7.49015797339734 -1.30780246544654 -0.27752628112811
 6 -8.58760034753475 -2.12367109390939 -0.56926028842884
 6 -8.19640207920792 -3.40625750795080 -0.49499206650665
 6 -6.86662157125713 -3.36978380668067 -0.09858748264826
 6 -6.50100120352035 -2.05201802040204 -0.07025194899490
 6 -9.07577033463346 -4.69402015151515 -0.66787578197820
 6 -5.64038098329833 -4.23639867496750  0.07291823742374
 8 -5.45119460966097 -5.44786431653165  0.08597133123312
 6 -4.42947057565757 -3.19310007160716  0.41383044514451
 6 -3.86472026992699 -3.65584967846785  1.79062558825883
 8 -4.04698977247725 -3.29806774067407  2.93099116721672
 8 -2.92784147174717 -4.59301427432743  1.59971039893989
 6 -2.30071477527753 -5.23175262136214  2.72593473307331
 6  2.56970913951395 -0.90289418701870 -1.35204923072307
 6  3.90273352015202 -0.75423592599260 -0.62565466556656
 6  5.03393565016502  0.08524957985799 -0.90557451405141
 6  4.98754795049505  1.01566229792979 -2.14194131093109
 6  6.39912165736574  0.06586432563256 -0.08177709190919
 6  7.54565580598060 -0.42397858075808 -1.04495136203620
 6  8.84781638273827 -0.41283526862686 -0.11838018551855
 6  10.20310123582358 -0.70620494709471 -1.05169252405241
 6  10.14073011161116 -2.16195999889989 -1.75688497339734
 6  11.45133898409841 -0.43808812351235 -0.04261481718172
 6  12.80425209940994 -0.58577389458946 -0.79950447354735
 6  13.91477006640664 -0.28940616681668  0.18993104860486
 6  15.24115302710271 -0.20338121962196 -0.42835639353935
 6  15.71492106390639 -1.64737360276028 -0.95269403770377
 6  16.35165590989099  0.33661817911791  0.58478750105011
 6  17.77785267406741  0.56513943164316 -0.02570647204720
 6  18.65337626192619  1.34625895479548  0.92752356855686
 6  20.10255215681568  1.64004180878088  0.34009573707371
 6  20.13256395529553  2.43226980308031 -0.90797887568757
 6  20.97784030533053  2.14436577537754  1.60852264046405
 1 -4.20218787908791  3.59132036403640  1.67077195809581
 1 -10.28274612771277  4.02413965606561 -0.56433775647565
 1 -10.81822607900790 -2.06105326082608 -1.09383885698570
 1 -2.64176650365036 -1.04049328452845  1.91206208190819
 1 -2.24623593809381  1.63676389958996  1.10481339353935
 1 -1.80782104010401  0.76622299069907  3.42424152815282
 1 -3.10367585948595  2.05802085178518  3.63467366256626
 1 -3.37954755165517  0.33366855135514  3.73114829102910
 1 -2.04858036643664 -1.68813354645465 -0.43018746594659
 1 -2.14551789118912 -0.03176698569857 -0.64837153135314
 1 -0.36843266306631  0.39971382498250  0.89159952125212
 1 -0.44994533383338 -1.50746270487049  1.09854736313631
 1 -4.70331514801480  6.12671703980398  0.90154295409541
 1 -6.02202740914091  7.03516843154315  1.65465476007601
 1 -4.86709479627963  5.58802684668467  2.33881801580158
 1 -8.26608161756176  7.04049392389239  1.12301385528553
 1 -9.64049940184018  5.73516367686769 -1.44969655575557
 1 -9.85905065166516  7.56827555505551 -0.57318754165417
 1 -12.79036339833984  3.06030521772177  0.09476166306631
 1 -12.12378622692269  3.64083804120412 -1.62236155295530
 1 -13.42323334613461  2.43409124482448 -1.42401675707571
 1 -13.00075244844484 -1.12464139083908 -0.49005375647565
 1 -13.64491151565156  0.41658581328133 -1.40617297609761
 1 -12.77593322322232 -0.08851203810381 -3.71027837213721
 1 -11.65333030103010 -1.48345591919192 -3.01858081018102
 1 -13.47991474497450 -1.61477057185719 -3.15306284858486
 1 -10.06855340414041 -4.53868318811881 -0.05304760676068
 1 -9.33936791569157 -4.90653859985999 -1.67684458265827
 1 -8.59615479017902 -5.71411967896790 -0.18483643914391
 1 -3.63934578597860 -3.57586387658766 -0.18429977857786
 1 -1.55537593059306 -5.98261335703570  2.28170150425042
 1 -1.59978842524252 -4.11383486738674  3.31136557915792
 1 -3.16329934633463 -5.62334742634263  3.40665754135413
 1  2.38541244874487 -2.05132277577758 -1.91440260726073
 1  2.61813670817082 -0.09974755555556 -2.19121688888889
 1  4.05383815551555 -1.40797311161116  0.14594249724973
 1  5.79245107430743  1.81094360336034 -2.11246596639664
 1  5.36208282548255  0.26217217971797 -3.05733713531353
 1  3.74371448964896  1.37990917771777 -2.52762358745875
 1  6.55463347954796  1.19842596759676  0.13115292419242
 1  6.05045309000900 -0.43767365696570  0.78150585798580
 1  7.51026781168117 -1.48195492009201 -1.80184094369437
 1  7.58501804430443  0.37924994559456 -1.99222405140514
 1  8.86011149854985  0.69206804810481  0.25855600390039
 1  8.75999906270627 -1.04806895839584  0.74180699309931
 1  10.13917658625863  0.24213677037704 -1.84521909690969
 1  9.21754207040704 -2.38910760396040 -2.32893144094409
 1  10.92595762686269 -2.22790439023902 -2.27515812071207
 1  10.02611763186319 -3.03389507510751 -0.86266453575358
 1  11.23038833623362  0.48023680378038  0.47844642984298
 1  11.29693565706571 -1.46035127162716  0.67384731493149
 1  12.79204391499150 -1.71553312451245 -1.23364657765777
 1  12.77309546174617  0.10611053205321 -1.71152268596860
 1  13.78425958085809  0.84401411221122  0.38016092699270
 1  13.77588181518152 -1.11755818361836  1.11138798469847
 1  15.22389473367337  0.30170137623762 -1.40121213451345
 1  15.04691024392439 -2.22892547434743 -1.59753908710871
 1  16.64845871937194 -1.53571760836084 -1.59145492939294
 1  16.01180645944594 -2.53799893249325 -0.25426615521552
 1  15.93195346854685  1.39081565186519  0.65321578057806
 1  16.16526118291829 -0.32496187288729  1.51322474507451
 1  18.36641786348635 -0.30680489098910 -0.15367523532353
 1  17.55589017461746  1.07534942324232 -1.11083951645165
 1  18.07257194669467  2.36368276417642  1.34235962566257
 1  18.67011926612662  0.89612542204220  1.99445659565957
 1  20.30053638603860  0.47040500150015  0.08774993119312
 1  19.82105946254626  3.43577184728473 -0.76090799319932
 1  21.19656690039004  2.50999906960696 -1.25195830243024
 1  19.32943791679168  2.18775439713971 -1.79893207470747
 1  21.23376861336133  1.11922339033903  2.24632566916692
 1  22.04780763796380  2.37569759715972  1.30009416651665
 1  20.56958658805881  3.21590479007901  2.16144488238824
 1 -7.33360519361936  1.73781265446545  0.47891973807381
 1 -7.43671521992199 -0.30438061406141 -0.18196832443244

