%nproc=3
%Mem=2GB
# td=(NStates=1) B3LYP/SVP 

TD

0 1
 6 -5.10777847594759 -1.98422466456646  0.50799567546755
 6 -4.76877719671967  2.84697114881488  1.38006439233923
 6 -9.32065197489749  3.32596339553955 -0.22305077297730
 6 -9.76318437293729 -1.53825462886289 -0.91320387378738
 7 -5.20485964826483  0.44958658155816  0.86722515951595
 6 -4.51521013711371 -0.75657237823782  0.89065250865087
 6 -3.07986767326733 -0.48756519121912  1.25962095789579
 6 -3.10499546494649  0.90928982128213  1.88534764056406
 6 -4.42334152725272  1.46431624952495  1.39746334333433
 6 -2.95765433393339  1.05000251255126  3.41184904750475
 6 -2.08391046174617 -0.69824978667867  0.10984893049305
 6 -0.61238445064506 -0.64049226582658  0.52499495219522
 6  0.33030669206921 -0.96265313821382 -0.59367092469247
 8  0.12810457805781 -1.36652901950195 -1.68991260276028
 8  1.65442563966397 -0.78964573767377 -0.18572101480148
 7 -7.07279187378738  2.76406367816782  0.47283679287929
 6 -6.00482205760576  3.40219463776378  0.96764762166217
 6 -6.22389557525753  4.86268270777078  0.93567005980598
 6 -7.53246234303430  5.01346018151815  0.54441096849685
 6 -8.02960390629063  3.58509700340034  0.17903805920592
 6 -5.24696521302130  5.81578709380938  1.47929919591959
 6 -8.32252953565357  6.32884689628963  0.29371787308731
 6 -9.24168206640664  6.59193891579158 -0.62306478527853
 7 -9.17275547614761  0.85020225322532 -0.46213868226823
 6 -9.84824868776878  2.04727722642264 -0.43141241044104
 6 -11.31615548204821  1.79009257025703 -0.96131996589659
 6 -11.41850580108011  0.46010335043504 -1.16781173587359
 6 -10.10807303300330 -0.14123407510751 -0.87493073557356
 6 -12.26271477237724  2.81159966156616 -1.01711480178018
 6 -12.66208394789479 -0.31322380188019 -1.65142610231023
 6 -12.70413054375438 -0.42032529692969 -3.15964413571357
 7 -7.41678063566357 -1.21739342454245 -0.26676520502050
 6 -8.42990457795780 -2.00146887368737 -0.70945430783078
 6 -8.08513095209521 -3.42353923612361 -0.82881544884488
 6 -6.72605751485148 -3.38518534683468 -0.31792941684168
 6 -6.32884398779878 -2.13575639423942 -0.01724664846485
 6 -8.89077183478348 -4.62747349684969 -1.17367636203620
 6 -5.64747169236924 -4.36410144524452  0.01567251285129
 8 -5.53473296349635 -5.50502003210321 -0.06842410831083
 6 -4.43281090969097 -3.38565932753275  0.46616567866787
 6 -3.89046284418442 -3.74067816131613  1.83766029172917
 8 -4.16312138563856 -3.20664859875988  2.89755782388239
 8 -3.09307799539954 -4.83399837273727  1.58544897279728
 6 -2.46763146694669 -5.43122256835684  2.74161630123012
 6  2.60258242684268 -1.01028492609261 -1.13854788058806
 6  3.93761700850085 -0.62976347874788 -0.54177627772777
 6  4.90106236283628  0.14839589448945 -1.09186314291429
 6  4.88424762046205  0.78305903760376 -2.39231634843484
 6  6.24124586978698  0.28000573977398 -0.31649056325633
 6  7.57376861726173 -0.20304648754875 -0.95875274217422
 6  8.75142674377438 -0.34850883598360  0.04048570107011
 6  10.02439336503650 -0.76685101170117 -0.67987534233423
 6  10.04246028462846 -2.20320412331233 -0.98889817471747
 6  11.24501835203520 -0.38459277397740  0.11998144244424
 6  12.60154182838284 -0.67376269346935 -0.49674419751975
 6  13.81205979537954 -0.18740596679668  0.29915197069707
 6  15.16716562836284 -0.21147202870287 -0.36094965286529
 6  15.55876544834483 -1.64924378977898 -0.76225499379938
 6  16.25289603390339  0.49421393869387  0.39977900020002
 6  17.60745563436344  0.67123004070407 -0.24905880728073
 6  18.56579750405040  1.44560888978898  0.68711952815282
 6  20.10092199379938  1.67691549614961  0.07932966046605
 6  20.20345104400440  2.33030960706071 -1.29762784058406
 6  20.94588711001100  2.48283962276228  1.08891067926793
 1 -4.03415107540754  3.57291852385238  1.93400828172817
 1 -9.98525637873787  4.12218946104610 -0.29356067876788
 1 -10.63409766616662 -2.19832698819882 -1.15832530563056
 1 -2.79655198219822 -1.02472170737074  2.14480535623562
 1 -2.13492480698070  1.41130135333533  1.71572448464847
 1 -1.91418167616762  0.51159752815282  3.75162426642664
 1 -3.17043253515351  2.10616566626663  3.60323051825182
 1 -3.64134373127313  0.62275746024602  3.99375455165517
 1 -2.39941544994499 -1.67217195029503 -0.41692613981398
 1 -2.33882722212221 -0.26630043904391 -0.69622631683168
 1  0.02940712091209  0.18899275287529  1.03643400470047
 1 -0.24038437773777 -1.36623858245825  1.26073358175818
 1 -4.53104792129213  6.11387575567557  0.79343214301430
 1 -5.64850005640564  6.76768168286829  1.36682597719772
 1 -5.02618070487049  5.73724176817682  2.52608674267427
 1 -8.00274528392839  6.86307618211821  1.14179573347335
 1 -9.51578693059306  5.98317847834783 -1.44725631173117
 1 -9.66282102870287  7.59899862736274 -0.85013523642364
 1 -12.61620598259826  3.54235342254225 -0.13146095919592
 1 -11.90999484778478  3.50626458385839 -1.89984930173017
 1 -13.34840586338634  2.74619245494549 -1.31485584098410
 1 -12.57920029322932 -1.42884181088109 -1.25999075017502
 1 -13.48394541904190  0.11818597329733 -1.21128348714871
 1 -12.76684231413141  0.50245705880588 -3.62516986128613
 1 -11.67031199919992 -0.88813638723872 -3.35946489858986
 1 -13.30091684518452 -1.35175427022702 -3.42966050835084
 1 -10.17638418721872 -4.50287960776078 -0.73336563856386
 1 -8.71568554745474 -4.70026797279728 -2.45880277847785
 1 -8.48056323102310 -5.55031329832983 -0.57299525502550
 1 -3.71442329372937 -3.61605789598960 -0.29302065066507
 1 -1.89182957595760 -6.28703379907991  2.32536587068707
 1 -1.96658510491049 -4.59627311121112  3.34957940054005
 1 -3.33254627102710 -5.97999309090909  3.31250812641264
 1  2.64892880038004 -1.99832747624763 -1.56260742774277
 1  2.24554944944494 -0.52828040884088 -2.03508127532753
 1  4.26960973267327 -1.14069638393839  0.35770367336734
 1  5.31083291249125  1.74811732073207 -2.27183190299030
 1  5.75236185338534  0.28979494199420 -2.97104850645065
 1  3.84421453965397  0.81316250305031 -2.97072789788979
 1  6.33444146034604  1.36565269026903 -0.00392058315832
 1  6.22579062376238 -0.44645453505351  0.57865557295730
 1  7.44248103300330 -1.16968369296930 -1.35090585018502
 1  7.66467601010101  0.60023204380438 -1.84455928492849
 1  8.93116860426042  0.61548038933893  0.50455060336034
 1  8.33301636443644 -1.29621377287729  0.78965177757776
 1  10.25669833843384  0.01830438713871 -1.52796737173717
 1  9.19104942114211 -2.54207290049005 -1.65969451725172
 1  10.81916694779478 -2.65513711351135 -1.58924952985298
 1  10.02073709380938 -2.97638932453245 -0.09628789808981
 1  11.06481177857786  0.61948072817282  0.52135072027203
 1  11.41586755025503 -1.21482671917192  1.01873180338034
 1  12.51832654325433 -1.74357592879288 -0.81307452045204
 1  12.32910106230623 -0.19226930593059 -1.52619415311531
 1  13.71818297319732  0.92994270507051  0.69696260716072
 1  13.91229545654565 -0.84985141294129  1.26960380628063
 1  15.28320066426643  0.33994520062006 -1.38610062336234
 1  14.81203675657566 -2.17063964576458 -1.53704303750375
 1  16.51593546704671 -1.66408044464446 -1.26452223612361
 1  15.56925220402040 -2.54725985858586  0.26860613201320
 1  15.76380665386539  1.43387995829583  0.88689914891489
 1  16.34672932973297 -0.09480885758576  1.38428185078508
 1  17.92195341704170 -0.39242345284528 -0.58784865266527
 1  17.49173375897590  1.07137902620262 -1.14718315081508
 1  18.19384407390739  2.44648104400440  0.81073646334633
 1  18.76583883808381  0.98016382588259  1.65125227522752
 1  20.48951528392839  0.68711667266727  0.03437459365937
 1  19.72152950955095  3.24337260736074 -1.43605550795080
 1  21.09208645234524  2.05727379707971 -1.91999510611061
 1  19.40508548154815  1.62396801850185 -2.01455363686369
 1  21.01410664716472  1.62240370837084  1.84806584318432
 1  22.01175403260326  2.36051607900790  0.64228838593859
 1  20.61769139853985  3.56001920152015  1.21500023792379
 1 -7.14527636073607  1.84858373157316  0.43132497859786
 1 -7.28049959835984 -0.29262943894389 -0.23615374297430

