%nproc=3
%Mem=2GB
# td=(NStates=1) B3LYP/SVP 

TD

0 1
 6 -5.05364306240624 -2.02441868396840  0.54085896179618
 6 -4.80582090109011  2.76379283098310  1.54436082198220
 6 -9.18947885758576  3.36894769396940 -0.46684515241524
 6 -9.82295034953495 -1.42347315071507 -1.18642119551955
 7 -5.21315047734774  0.38151977487749  0.92293073007301
 6 -4.58182679877988 -0.77607432843284  0.93902734613461
 6 -3.12651233773377 -0.59394582928293  1.50284528032803
 6 -3.10460542594259  0.94242313461346  1.87142624842484
 6 -4.41377057015702  1.42083190109011  1.47537113411341
 6 -2.92845141364136  1.07423493579358  3.46203406600660
 6 -2.08318038873887 -0.94703466516652  0.38720666626663
 6 -0.59208242044204 -0.92779099569957  0.74778723142314
 6  0.36828048944894 -1.30140701360136 -0.22335389298930
 8  0.00925269286929 -1.81996436303630 -1.38145175667567
 8  1.69410960806081 -1.03415018811881  0.11113867116712
 7 -7.10003459805981  2.76409368116812  0.48628813801380
 6 -5.94513608900890  3.37821223952395  1.16585744264426
 6 -6.22194538023802  4.76702314181418  1.18042453525353
 6 -7.40952004880488  4.95926476197620  0.52267879527953
 6 -8.00088103400340  3.69304779847985  0.17930808620862
 6 -5.23251376787679  5.89409492459246  1.62119338533853
 6 -8.16854413711371  6.28795280688069  0.44636313761376
 6 -8.97427532573257  6.57924764666467 -0.53412589138914
 7 -9.22729092969297  0.98087532053205 -0.53079554795480
 6 -9.80378424132413  2.15882838153815 -0.65246451565157
 6 -11.16240010651065  1.90729429042904 -1.24447828172817
 6 -11.30069401990199  0.63073041314131 -1.47291224592459
 6 -10.07796002170217 -0.01473142484248 -1.05572881538154
 6 -12.11189969086909  3.06305480708071 -1.55571866216622
 6 -12.47551529102910 -0.16459893939394 -1.97319827952795
 6 -12.58251838253825 -0.28199146354635 -3.50706887818782
 7 -7.49147810541054 -1.27937962316232 -0.21221975047505
 6 -8.56689827732773 -1.92691141794179 -0.61709507190719
 6 -8.12782522152215 -3.35604248644864 -0.63652621992199
 6 -6.88461337043704 -3.31988881718172 -0.17985560946095
 6 -6.43819492289229 -2.02163498209821  0.08358343454345
 6 -8.86127888548855 -4.52433318281828 -1.14937393179318
 6 -5.73829077427743 -4.26538157325733 -0.02336139053905
 8 -5.62728221842184 -5.43908343844384 -0.23074033993399
 6 -4.52211984058406 -3.33920468206821  0.51414047614761
 6 -4.01951574947495 -3.94143823732373  1.84911143684368
 8 -4.35972104560456 -3.55194312821282  2.94569263736374
 8 -3.22342102970297 -4.91608658155816  1.61449187708771
 6 -2.88760346414641 -5.63628307440744  2.78170030963096
 6  2.66261843044304 -1.15603950155016 -0.98312233803380
 6  3.93496674347435 -0.86634713711371 -0.31982408250825
 6  4.82588484508451 -0.02121106620662 -0.84918887548755
 6  4.79665886158616  0.55020575227523 -2.16359347614761
 6  6.18374011921192  0.12830056925693 -0.11012992719272
 6  7.34798603900390 -0.44135031793179 -0.74316118301830
 6  8.72144374547455 -0.18915290039004 -0.06975532303230
 6  10.03171409710971 -0.55994032063206 -0.92432978777878
 6  10.00940697929793 -2.08928273117312 -1.17207649254926
 6  11.29020287048705 -0.24660897559756 -0.05576613231323
 6  12.64778645284528 -0.27202251945194 -0.67193171627163
 6  13.80485907530753  0.16693946774677  0.04997705320532
 6  15.20105901770177 -0.05335621712171 -0.62185574347435
 6  15.57354692649265 -1.57728659405941 -0.50846961526153
 6  16.29930067436744  0.83709822712271  0.19997902020202
 6  17.65943083188319  0.92871578927893 -0.45560946234623
 6  18.69521044534453  1.68697302620262  0.39130994719472
 6  20.10638253985399  1.55421322592259  0.01403313081308
 6  20.31870256915692  2.29810638673867 -1.39953803160316
 6  21.09285180648065  2.31142248104810  0.98280006820682
 1 -4.09911757205720  3.36333756575658  2.42326720762076
 1 -10.02472032513251  3.99701694379438 -0.60440176287629
 1 -10.42261651805181 -2.24897205270527 -1.71516098919892
 1 -2.78374070107011 -1.24605384058406  2.44962583828383
 1 -2.26713802830283  1.54482470567057  1.37958087028703
 1 -1.93193345134513  0.86328269666967  3.60795989999000
 1 -2.95532102400240  2.17835288498850  3.82921311651165
 1 -3.52874247114711  0.44140932543254  3.91370654685468
 1 -2.31542705110511 -1.80314504760476 -0.25987043424343
 1 -2.26251959135914 -0.38508231723172 -0.48171486568657
 1 -0.23560938073807  0.19529338293829  1.07405776707671
 1 -0.39839017831783 -1.78284024262426  1.50792830123012
 1 -4.42796761326133  5.65497986608661  1.06538933873387
 1 -5.68173337973797  6.80294520922092  1.50623991859186
 1 -4.86285437223722  5.75547359135914  2.53246738073807
 1 -8.13590860026003  7.09171904640464  1.24122567646765
 1 -9.09985533743374  5.87731789228923 -1.34232581868187
 1 -9.53264801140114  7.54269299679968 -0.31361158405841
 1 -12.23604796679668  3.76075526272627 -0.71425923902390
 1 -11.53905775407541  3.51352530993099 -2.60836015281528
 1 -13.18943996679668  2.61830966666667 -1.68665302070207
 1 -12.47484985818582 -1.32016094279428 -1.57293204430443
 1 -13.44897192169217  0.07843199789979 -1.60910326912691
 1 -12.62144777467747  0.65607242034203 -3.94071141544154
 1 -11.71546651465147 -0.79499707330733 -4.00614956705671
 1 -13.32852960646065 -0.89173826862686 -3.84813235553555
 1 -9.96499304810481 -4.61946126592659 -0.69462176417642
 1 -9.14364834373437 -4.50069801580158 -2.22300919911991
 1 -8.50293546824682 -5.43339160616062 -1.03551150665067
 1 -3.65967781918192 -3.56027231743174 -0.20438178677868
 1 -2.09122951595160 -6.38821391709171  2.49298263236324
 1 -2.43854230063006 -4.93428691259126  3.53538798139814
 1 -3.76484950135014 -6.29579467106711  3.26390326592659
 1  2.62784669216922 -2.19935757925793 -1.29949111611161
 1  2.34782967746775 -0.53659123992399 -1.83540130733073
 1  3.98317108880888 -1.53515582988299  0.65335323832383
 1  4.59784161336134  1.77873038203820 -1.98767348714872
 1  5.76147276447645  0.44840080258026 -2.85629703130313
 1  3.81137125532553  0.02578376517652 -2.56437726282628
 1  6.29921793799380  1.36781290629063 -0.15581577267727
 1  6.10686873157316  0.12355246564656  1.10695840324032
 1  7.17970475537554 -1.45752247684768 -1.02922368196820
 1  7.49887943044304  0.08828084868487 -1.78397322632263
 1  9.06248173557356  0.82737157845785  0.10537068536854
 1  8.87819088188819 -0.84783893539354  0.86754956735674
 1  9.93720638923892  0.11138369506951 -1.80463503850385
 1  9.09564988118812 -2.35802449564956 -1.82352089988999
 1  10.76502153325333 -2.68121972177218 -1.84624522942294
 1  10.01019603970397 -2.61969365496550 -0.30453872317232
 1  11.15170046744675  0.75865464556456  0.21700028522852
 1  11.41786775027503 -0.58539377587759  0.87520745094509
 1  12.93363807440744 -1.29018058925893 -0.94022723572357
 1  12.71839999219922  0.20134005500550 -1.53436497019702
 1  13.76451760666067  1.20507021782178  0.42761567246725
 1  13.89638386538654 -0.36898332613261  1.08623546944694
 1  15.14759710391039  0.44672587868787 -1.52882489578958
 1  14.86959251215121 -2.32535511731173 -1.11111044424442
 1  16.76455032853285 -1.83205724232423 -0.59633541744174
 1  15.39739501830183 -1.81119625222522  0.67612688408841
 1  15.84855512871287  1.81309788008801  0.25684614361436
 1  16.48590324712471  0.54149477277728  1.16067949054905
 1  18.25120634233423 -0.18664287478748 -0.88688855665567
 1  17.75589017461746  1.56490837913791 -1.37494592709271
 1  18.34206889638964  2.64625102100210  0.49489487918792
 1  18.42128438263827  1.34581039053905  1.47072422242224
 1  20.56443277567757  0.58148610961096 -0.02888173197320
 1  20.07321467806781  3.36517478757876 -1.35186708910891
 1  21.45669291299130  2.15984405410541 -1.76566967356736
 1  19.61827680068007  1.91767738943894 -1.98150033153315
 1  20.94086932343235  1.79544101210121  2.00074111071107
 1  22.11705456265627  2.20853088048805  0.74686884398440
 1  21.01301093049305  3.42830603020302  1.05636437433743
 1 -7.23227506060606  1.76866573977398  0.29611145724572
 1 -7.65106665506551 -0.35181535753575 -0.00242036963696

