%nproc=3
%Mem=2GB
# td=(NStates=1) B3LYP/SVP 

TD

0 1
 6 -5.17911560966097 -1.98001424352435  0.53157803370337
 6 -4.68902922192219  2.72976942864286  1.30622700860086
 6 -9.36283619331933  3.32528332753275 -0.28418688658866
 6 -9.76887494199420 -1.42680348374838 -0.89427198059806
 7 -5.18987815011501  0.35200682358236  0.68841727872787
 6 -4.47019563566357 -0.84029075007501  0.73652709610961
 6 -3.15448513501350 -0.63010944564456  1.20971596739674
 6 -3.09874483988399  0.85984487678768  1.80061916771677
 6 -4.38693788688869  1.32790260816082  1.19661325832583
 6 -3.05354392289229  0.83183069536954  3.26125398799880
 6 -2.14569664036404 -0.90236019771977 -0.00811286568657
 6 -0.62122533473347 -0.72757097369737  0.51846429912991
 6  0.40310397179718 -0.91607848074807 -0.55219677727773
 8  0.06167793539354 -1.47940030663066 -1.57650126162616
 8  1.57148734583458 -0.54758153125313 -0.21398384108411
 7 -6.99297389198920  2.77684495629563  0.47189669886989
 6 -5.89294086948695  3.42025644394439  0.98115897279728
 6 -6.29231241694169  4.77908434793479  1.04608110091009
 6 -7.57194629142914  4.96711554705471  0.67944447184718
 6 -8.10828177407741  3.64082257595760  0.21603175857586
 6 -5.41685220172017  5.84976049114912  1.52326359235924
 6 -8.23538082078208  6.19089310091009  0.42325082638264
 6 -9.14901279947995  6.62636235813581 -0.56159863866387
 7 -9.12347054765477  0.86954418741874 -0.46192866126613
 6 -9.81440530343034  2.10783328202820 -0.58839810901090
 6 -11.23678754525453  1.88789235023502 -0.97685151905191
 6 -11.34496844734473  0.52446978707871 -1.08186314101410
 6 -10.07736996269627 -0.02975292699270 -0.80966420892089
 6 -12.22634113501350  2.90917941954195 -1.36242933323332
 6 -12.56337407690769 -0.25504798429843 -1.66408736843684
 6 -12.54548467916792 -0.38203146754675 -3.24750292159216
 7 -7.51820077767777 -1.29410109530953 -0.18390691919192
 6 -8.58032962046205 -2.17137586438644 -0.48676203860386
 6 -8.22545498449845 -3.54869175137514 -0.62115468276828
 6 -6.88618352745275 -3.55206203450345 -0.24567219111911
 6 -6.47895899929993 -2.13136595519552  0.06913198939894
 6 -8.97091984958496 -4.77820857035704 -0.98203719811981
 6 -5.80582752795280 -4.34393942904290 -0.00334938933893
 8 -5.70852034223422 -5.60773030313031 -0.05629289518952
 6 -4.49786741534153 -3.48250901250125  0.47371643374337
 6 -4.09189298719872 -3.91482557605761  1.86410293599360
 8 -4.30253532703270 -3.34180211411141  2.90081814991499
 8 -3.20612930053005 -4.94548952185218  1.73546397429743
 6 -2.70013471727173 -5.61214066016602  2.93314545414541
 6  2.63499566816682 -0.71785568316832 -1.22074610041004
 6  3.90845409220922 -0.37942844524453 -0.65192729282928
 6  4.92560481708171  0.28709976487649 -1.16705066166617
 6  4.86173536923692  0.89266999869987 -2.57203432023202
 6  6.22122386758676  0.46546428562856 -0.36423533773377
 6  7.49646088648865 -0.25954213711371 -1.09960682758276
 6  8.80868246934694 -0.13210719581958 -0.08658700620062
 6  10.06676760246025 -0.50232455905591 -0.86361371617162
 6  10.01479751835184 -1.99309311221122 -1.24352363726373
 6  11.29320317051705 -0.11768608330833  0.11701114541454
 6  12.70294196839684 -0.44229954715472 -0.48929345244524
 6  13.89674826422642 -0.06581380758076  0.35924798029803
 6  15.27363627542754 -0.18446932843284 -0.23883744164416
 6  15.73684325612561 -1.65901476687669 -0.52173094139414
 6  16.33604434873487  0.62929744704470  0.52697171947195
 6  17.78744363316332  0.60458337603760 -0.05522942434243
 6  18.81369229352935  1.49083341224122  0.63550436663666
 6  20.21679358095810  1.46829463406341  0.13625535303530
 6  20.34271497039704  1.82968954505451 -1.31223930173017
 6  21.18979150045005  2.27025836463646  0.97952974117412
 1 -3.69519718001800  3.45024625662566  1.72107698859886
 1 -10.07905575867587  4.36818406050605 -0.35239656235624
 1 -10.69699395579558 -2.06719387488749 -1.09996947004700
 1 -2.84082640964096 -1.31822105730573  2.08900977667767
 1 -2.32026334083408  1.64173439663966  1.28956186838684
 1 -2.29594985298530  0.19786615501550  3.90302940694069
 1 -2.75407089898990  1.88490354005401  3.67309750495049
 1 -3.90405000190019  0.59281446594660  3.84181935813581
 1 -2.34073958235824 -2.01085581868187 -0.25888033523352
 1 -2.28392173157316 -0.28919272827283 -0.88628532273227
 1 -0.42305812561256  0.21195504910491  1.07397775907591
 1 -0.29876021532153 -1.43602556115612  1.27097460586059
 1 -4.68249306580658  6.02099646774677  0.68400119991999
 1 -5.99014422082208  6.82424733943394  1.88594788938894
 1 -4.97271535833583  5.59003704770477  2.49659379337934
 1 -8.06308131753175  6.99503937843784  1.28735028892889
 1 -9.25437078897890  6.03701386188619 -1.43634522062206
 1 -9.59780452705271  7.61828055555556 -0.42218244114411
 1 -12.22191655365537  3.73764295149515 -0.42159997309731
 1 -11.81672552085208  3.82151610901090 -1.99933925072507
 1 -13.20210123292329  2.74406224192419 -1.60962531793179
 1 -12.68455082828283 -1.03238216491649 -1.08660341144114
 1 -13.60347737223722  0.25040919561956 -1.63029538833883
 1 -12.74343997389739  0.55565237833783 -3.70299764406441
 1 -11.74394936293629 -0.86280385398540 -3.44203315541554
 1 -13.42529928342834 -0.99864895969597 -3.43403094539454
 1 -10.06208275707571 -4.62081140094009 -0.69491179317932
 1 -9.14148812771277 -4.68527647364736 -2.11910880908091
 1 -8.41633680838084 -5.64107237423742 -0.62320027552755
 1 -3.75761761316132 -3.49890618081808 -0.15285663426343
 1 -1.41234162716272 -5.79934503020302  2.77701103520352
 1 -2.94690313671367 -4.60289377327733  3.84545898849885
 1 -3.33249626602660 -6.68993408500850  3.36432330793079
 1  2.73191709920992 -1.80476812031203 -1.58609977697770
 1  2.37296219071907 -0.07185476627663 -2.05623339053905
 1  4.07654042574257 -0.74785710001000  0.22733063606361
 1  5.22568439763976  1.98586109510951 -2.70649536933693
 1  5.58400501770177  0.35484144664466 -3.28498990059006
 1  3.94444456265627  0.84076526332633 -3.08306913201320
 1  6.32256027222722  1.47117324232423 -0.06547673877388
 1  6.21435948064806 -0.18539842944294  0.60427813521352
 1  7.14436122102210 -1.28327505210521 -1.03530429002900
 1  7.68125766826683  0.23006502710271 -2.03180800980098
 1  8.72699818721872  0.88213705500550  0.25695584388439
 1  8.74175723852385 -0.83223737523752  0.62002481488149
 1  10.09050171877188  0.08684124082408 -1.78560313531353
 1  8.85717603380338 -2.03822251545155 -1.61700024782478
 1  10.77708273937394 -2.31329292909291 -2.01166177107711
 1  10.10560558065807 -2.46860854645465 -0.25530379967997
 1  11.17494279167917  0.92736151625162  0.36576516171617
 1  11.24515047854785 -0.63636887338734  1.10696062626263
 1  12.85324003460346 -1.57724929612961 -0.53456666966697
 1  12.97450560276028 -0.20253033203320 -1.55767730143014
 1  13.52509366426643  0.87790750155015  0.54303721462146
 1  13.87177140414041 -0.43754018181818  1.52516936283628
 1  15.31861420562056  0.26692789888989 -1.16929894319432
 1  14.93747930083008 -1.98840142194219 -1.25693502670267
 1  16.72106598009801 -1.93191722832283 -1.03511929582958
 1  16.00250552935293 -2.08975410801080  0.43440271167117
 1  15.92473274647465  1.55550212051205  0.74768522752275
 1  16.47376203300330  0.28943956725673  1.58482190479048
 1  18.22236345804581 -0.24751896239624 -0.22898276607661
 1  17.61822640824083  0.97756964526453 -1.17951638413841
 1  18.30877556705671  2.53658005390539  0.57974336403640
 1  18.70118237243724  1.16314212371237  1.59300645064506
 1  20.34444077647765  0.42993095409541  0.48714987118712
 1  19.86656401300130  2.82384065416542 -1.51913381578158
 1  21.30558780248025  1.95818388808881 -2.02676578317832
 1  19.84938991199120  1.23510913261326 -2.14366654815482
 1  21.65567080358036  1.88354982298230  2.02109314591459
 1  22.13294615181518  2.32810283768377  0.39113327042704
 1  21.07715734513451  3.39521272087209  0.98882762066207
 1 -7.08016985008501  1.81510038323832  0.15654750085009
 1 -7.49561110951095 -0.31438161416142 -0.12439256685669

