%nproc=3
%Mem=2GB
# td=(NStates=1) B3LYP/SVP 

TD

0 1
 6 -5.06740443854385 -1.82350859295930  0.43825870177018
 6 -4.88334865386539  2.83296974867487  1.29804619051905
 6 -9.47976788648865  3.27565836503650 -0.13434190209021
 6 -9.82252030653065 -1.48461926532653 -0.91419397279728
 7 -5.26376553885389  0.52835445834583  0.77467590459046
 6 -4.60240885698570 -0.60532725372537  0.72733617701770
 6 -3.06065575207521 -0.46735317001700  1.21850684648465
 6 -3.13058802420242  1.03362225452545  1.74602370817082
 6 -4.43576276937694  1.50810062796280  1.28221181818182
 6 -3.02997156565657  1.14698221052105  3.23617147974797
 6 -1.98008007870787 -0.81214117581758  0.14915286088609
 6 -0.52932614481448 -0.96309452605261  0.68926137883788
 6  0.36428008940894 -1.13853072597260 -0.52673423102310
 8  0.08668043564356 -1.61986435303530 -1.64383799529953
 8  1.63131332843284 -0.87081385448545 -0.06594903760376
 7 -7.18136273087309  2.78901617341734  0.34845435463546
 6 -6.04723629902990  3.51909632793279  0.87051790869087
 6 -6.44428761446145  4.80271671117112  1.06729322212221
 6 -7.72872196899690  4.99816865236524  0.56913344074407
 6 -8.27607855375538  3.67253574727473  0.14468462386239
 6 -5.51105162166217  5.92097761286129  1.54415568156816
 6 -8.41211849454946  6.24537854945495  0.50482898419842
 6 -9.37034493269327  6.62910263216322 -0.49120159895990
 7 -9.26119432003200  0.84258149114911 -0.48903137153715
 6 -9.97083094599460  1.99794229292929 -0.55635490469047
 6 -11.32863673017302  1.79587314831483 -0.82340617451745
 6 -11.49340329082908  0.51569890999100 -0.96881183588359
 6 -10.15366759245924 -0.17478743044304 -0.80360360286029
 6 -12.42239073997400  2.91088959055906 -0.94681777207721
 6 -12.72693043254325 -0.32039451895190 -1.46964792449245
 6 -12.61952208290829 -0.63767703210321 -2.93051122242224
 7 -7.48508746634663 -1.17796948214821 -0.29028755725573
 6 -8.56253784128413 -1.96120484728473 -0.74434779717972
 6 -8.14243668266827 -3.36295317751775 -0.71002356965697
 6 -6.78086299539954 -3.35050187848785 -0.26514413831383
 6 -6.42280338373837 -1.97422024062406 -0.02965788958896
 6 -8.95840859845985 -4.64536528602860 -1.14171316571657
 6 -5.66547349254926 -4.21972700780078 -0.00731978637864
 8 -5.48548803900390 -5.46148567866787 -0.25861312721272
 6 -4.47320494909491 -3.25336609820982  0.36355541764176
 6 -3.83242704060406 -3.75394948844884  1.59537606330633
 8 -4.16542161566157 -3.30075800970097  2.77638570667067
 8 -2.86391507910791 -4.62643761666167  1.44698512641264
 6 -2.31319602340234 -5.16819626572657  2.65489762936294
 6  2.70958312691269 -1.18027192479248 -0.99134316011601
 6  4.01458470527053 -0.82722322472247 -0.44225632573257
 6  4.95056731333133 -0.08801774687469 -1.08891284788479
 6  4.90282947864786  0.47409814151415 -2.47127424422442
 6  6.19203094829483  0.13053079227923 -0.30586950115012
 6  7.54187542794279 -0.32419860276028 -1.06903377027703
 6  8.88065966706671 -0.23749773487349 -0.17341568906891
 6  10.20034095979598 -0.68114244084408 -0.81713906870687
 6  10.13240927952795 -2.14077788068807 -1.41698098299830
 6  11.35132898309831 -0.34357867256726  0.06595603990399
 6  12.79220089428943 -0.59221453865387 -0.55620014311431
 6  13.96918550795080 -0.03892111831183  0.26356841234123
 6  15.26583549534953 -0.29817069856986 -0.24813837173717
 6  15.66420599239924 -1.77668653405341 -0.23746251455146
 6  16.40075081938194  0.55902041934193  0.40637966026603
 6  17.88091298009801  0.43357627532753 -0.03224712611261
 6  18.71463238753875  1.58951328022802  0.56116693289329
 6  20.24350625222522  1.68646645124512  0.28013974147415
 6  20.52802350125013  1.79320589668967 -1.29559763756376
 6  20.79887240854086  2.87652899169917  1.05281706990699
 1 -4.12677033733373  3.57037826982698  1.52976785768577
 1 -10.50977883098310  3.99086632873287 -0.09209053175318
 1 -10.71093534993499 -2.21046820232023 -1.21559103220322
 1 -3.00646297329733 -1.24730396559656  2.05287616331633
 1 -2.24845616011601  1.64849507270727  1.06354926712671
 1 -2.12694295229523  0.63231960036004  3.72442154615462
 1 -3.15550104200420  2.10708575827583  3.66865706090609
 1 -3.80134973187319  0.55211039553955  3.62478765496550
 1 -2.27183269166917 -1.50216494959496 -0.53937838503850
 1 -1.90650398979898  0.20843703470347 -0.44799149334934
 1 -0.26527234703470  0.00246410001000  1.10252061336134
 1 -0.58993933323332 -1.83492545114511  1.36787429582958
 1 -4.92276709320932  6.33198756685669  0.76726952675268
 1 -6.33163837023702  6.86640155485549  1.76750604520452
 1 -4.99786787358736  5.35568361236124  2.37452158615862
 1 -8.49962497189719  7.15864573907391  1.18488004190419
 1 -9.75633098499850  6.09401956245625 -1.39072065816582
 1 -9.99914466106611  7.60336906440644 -0.21421164406441
 1 -12.43726808880888  3.42245143234323 -0.06826463956396
 1 -12.33017686598660  3.92131608900890 -1.69061837863786
 1 -13.45017604040404  2.26621445714571 -1.02307666306631
 1 -12.80965333853385 -1.32890181688169 -1.03454820592059
 1 -13.54529155365537  0.35616977167717 -1.05507786658666
 1 -12.46816244614461  0.20681749484948 -3.62744008830883
 1 -11.85300026802680 -1.39188676227623 -3.10901985408541
 1 -13.58643539703970 -0.98171726652665 -3.11949949224923
 1 -9.67935448424842 -4.67246656645665 -0.63618592059206
 1 -9.01507548644864 -4.81901984798480 -2.33608050625062
 1 -8.19710488518852 -5.31918018501850 -0.90951890739074
 1 -3.66410826222622 -3.44495078527853 -0.39612096069607
 1 -1.70395078807881 -5.88144324002400  2.29877321142114
 1 -1.61436988338834 -4.56833031693169  3.27555199779978
 1 -3.19730274667467 -5.58357344894489  3.22124900050005
 1  2.74261816931693 -2.19772741624162 -1.43069423642364
 1  2.57593248774877 -0.62308988978898 -1.89850761796180
 1  4.23049582128213 -1.37741005530553  0.39100700370037
 1  5.08928075727573  1.61712422142214 -2.14612933273327
 1  5.58488510571057  0.12753871637164 -3.12084348594859
 1  3.83137325552555  0.51322250905090 -2.76374719981998
 1  6.24559257545754  1.20356648164817 -0.27761795289529
 1  6.16380442514251 -0.37510740034003  0.65365307270727
 1  7.40743752865286 -1.43030975557556 -1.32502326192619
 1  7.58392793529353  0.34711673227323 -1.99353418241824
 1  8.86130161756176  0.80223906520652  0.20970111841184
 1  8.71109417221722 -0.76410056155615  0.65074788718872
 1  10.54560722932293  0.11160371707171 -1.65018959395940
 1  9.41849216541654 -2.20200889408941 -2.46445499329933
 1  11.21547657875788 -2.50110170997100 -1.78688929382938
 1  9.86610163026303 -2.76295798139814 -0.67034530383038
 1  11.26026132353235  0.67669644974497  0.42430101530153
 1  11.19169513301330 -0.83114835133513  1.17094702490249
 1  12.96779148974898 -1.83688525972597 -0.68820203320332
 1  12.86128428062806 -0.05458553755376 -1.44869640334033
 1  13.85705686058606  1.11952166296630  0.39644255515552
 1  13.70630485748575 -0.18480490829083  1.27435428132813
 1  15.25566791099110  0.00303150925092 -1.27210922422242
 1  15.20464601750175 -2.75421800360036 -0.86452578577858
 1  16.67738161166116 -2.05919995659566 -0.57630341424142
 1  15.75872115091509 -2.19897503010301  0.65501477287729
 1  16.15087536073607  1.52709928022802  0.38530898989899
 1  16.45998065486549  0.10611123442344  1.41446486908691
 1  18.39900112181218 -0.55565977647765  0.13367349954995
 1  17.86867145274528  0.40233212151215 -1.25859429192919
 1  17.99659434893490  2.48532492839284  0.64022941264126
 1  18.79506176037604  1.44954076357636  1.57938508850885
 1  20.59103543594360  0.68593655465547  0.50384154035403
 1  19.90741809840984  2.80451872197220 -1.71677357975798
 1  21.69548679237924  1.84598266796680 -1.42404551115111
 1  20.37036200920092  0.94684030573057 -2.13861604310431
 1  20.66226146264627  2.71708317631763  2.18242927952795
 1  21.92159501670167  2.59415944334433  0.93654781188119
 1  20.50021965136514  3.95270847044704  0.60024876277628
 1 -7.25838767186719  1.91730060326033  0.33651549764977
 1 -7.68855040344034 -0.20061023702370  0.31251112351235

