%nproc=3
%Mem=2GB
# td=(NStates=1) B3LYP/SVP 

TD

0 1
 6 -5.16578427652765 -1.92872911501150  0.42147702360236
 6 -4.59873019201920  2.72542899459946  1.30107649354935
 6 -9.27240715041504  3.34251505070507 -0.09776824472447
 6 -9.80912896739674 -1.35384618801880 -0.79318187158716
 7 -5.16800596289629  0.40676229912991  0.83314175117512
 6 -4.49778839493949 -0.66541326232623  0.79995343874387
 6 -3.09212889938994 -0.57989442414241  1.17176217201720
 6 -3.08600356575658  0.75914480678068  1.67353645944594
 6 -4.28880807390739  1.43251306920692  1.26789038603860
 6 -2.97336590509051  0.80716822912291  3.29309717231723
 6 -2.03284535523552 -0.81612157385739  0.09836778237824
 6 -0.62248546074607 -1.04929314591459  0.60005245794579
 6  0.35821948334833 -1.29759663256326 -0.54712627022702
 8  0.07807957555756 -1.77109947654765 -1.55068868036804
 8  1.64107430453045 -0.98328510161016 -0.08713115581558
 7 -7.01902649724973  2.78526579837984  0.40434994419442
 6 -5.82890446584658  3.30188460676068  0.88917977487749
 6 -6.06998018371837  4.76123256275628  1.04378087088709
 6 -7.45400449724973  5.03803263876388  0.62653918131813
 6 -8.02463340924093  3.73509200290029  0.28106826222622
 6 -5.07436795329533  5.79853536863686  1.43563482948295
 6 -8.16297358005800  6.38711272287229  0.45814431573157
 6 -8.94172207040704  6.71333105500550 -0.66682916171617
 7 -9.18882708330833  0.90582781578158 -0.54619708810881
 6 -9.81780564346435  2.10887338603860 -0.45288455765577
 6 -11.27533139963997  1.98772233323332 -0.92404623852385
 6 -11.39974392489249  0.60240758085809 -1.26223117781778
 6 -10.16253847954795 -0.05835578727873 -0.82129537203720
 6 -12.29684818571857  3.09520802240224 -1.01851494179418
 6 -12.59551729122912  0.02115963646365 -1.85710667036704
 6 -12.67963809450945 -0.23764702910291 -3.39127729902990
 7 -7.57051600920092 -1.29130081528153 -0.14832336083608
 6 -8.62162374987499 -1.98054678147815 -0.60804416681668
 6 -8.28317075607561 -3.40535741794179 -0.54378694599460
 6 -6.95849075817582 -3.40823765206521 -0.27122474637464
 6 -6.46722782618262 -2.00257307590759  0.01429650585059
 6 -9.11382414001400 -4.53265401490149 -1.02328132253225
 6 -5.84138108330833 -4.23193822892289  0.15479642524252
 8 -5.72559204940494 -5.49379890999100 -0.07846511241124
 6 -4.53675130373037 -3.29831059265927  0.41723078517852
 6 -3.87642144004400 -3.78036212971297  1.72082860856086
 8 -4.23479855335534 -3.34516245014501  2.77052512061206
 8 -2.98845753335334 -4.71756672957296  1.48258868676868
 6 -2.67550225402540 -5.47163660976098  2.61518365796580
 6  2.76809897849785 -1.43657755535554 -0.94512853865387
 6  4.10300354715472 -0.87442794519452 -0.43378547864786
 6  4.97586984358436 -0.16080502560256 -1.09154311091109
 6  4.77446664236424  0.57598833053305 -2.28754587138714
 6  6.24193593879388  0.09398713791379 -0.14069298349835
 6  7.51245248564856 -0.42988917181718 -0.93129999689969
 6  8.85259686078608 -0.30105409050905 -0.10675902340234
 6  10.13411433713371 -0.96250057665767 -0.74843219801980
 6  10.02846888548855 -2.39825362826283 -0.87927721262126
 6  11.32311616181618 -0.52448676337634  0.05597504180418
 6  12.67840951515152 -0.77609292649265 -0.51907643074307
 6  13.86643523292329 -0.22909013521352  0.22541459695970
 6  15.26402531433143 -0.23087396889689 -0.42321587948795
 6  15.75179475127513 -1.59812867826783 -0.65898466676668
 6  16.24249499379938  0.68033255055506  0.44554357665767
 6  17.73070795959596  0.91099401710171 -0.27248114951495
 6  18.48605953025303  1.81955628452845  0.49164998119812
 6  20.01303320492049  2.06139394399440  0.06898862636264
 6  20.13121382028203  2.61802837893789 -1.36764484228423
 6  20.75429795109511  3.06617795659566  1.05110689888989
 1 -3.77458511881188  3.32902413441344  1.55621050195020
 1 -9.79876772987299  4.32548979107911 -0.29088041074107
 1 -10.65770002640264 -2.08093524902490 -1.22721219431943
 1 -2.73701602860286 -1.30018925412541  1.91810268596860
 1 -1.99439075357536  1.20261048424843  1.47686059825983
 1 -2.02717297529753  0.45601196959696  3.72863196719672
 1 -3.19107459935994  1.80602565226523  3.79222941814181
 1 -3.70811040794079  0.31303648814882  3.69464464066407
 1 -2.35716122452245 -1.73435816891689 -0.59209365656566
 1 -2.19332267166717  0.13109930093009 -0.54794148834884
 1 -0.12422824262426 -0.07165331173117  1.11092145344534
 1 -0.44985532483248 -1.85298725732573  1.33328083648365
 1 -4.08991380788079  5.57852222032203  0.96972977277728
 1 -5.64812001840184  6.86345125982598  1.21247054165416
 1 -5.10949903670367  5.65676372037204  2.53199733373337
 1 -7.96941195059506  7.07660753525353  1.33948550245024
 1 -8.91023637553755  6.10939109960996 -1.42600418651865
 1 -9.29891463806381  7.74058278577858 -0.68133835673567
 1 -12.28201256325633  3.62842202940294 -0.17164497759776
 1 -11.67629147744774  3.76814077147715 -1.77086640344034
 1 -13.43914493729373  2.81103893959396 -1.43737809320932
 1 -12.82173454665466 -1.08594752145215 -1.38497324842484
 1 -13.50632765726573  0.62802695739574 -1.80264262306231
 1 -12.39763539343934  0.62855966906691 -3.86099344364437
 1 -11.92718768676868 -0.98887646124613 -3.52808176027603
 1 -13.63540029352935 -0.68594768956896 -3.67830537283728
 1 -10.22008855765577 -4.42337165696570 -0.58323062506251
 1 -9.13734771367137 -4.59181712771277 -2.09863676187619
 1 -8.91823699839984 -5.45978424542454 -0.57598555405541
 1 -3.91071292269227 -3.43976026622662 -0.48338968756876
 1 -2.07471786478648 -6.52975807150715  2.40955428952895
 1 -2.02141058745875 -4.84398788268827  3.12121656425643
 1 -3.46909992639264 -5.73461855345535  3.22558943454345
 1  2.70187409490949 -2.41289893339334 -1.01079224622462
 1  2.61280617511751 -1.08211579237924 -1.97859562676268
 1  4.35002777447745 -1.25941825612561  0.67537544054405
 1  4.95214704390439  1.76282879187919 -1.72927764756476
 1  5.39781639883988  0.66857281978198 -3.15005640724072
 1  3.60742086028603  0.63926511331133 -2.33264408950895
 1  6.11175919211921  1.10447657265727  0.05999580848085
 1  5.88889693439344 -0.50003989358936  0.65514322172217
 1  7.45065185008501 -1.60829755435544 -1.12115287488749
 1  7.49874941744174  0.18974099469947 -1.82771760076008
 1  9.09337482488249  0.78296713801380 -0.04486433813381
 1  8.86680974377438 -0.74070822232223  0.85394820722072
 1  10.17220988958896 -0.45726316961696 -1.75574014901490
 1  8.92617293349335 -2.76984567776778 -1.40146869466947
 1  10.82829786088609 -2.83683528332833 -1.57163776867687
 1  9.79891491159116 -2.79353103870387  0.22385411611161
 1  11.24563986138614  0.51304008410841  0.20418900410041
 1  11.52538850235024 -1.01953719021902  1.01167109730973
 1  12.63910862146215 -1.86972854405441 -0.74809802280228
 1  12.72625077727773 -0.23973405240524 -1.56561809550955
 1  13.59154030893089  0.81423113391339  0.43913682458246
 1  13.69089331633163 -0.66074250205020  1.29826667256726
 1  15.01571391559156  0.34361556765677 -1.50495250855085
 1  15.00427598049805 -2.19638222002200 -1.29988932213221
 1  16.83055692919292 -1.56888092469247 -1.35269105300530
 1  15.86827210601060 -2.16786191879188  0.32174144554455
 1  15.82538281148115  1.62071864216422  0.76653711271127
 1  16.39407406420642  0.20957158045805  1.38388181078108
 1  18.17148837053705 -0.12536674717472 -0.15620548834884
 1  17.55257984358436  1.35134702300230 -1.41065949844985
 1  17.97992268176818  2.92482887878788  0.55148053775378
 1  18.53865611981198  1.51725753525353  1.62289943994399
 1  20.58004433683368  1.13206116711671  0.06669782598260
 1  19.71818917551755  3.65663393349335 -1.48728063046305
 1  21.11484872857286  2.90282835253525 -1.50471357795780
 1  19.46139111211121  1.74890051175117 -1.90141232273227
 1  20.55067030353035  2.73123459145915  2.06170720732073
 1  21.75680853805381  2.82047207460746  0.96419057615762
 1  20.65335496489649  4.09273247284729  1.02135087298730
 1 -6.95431726482648  1.89188806200620 -0.28548670257026
 1 -7.65985753415341 -0.24340451645164  0.07061693409341

