%nproc=3
%Mem=2GB
# td=(NStates=1) B3LYP/SVP 

TD

0 1
 6 -5.07999569766977 -1.92584882698270  0.52321719761976
 6 -4.83511383038304  2.83764021572157  1.43543992989299
 6 -9.47193710341034  3.28055885508551 -0.25460392829283
 6 -9.77526558105811 -1.55034583798380 -1.04624717811781
 7 -5.20835999829983  0.45140676357636  0.82016045304530
 6 -4.50663928002800 -0.66032275327533  0.87556099949995
 6 -3.03499318581858 -0.47711414611461  1.29115411121112
 6 -3.17909287468747  0.98290718301830  1.80242934873487
 6 -4.40739993309331  1.45903572147215  1.23632722972297
 6 -2.97688625712571  0.87759527182718  3.40245810841084
 6 -2.13736580728073 -0.67000696239624  0.11845979157916
 6 -0.68182139433943 -0.72270048664866  0.53123557625763
 6  0.25352901430143 -0.81020789368937 -0.64611616921692
 8  0.01429319691969 -1.00383274987499 -1.79927353885389
 8  1.54698489558956 -0.80050682378238 -0.14595703840384
 7 -7.13028762336234  2.77209448124812  0.40297980718072
 6 -6.03596517191719  3.39855427372737  0.92149300620062
 6 -6.36323950965097  4.85955239473947  0.93594008680868
 6 -7.61634073087309  4.97645648114811  0.44938146554655
 6 -8.09268021392139  3.68993748744874  0.14547470287029
 6 -5.35350586708671  5.85706122122212  1.51729299529953
 6 -8.46871415411541  6.21296530813081  0.47813631493149
 6 -9.27846574477448  6.49350907280728 -0.44184666346635
 7 -9.22093029362936  0.90554778777878 -0.56838930733073
 6 -10.01908577147715  2.03767626632663 -0.54700396959696
 6 -11.38688255475548  1.76752031303130 -0.97576141004100
 6 -11.45052900340034  0.42773011311131 -1.10261521622162
 6 -10.13369559525952 -0.16557650935094 -0.87296053855385
 6 -12.34005250615061  2.90192869446945 -1.28120121042104
 6 -12.65082282178218 -0.29429190869087 -1.66592755245525
 6 -12.68824895559556 -0.63878714311431 -3.09039721102110
 7 -7.46097505510551 -1.33809549474947 -0.17765629412941
 6 -8.51299288678868 -2.06947567436744 -0.65358872127213
 6 -8.11985442444245 -3.40623750595060 -0.66518908620862
 6 -6.76581149024902 -3.39622645094509 -0.28339596349635
 6 -6.40694179757976 -2.01078389698970  0.13353843004300
 6 -8.92472523012301 -4.58500925042504 -0.99373836823682
 6 -5.59398634383438 -4.30551558665867 -0.11160021442144
 8 -5.56247573777378 -5.48887841794179 -0.03432069796980
 6 -4.50193782238224 -3.31062182378238  0.47566662876288
 6 -3.83726752465247 -3.72209630313031  1.88251477717772
 8 -4.27944301780178 -3.31955988988899  2.98351641974197
 8 -2.81414010161016 -4.56228120102010  1.74560498839884
 6 -2.29420412421242 -5.19592903900390  2.96274841444144
 6  2.58079024762476 -0.94018791639164 -1.16167019281928
 6  3.98158140494049 -0.80482098449845 -0.56125822592259
 6  4.92794505110511  0.05005606050605 -0.89941389798980
 6  4.93825302100210  0.90071080278028 -2.23440055685569
 6  6.23312505770577  0.13550128932893 -0.10855977017702
 6  7.49246048644864 -0.28114429732973 -1.08121498839884
 6  8.74956655775578 -0.43533751885188 -0.21728007550755
 6  10.15424635033503 -0.85214954155416 -1.00865822062206
 6  10.22732877147715 -2.38327213011301 -1.53231251615161
 6  11.39139298949895 -0.37665197989799 -0.12114266996700
 6  12.84330600480048 -0.62344766196620 -0.66443096619662
 6  13.94350293969397 -0.03885111131113  0.19002105760576
 6  15.31748065986599 -0.22325320682068 -0.50983454135414
 6  15.55718529032903 -1.70995986138614 -0.90830959925993
 6  16.39486023032303  0.36644116141614  0.50389941224122
 6  17.78335322412241  0.58955187288729 -0.15437933933393
 6  18.71178210251025  1.38989331823182  0.74666548274827
 6  20.17010891249125  1.62094989958996  0.29987171467147
 6  20.32286298519852  2.29706628272827 -1.14792287008701
 6  20.91181370267027  2.47702904170417  1.42300408860886
 1 -4.02123978427843  3.61923315531553  1.72114699559956
 1 -10.35497335043504  4.13744098619862 -0.29195051775178
 1 -10.43772802920292 -2.19964712021202 -1.53392286538654
 1 -2.66982930993099 -1.19366860206021  2.05268614431443
 1 -2.46166748124812  1.47831805500550  1.38906181838184
 1 -1.97390764876488  0.60003637203720  3.76561566556656
 1 -3.35365085698570  1.98933398309831  3.94568476367637
 1 -3.77545714261426  0.23727891239124  3.98557373357336
 1 -2.28009351775178 -1.61272600570057 -0.63604805200520
 1 -2.24078741814181  0.11133732473247 -0.62165886008601
 1 -0.29707552735274  0.08237209080908  1.18122848414841
 1 -0.53667400670067 -1.67196915551555  1.27191469986999
 1 -4.35433024952495  5.83367773587359  0.92149494929493
 1 -5.65841104750475  6.80767568226823  1.28224751935194
 1 -5.12486057285729  5.54847289128913  2.62193632763276
 1 -8.19956496589659  6.88852872737274  1.33360491439144
 1 -9.72827817971797  5.73872403290329 -1.37232881898190
 1 -10.09653440004000  7.41180990849085 -0.30318054095410
 1 -12.50171453345335  3.53040222742274 -0.31318913201320
 1 -12.25966981528153  3.42503646104610 -2.24399371617162
 1 -13.41926294909491  2.36861469716972 -1.20415477087709
 1 -12.60119249244925 -1.35958488518852 -1.19924467556756
 1 -13.68389541404140  0.15459961466147 -1.32623498229823
 1 -12.77768339823982  0.21363817691769 -3.80409775407541
 1 -11.81488645664566 -1.25076264986499 -3.32599155125513
 1 -13.65689244274427 -1.19516861166117 -3.43611115341534
 1 -9.95002155095510 -4.68397771757176 -0.42369467146715
 1 -9.09641362026202 -4.60913885988599 -1.98843574177418
 1 -8.48338351305130 -5.47552581958196 -0.58532648814882
 1 -3.65869772117212 -3.52682897309731 -0.35815716431643
 1 -1.50633102610261 -5.81167626332633  2.66160949504950
 1 -1.92189063546355 -4.31545502940294  3.55382982558256
 1 -3.24807782418242 -5.68416350795080  3.45754262986299
 1  2.29929383688369 -1.88505614911491 -1.35250641764176
 1  2.40573546804680 -0.11414899569957 -2.03292105930593
 1  4.29398216991699 -1.49424173847385  0.32431033403340
 1  5.59712154135414  1.88914142314231 -2.16198091789179
 1  5.37103372057206  0.08250421292129 -3.04398580018002
 1  3.83994411261126  1.12981416821682 -2.49897072217222
 1  6.31188920512051  1.15053117811781  0.37400720962096
 1  6.24398244294429 -0.68819870947095  0.76386409380938
 1  7.06456324122412 -1.22671939653965 -1.45697645724572
 1  7.87031657415742  0.67737975857586 -1.99406423542354
 1  8.96908239563956  0.62520136143614  0.15585573387339
 1  8.77151021382138 -1.05910006150615  0.71718453085309
 1  10.22749541814181 -0.17316475977598 -2.02823739873987
 1  9.32114243044304 -2.61534022722272 -1.88611715951595
 1  11.20269530063006 -2.51587318711871 -2.26102670757076
 1  10.63049806990699 -2.89935162076208 -0.53064133343334
 1  11.25345064246425  0.71567034713471  0.14549313451345
 1  11.54966092959296 -0.97162239873987  0.79261919211921
 1  13.03555826642664 -1.69266083728373 -0.85728894189419
 1  12.79630778297830 -0.32507258625863 -1.73680521422142
 1  13.79852100700070  1.10486019681968  0.38692160306031
 1  13.84358858585859 -0.44421084888489  1.28143498939894
 1  15.11840418461846  0.36321752785278 -1.42918493179318
 1  14.81803735663566 -2.31141372317232 -1.71009034223422
 1  16.43622749624963 -1.87090112671267 -1.48294407830783
 1  15.60473575237524 -2.29089422202220  0.20894016541654
 1  16.07468774197420  1.36760333063306  0.84370482948295
 1  16.42199685648565 -0.10042941964196  1.42177560016002
 1  18.04503572527253 -0.49399360986099 -0.60742060986099
 1  17.84782936853685  1.14026591489149 -1.07583601610161
 1  18.28614330383038  2.30896729262926  0.93436882658266
 1  18.76385864006401  0.92668847834784  1.73257040704070
 1  20.68378471087109  0.57643560456046  0.22792394859486
 1  19.86136349294929  3.37746601670167 -0.99755165756576
 1  21.46851409510951  2.23594166386639 -1.34747785438544
 1  19.56614158715871  1.79425504720472 -1.84467664916492
 1  21.15786102260226  1.95694716271627  2.38507954455446
 1  21.95802866006601  2.64983501090109  1.04875903300330
 1  20.54393402280228  3.39938313791379  1.67093583148315
 1 -7.46722855595560  1.81844071727173  0.40776262236224
 1 -7.53217476587659 -0.45279545554555 -0.03419354695470

