%nproc=3
%Mem=2GB
# td=(NStates=1) B3LYP/SVP 

TD

0 1
 6 -5.07550524862486 -1.93406964906491  0.43643851975198
 6 -4.82001232023202  2.83840029172917  1.23466985288529
 6 -9.48027793749375  3.20554135333533 -0.21568003590359
 6 -9.81402945744574 -1.63418422182218 -0.74645719911991
 7 -5.16500566286629  0.47432905580558  0.77988642564256
 6 -4.45191380748075 -0.67052377337734  0.75310875427543
 6 -3.05981566806681 -0.48614504920492  1.16219121492149
 6 -3.11168613401340  1.00382927522752  1.77930703650365
 6 -4.38993818691869  1.51659147704771  1.17376097309731
 6 -2.92306087458746  1.19398691099110  3.33831169376938
 6 -2.09289135983598 -0.61967192889289  0.02806075167517
 6 -0.68292150435044 -0.69197741434143  0.41413386608661
 6  0.36501016241624 -0.73356022892289 -0.76686824442444
 8  0.11876364396440 -0.95911827842784 -1.88666227772777
 8  1.64088428552855 -0.49740651375137 -0.34745718841884
 7 -7.12045664026403  2.70424769656966  0.35917542674267
 6 -5.97274885028503  3.44131855015502  0.85683654055406
 6 -6.32325551125112  4.86131257075708  0.99317581038104
 6 -7.67370646744674  4.89970880638064  0.49021554895490
 6 -8.25709665556556  3.53428192189219  0.07392754815482
 6 -5.42606312281228  5.80149566466647  1.51503276927693
 6 -8.47288457115712  6.22839685128513  0.47920642194219
 6 -9.40743864206421  6.53809353125312 -0.49666214501450
 7 -9.24005220582058  0.73043027602760 -0.35746821522152
 6 -9.90712457535754  1.91480397909791 -0.51135040424042
 6 -11.33397726422642  1.71179474047405 -0.78303213711371
 6 -11.47127107760776  0.33182052215222 -1.14790974567457
 6 -10.18142036773677 -0.25184513621362 -0.75685892839284
 6 -12.22495099599960  2.76856535813581 -1.16542963326333
 6 -12.78000574007401 -0.36693917341734 -1.41015197489749
 6 -12.78820895159516 -0.75751901630163 -2.89514768606861
 7 -7.47593655125513 -1.34089577477748 -0.14161268976898
 6 -8.57281886938694 -2.17990671747175 -0.63126648904890
 6 -8.11991443044304 -3.52370925312531 -0.62827539483948
 6 -6.75177008610861 -3.42570939923992 -0.18820644454445
 6 -6.43206430983098 -2.12808562716272  0.11487656385639
 6 -8.81355411301130 -4.71387213671367 -0.94027302170217
 6 -5.60036698189819 -4.35736077117712  0.06293723932393
 8 -5.35266475667567 -5.49139866996700 -0.02506977287729
 6 -4.40827845644564 -3.18086884848485  0.38554761686169
 6 -3.73915771367137 -3.65001909540954  1.64844136983698
 8 -3.99370444394439 -3.30932886678668  2.78086615471547
 8 -2.80833952155216 -4.61778675157516  1.37989841774177
 6 -2.31938664246425 -5.30418986508651  2.59602174177418
 6  2.65445761436144 -0.72561645924592 -1.27954197999800
 6  3.96921016781678 -0.53592409480948 -0.62813491359136
 6  4.99277153375338  0.26700775567557 -1.00407436403640
 6  4.89529872557256  1.14641537323732 -2.23751086788679
 6  6.26191793699370  0.46077381658166 -0.25261417561756
 6  7.47087832823282 -0.15870205310531 -0.99650651755176
 6  8.79804140524053 -0.13534751985199 -0.08872722022202
 6  9.98412933863386 -0.68242256885689 -0.74579193399340
 6  9.88337437603760 -2.18291209410941 -0.99139842474247
 6  11.33064691489149 -0.33041735643564  0.00256970127013
 6  12.65062673687369 -0.64320963816382 -0.67877240034003
 6  13.82951154055405 -0.12050927712771  0.14583663916392
 6  15.18951786358636 -0.46491737323732 -0.37101065896590
 6  15.54981455325532 -1.96288515391539 -0.13925269356936
 6  16.28349909420942  0.52344686198620  0.21955097739774
 6  17.70925581438144  0.58610152785279 -0.19947384878488
 6  18.65027595189519  1.49711404030403  0.57860867706771
 6  20.15402730433043  1.30634843944394  0.29819154665467
 6  20.52063276217622  1.86966354245424 -1.13016109390939
 6  21.02273479477948  2.06498783758376  1.34235602380238
 1 -3.90085774607461  3.35887711971197  1.65787066796680
 1 -10.12502035513551  4.04077131923192 -0.55758708140814
 1 -10.42316657305730 -2.39993714921492 -1.05953542664266
 1 -2.76558888588859 -1.21316055125513  1.91439231493149
 1 -2.22943425792579  1.55111533473347  1.29263217541754
 1 -1.70211046904690  0.82416878527853  3.50676978097810
 1 -2.98446393829383  2.22530758045805  3.72959315451545
 1 -3.54316391329133  0.54611979647965  4.04131930813081
 1 -2.45350085848585 -1.28839357245725 -0.51399584678468
 1 -2.47953129252925  0.25658184918492 -0.77835452965297
 1 -0.51121694149415  0.17222107570757  0.86664702600260
 1 -0.54201454075408 -1.59456141474147  1.11212872127213
 1 -4.72078689518952  6.23414778287829  0.75265806560656
 1 -6.19481468786879  6.71186610131013  2.13218251285129
 1 -5.15424351115112  5.30412845684568  2.41430556455646
 1 -8.09012402180218  6.92943281778178  1.34926648054806
 1 -9.43905925782578  5.82526268676868 -1.25315690179018
 1 -9.91976672327233  7.48834756225623 -0.64732495539554
 1 -12.61529589158916  3.33080226742674 -0.33351116421642
 1 -12.02240608890889  3.41441539893989 -1.97295661246125
 1 -13.20868189098910  2.36882471817182 -1.35631998739874
 1 -12.80272264546455 -1.30232915961596 -0.90238498959896
 1 -13.68486551105110  0.17559171387139 -1.28277063586359
 1 -12.53388901880188  0.16659347244725 -3.51357870217022
 1 -12.00296526452645 -1.40157773137314 -3.23945289738974
 1 -13.74895164866487 -1.25243433823382 -3.09506704900490
 1 -9.77085363416342 -4.90302962276228 -0.54866716871687
 1 -9.18294227312731 -4.66111405740574 -2.16495339353935
 1 -8.17748292299230 -5.59196746374637 -0.73147110261026
 1 -3.44296614801480 -3.31501779197920 -0.36561791039104
 1 -1.39886027902790 -5.95026012171217  2.33651698579858
 1 -2.14547299369937 -4.37619110301030  3.50855529812981
 1 -3.21658467486749 -5.69509460106011  3.08553542914291
 1  2.67152105960596 -1.78805644914491 -1.74077524452445
 1  2.68136303080308  0.00519293849385 -2.13210097729773
 1  4.23067583928393 -1.19984229852985  0.29890779377938
 1  5.55177700690069  2.20257276627663 -2.09354407420742
 1  5.42991960916092  0.68961492399240 -3.04730613221322
 1  3.87666778497850  1.45159634643464 -2.53298412351235
 1  6.43580159635964  1.39371549654966 -0.20225041614161
 1  6.19084712941294 -0.22047193679368  0.76640434783478
 1  7.34691147604760 -1.17955468006801 -1.02141290089009
 1  7.87450699319932  0.27550957155716 -1.95225005400540
 1  8.87064255165516  0.83809265056506  0.20170031833183
 1  8.62927599039904 -0.95197934943494  0.88065087748775
 1  10.19186185478548 -0.31782922622262 -1.68720329532953
 1  8.81554187038704 -2.44978367156716 -1.36223477127713
 1  10.55519055015501 -2.74467606740674 -1.56654725962596
 1  9.37843286338634 -2.65156684228423 -0.01729999929993
 1  11.31281657905791  0.79907868796880 -0.00502191699170
 1  11.15416137963796 -0.75450068656866  1.02900283048305
 1  12.38067277787779 -1.71333290449045 -0.69756296929693
 1  12.65343349554955 -0.09041912091209 -1.80482201590159
 1  13.80602175707571  0.72898260906091  0.34070698159816
 1  13.71588581558156 -0.69456588438844  1.08307515341534
 1  15.11412375657566 -0.23656245014502 -1.57574958825883
 1  14.92486803970397 -2.56221880368037 -0.96332566576658
 1  16.59314318781878 -2.40407444404440 -0.29401518541854
 1  15.14020929972997 -2.21968710131013  0.98787805920592
 1  16.02810308350835  1.83204977527753 -0.06881642264226
 1  15.99776443324333  0.43524414771477  1.28571199379938
 1  18.02477369906991 -0.54463867436744  0.07922805500550
 1  17.71216580218022  0.59442133043304 -1.32807123962396
 1  18.35560024952495  2.61592798869887  0.22567795749575
 1  18.46258851305131  1.43540935043504  1.71439858985899
 1  20.46341267366737  0.33909187018702  0.23840499669967
 1  20.19962731933193  3.06385465556556 -1.27365926832683
 1  21.54067131083108  1.86133420312031 -1.38522162876288
 1  20.19554452745274  1.43439906160616 -2.07357953945395
 1  20.94888012451245  1.80929239723972  2.40548158475848
 1  22.04334719191919  1.70143017041704  1.19219337643764
 1  21.01806143554355  3.29086228582858  1.08699743764376
 1 -7.02655448854885  1.82665153835384  0.32213405950595
 1 -7.65159670807081 -0.46249642564256  0.08249812221222

