%nproc=3
%Mem=2GB
# td=(NStates=1) B3LYP/SVP 

TD

0 1
 6 -5.12674037213721 -1.92346858895890  0.44732960886089
 6 -4.89599991899190  2.76499295099510  1.40984737063706
 6 -9.45306521622162  3.33414421362136 -0.22021048894889
 6 -9.78203625812581 -1.45904670807081 -0.97436999039904
 7 -5.16555571787179  0.42475409830983  0.85925436243624
 6 -4.46762537863786 -0.74359108010801  0.82673611701170
 6 -3.02339202570257 -0.47547398209821  1.24831982778278
 6 -3.11343630903090  0.92976186848685  1.86750585638564
 6 -4.51785097819782  1.41198101600160  1.38692228922892
 6 -3.07825639413941  0.92222973527353  3.25192305490549
 6 -2.09227129782978 -0.70502046374637  0.09021696729673
 6 -0.61856506870687 -0.72673088968897  0.53625607830783
 6  0.47076073747375 -0.97192406530653 -0.63031458905891
 8  0.20599236683668 -1.36073844044404 -1.73424703620362
 8  1.61459165626563 -0.60368714181418 -0.19993243594359
 7 -7.19380397499750  2.81929920172017  0.54276378557856
 6 -6.08038961436144  3.36785120342034  1.07665852275228
 6 -6.27120030573057  4.73841028052805  1.07651414421442
 6 -7.69071816861686  4.94341317681768  0.58905543294329
 6 -8.12221316721672  3.60296879057906  0.26552670807081
 6 -5.34166468296830  5.72525804090409  1.41361262726273
 6 -8.11806908960896  6.24011802340234  0.32429093039304
 6 -8.84345224342434  6.68951867376738 -0.79605208400840
 7 -9.18648684928493  0.83242047504750 -0.44230669906991
 6 -9.94673853675368  2.01009350805081 -0.49719898909891
 6 -11.25601946844685  1.80533409440944 -0.92962679657966
 6 -11.46197014751475  0.41567890799080 -1.11487644234423
 6 -10.08520074577458 -0.11567151885189 -0.84676791929193
 6 -12.34339284018402  2.95176367796780 -1.12058514881488
 6 -12.63314105360536 -0.33886636613661 -1.75806676637664
 6 -12.56838696939694 -0.47855111951195 -3.25623379467947
 7 -7.49086804440444 -1.33626531173117 -0.12332086058606
 6 -8.58614020152015 -2.08863759055906 -0.59608297069707
 6 -8.14617705670567 -3.47356423862386 -0.53948651595160
 6 -6.85173008210821 -3.47064389268927 -0.18211583548355
 6 -6.36875797919792 -2.08366118471847  0.03968904510451
 6 -8.93909666726673 -4.63828457795780 -0.98429742414241
 6 -5.63486043124312 -4.29939497459746 -0.02160121452145
 8 -5.56763625382538 -5.52736226632663 -0.06169343524352
 6 -4.45545317391739 -3.32659342094209  0.37868693079308
 6 -3.95806960486049 -3.80993508700870  1.72599912561256
 8 -4.13911898539854 -3.41193912781278  2.78429649774978
 8 -3.09161784938494 -4.82493746664666  1.52922335023502
 6 -2.49333403720372 -5.37623706980698  2.74540668026803
 6  2.69237140574057 -0.85460935853585 -1.24060808660866
 6  4.05592883968397 -0.53478398079808 -0.50284238433843
 6  5.06693895049505  0.16323737863786 -1.04518847544754
 6  4.98943813951395  0.78638937063706 -2.37795491229123
 6  6.30367211241124  0.43234097329733 -0.25868478267827
 6  7.50120136053605 -0.31735791869187 -0.81873874077408
 6  8.77215881698170 -0.02989697479748 -0.05881422892289
 6  9.98321924762476 -0.62638696529653 -0.74503185798580
 6  9.91652769136914 -2.23559736263626 -0.84030331523152
 6  11.29767361756176 -0.29802411711171  0.01118056235624
 6  12.73994566876688 -0.59816513371337 -0.53090761386139
 6  13.84676326572657 -0.08714594079408  0.26830888638864
 6  15.18016692849285 -0.09054993649365 -0.41973553145315
 6  15.56699627142714 -1.61676054145415 -0.85315408370837
 6  16.25458620292029  0.61396591389139  0.52142116441644
 6  17.63552844164417  0.58550146784678 -0.14207810921092
 6  18.71558248254825  1.41631596049605  0.65047586378638
 6  20.18379028062806  1.45454325892589  0.09573130063006
 6  20.08830952985299  2.08966554265427 -1.35732381018102
 6  21.04287680898090  2.26065740454045  1.01030281848185
 1 -4.14507216751675  3.29744097609761  2.11917679857986
 1 -10.09328718181818  4.13779102120212 -0.23055437813781
 1 -10.68248250465046 -2.17772492799280 -1.34516398949895
 1 -2.92262458945895 -1.27499673487349  2.18252912861286
 1 -2.33763507800780  1.45711593479348  1.31198411061106
 1 -2.26748700670067  0.28913528192819  3.60706981098110
 1 -2.67283277517752  2.14158920862086  3.49131932713271
 1 -4.17030662756276  0.61080626512651  3.75698087428743
 1 -2.14201971037104 -1.62446717981798 -0.51805625282528
 1 -2.16187952735274  0.24236042704270 -0.69086578077808
 1 -0.41483730353035  0.23625747934793  0.87026738803880
 1 -0.41338167746775 -1.47192915151515  1.22989049744975
 1 -4.43009782628263  5.84744911301130  0.54159695949595
 1 -5.83241844824482  6.60930584528453  1.27324661926193
 1 -4.79884797159716  5.33482152615262  2.28193232723272
 1 -7.96954196359636  6.95963583808381  1.02681423532353
 1 -9.17981333323332  5.93297345784578 -1.75449703580358
 1 -9.34391913851385  7.67853658115812 -0.85098532143214
 1 -12.41418578057806  3.60419960716072 -0.29871768486849
 1 -11.99158300660066  3.40783474087409 -2.07926724352435
 1 -13.29060008280828  2.53756159185919 -1.23548790419042
 1 -12.72193456665667 -1.35720464716472 -1.37120187128713
 1 -13.52335936043604  0.03983813851385 -1.19076143494349
 1 -12.67755338523852  0.53965077817782 -3.69802714701470
 1 -11.67914288228823 -1.13916148974898 -3.70098905100510
 1 -13.73289004250425 -0.90547964276428 -3.64850239253925
 1 -9.74714126292629 -4.82066138593859 -0.30887318931893
 1 -9.27658163706371 -4.51212915891589 -2.05127202540254
 1 -8.57205237993799 -5.56967523452345 -0.89683763926393
 1 -3.74329618101810 -3.39048533873387 -0.53792514111411
 1 -1.98104849784979 -6.24038913461346  2.35108844294429
 1 -1.92343078947895 -4.80077356125613  3.26268071067107
 1 -3.24051706810681 -5.83169826142614  3.54024089968997
 1  2.65831973947395 -2.01750939443944 -1.23476464346435
 1  2.44098899339934 -0.35189277007701 -2.24843261046105
 1  4.18569134083408 -0.87433974827483  0.58040594359436
 1  5.67210904010401  1.60990349934994 -2.27925264506451
 1  5.36474309150915 -0.04076811431143 -3.17880928252825
 1  3.88877899609961  1.24248543534353 -2.72816364146415
 1  6.51118913511351  1.53322944794479 -0.31322151325132
 1  6.03498154285429  0.16481659205921  0.80314802220222
 1  7.39186597149715 -1.26391311591159 -1.03447420702070
 1  7.67534707720772  0.13408542914292 -1.73772860186019
 1  8.99677516491649  0.98390723202320  0.03687383568357
 1  8.53743680648065 -0.56584073557356  0.96170898329833
 1  10.13556622522252 -0.22460990429043 -1.84665924092409
 1  9.25783609980998 -2.52484117731773 -1.74659320712071
 1  10.97637266836684 -2.89340093989399 -1.00404100900090
 1  9.54182920302030 -2.71520320592059  0.16325805650565
 1  11.29268456585659  0.75183396349635  0.35301388658866
 1  11.12564852835284 -0.78567380388039  0.83594352455245
 1  12.75574028462846 -1.80239181038104 -0.75380859385939
 1  12.98672682488249 -0.17115719471947 -1.56803833753375
 1  13.47377853275328  0.90304001480148  0.73532644354435
 1  13.86936116311631 -0.56231265906591  1.24387123302330
 1  15.12863520772077  0.38384959105911 -1.37948996229623
 1  14.59580513341334 -1.66769935173517 -1.35391472467247
 1  16.42456633013301 -1.75551958855886 -1.28900468436844
 1  15.57189246804680 -2.10057519011901  0.08145741714171
 1  15.93709398259826  1.50001657195720  0.69163962296230
 1  16.27623228002800  0.09593021632163  1.39548297089709
 1  18.22829405110511 -0.39811402190219 -0.18940880868087
 1  17.56732131773177  0.77880976927693 -1.08933736623662
 1  18.36915160466047  2.43972036793679  0.79106449614962
 1  18.91497375157516  1.02172798229823  1.63021017101710
 1  20.64904123652365  0.25938389938994 -0.26087493129313
 1  19.91319867646765  3.23432170227023 -0.96246814921492
 1  21.20666791049105  2.01117918761876 -1.79193229982998
 1  19.15186015901590  1.58355397709771 -1.98792097359736
 1  21.11398663516352  1.73429489748975  2.01450248684868
 1  22.10007286448645  2.55305533293329  0.52513667076708
 1  20.61327095649565  3.31410461006101  1.13982272017202
 1 -7.29749158225823  1.76365523872387  0.55642748884888
 1 -7.40405195359536 -0.31271144714471 -0.08535866346635

