%nproc=3
%Mem=2GB
# td=(NStates=1) B3LYP/SVP 

TD

0 1
 6 -5.14488218631863 -2.02478872097210  0.51720659655966
 6 -4.72926324532453  2.70861731343134  1.57289367526753
 6 -9.19313922362236  3.38584938413841 -0.37648611651165
 6 -9.85479353385339 -1.22574337773777 -1.06184873827383
 7 -5.20942010431043  0.33293491639164  0.87749618661866
 6 -4.55691430753075 -0.82736945794579  0.81182462586259
 6 -3.12036172267227 -0.74576101080108  1.26467146294629
 6 -3.05975094049405  0.67372626492649  1.80288939473947
 6 -4.45941513461346  1.26588640654065  1.39573317031703
 6 -3.03499206770677  0.56657416971697  3.35106296889689
 6 -2.16023809450945 -0.93678364006401  0.08410635623562
 6 -0.66939015121512 -0.99659787638764  0.51006345904590
 6  0.36493015441544 -1.10258713161316 -0.50981253885389
 8  0.20627239483948 -1.68951131773177 -1.60108371987199
 8  1.61358155525553 -0.77939471257126 -0.21981442414241
 7 -6.95077967256726  2.78165543734373  0.49635914511451
 6 -5.87020859625963  3.31906632493249  1.06879773667367
 6 -6.03238642434243  4.70840728022802  0.95365185798580
 6 -7.31776087288729  4.93041187668767  0.50955748314831
 6 -7.91961290719072  3.61923041674167  0.12568272367237
 6 -5.12704322082208  5.69860537563756  1.51083234923492
 6 -7.80496777947795  6.36711072267227  0.29998850015002
 6 -8.64507240544054  6.79613933583358 -0.64641712051205
 7 -9.10260846144614  0.98579581258126 -0.53260572897290
 6 -9.85417928082808  2.16590908960896 -0.64481375057506
 6 -11.17763162966297  2.00392395339534 -1.01253508740874
 6 -11.30655460596060  0.72722006210621 -1.29038399309931
 6 -10.10664288998900  0.12706275457546 -0.83939718221822
 6 -12.18624712561256  3.10094859645965 -1.22721581188119
 6 -12.60693843334333 -0.03119559905991 -1.77615857555756
 6 -12.63470360106011 -0.30683394779478 -3.29143731503150
 7 -7.53877283488349 -1.25741742694269 -0.18287681618162
 6 -8.61648323582358 -1.94231295809581 -0.65504886728673
 6 -8.23441588058806 -3.33235011721172 -0.65054762206221
 6 -6.97854276337634 -3.39624645294529 -0.23228085198520
 6 -6.44220532393239 -2.09025184378438  0.08835391159116
 6 -9.09684244184418 -4.53773452295230 -1.08747774217422
 6 -6.01355830103010 -4.40075511061106  0.13525447104710
 8 -5.99162865306531 -5.55757528762876  0.21621435553555
 6 -4.71422905150515 -3.48836959855986  0.58191725382538
 6 -4.12648644654465 -3.90793488698870  1.89986651235124
 8 -4.38219329282928 -3.47803573747375  2.98736680478048
 8 -3.33965265286529 -5.06898187108711  1.73371379927993
 6 -2.99069377317732 -5.61235068116812  3.00942308190819
 6  2.73625579417942 -1.15515941354135 -1.13240726652665
 6  4.06653990079008 -0.84575507790779 -0.60693279337934
 6  5.01118337493749 -0.03245219031903 -1.03663762036204
 6  4.88433762946295  0.57221795349535 -2.31719883668367
 6  6.27284903010301  0.11442918211821 -0.33597251145115
 6  7.57252849324932 -0.22734891779178 -1.16271313821382
 6  8.85173677477748 -0.24927891299130 -0.24704305180518
 6  10.13789471517152 -0.74994932153215 -0.89194654945495
 6  10.00048608720872 -2.33896769966997 -1.03492277717772
 6  11.27897174737474 -0.37377169186919  0.07847729202920
 6  12.63655532973297 -0.55910122732273 -0.72773729682968
 6  13.85642423182318  0.04964773857386  0.04307636313631
 6  15.31031994379438  0.02606172467247 -0.42224578247825
 6  15.68852842464246 -1.53984284968497 -0.83034180248025
 6  16.30122086638664  0.72586710401040  0.44145316761676
 6  17.67524241304130  1.07745066276628 -0.29961386278628
 6  18.63443436773677  1.91874620352035  0.59063988018802
 6  20.09785168676868  1.85574337893789  0.12806453395340
 6  20.20130082898290  2.69196577267727 -1.11459953775378
 6  21.06767928922892  2.43499483828383  1.20022181038104
 1 -4.12669032933293  3.46774800680068  1.96379126002600
 1 -9.88258611171117  3.96602384448445 -0.40466178887889
 1 -10.91017527392739 -1.75667282278228 -1.23350282338234
 1 -2.90320264726473 -1.60234947014701  2.15192606830683
 1 -2.26958827332733  1.57666788998900  1.71933484568457
 1 -2.21460171817182 -0.10884451605160  3.87762686668667
 1 -2.79752524442444  1.80908595829583  3.80182037723772
 1 -4.13459305620562  0.24877006150615  3.85970114631463
 1 -2.35443095149515 -1.67035176827683 -0.49930437763776
 1 -2.02397573697370 -0.08977278627863 -0.72521921612161
 1 -0.39866568636864 -0.12628877527753  1.45451581288129
 1 -0.71934227352735 -2.03915587418742  1.11637914631463
 1 -4.03746856335634  5.68963333143314  0.87727052685269
 1 -5.32174738113811  6.67255216991699  1.29274856945695
 1 -4.72219030583058  5.60923896789679  2.51138527252725
 1 -7.43853886328633  7.12078195269527  0.86729828372837
 1 -9.07122247414742  5.99476963746375 -1.38061964806481
 1 -9.11441618821882  7.69928865636564 -0.68769899279928
 1 -12.48326268826883  3.58264745194520 -0.13226103920392
 1 -11.83384723302330  3.82557651505151 -1.84151346814682
 1 -13.30022104490449  2.95491332703270 -1.62075643104310
 1 -12.78978135133513 -1.00730965766577 -0.97956270737074
 1 -13.50842786728673  0.70598475317532 -1.58652101090109
 1 -12.87089271917192  0.56948376147615 -3.88035537983798
 1 -11.74815978397840 -0.88020559415942 -3.82485143724372
 1 -13.36141289478948 -0.88490758555856 -3.49745728802880
 1 -9.79485603440344 -4.85458477827783 -0.18728103010301
 1 -9.87198117701770 -4.47037498349835 -1.96672357055705
 1 -8.40640581528153 -5.37479574657466 -1.30508846434644
 1 -3.94867671907191 -3.72584887508751 -0.17929927852785
 1 -2.33727412041204 -6.60687578327833  2.91306464056406
 1 -2.44138258465847 -4.79686317021702  3.58872331493149
 1 -3.85067808420842 -5.87482257385739  3.58140501610161
 1  2.60910481798180 -2.28721636513651 -1.31026219321932
 1  2.64902979747975 -0.71926950775078 -1.99444721192119
 1  4.26404917661766 -1.17682999729973  0.52099000200020
 1  5.19776160536054  1.58872138113811 -2.15914063386339
 1  5.49308592579258  0.32219818231823 -3.29473087468747
 1  4.00456057425743  0.57382856965697 -2.69120994609461
 1  6.55451346754675  1.19606573157316 -0.05965615671567
 1  6.43714175887589 -0.48606849644964  0.72074978237824
 1  7.52499928482848 -1.45111183578358 -1.48863962356236
 1  7.69263880638064  0.40473249384939 -2.09645447444744
 1  9.04162965036504  0.83928276957696  0.06251639993999
 1  8.50082314511451 -0.73498765026503  0.70694350675067
 1  10.38809147774777 -0.19921736503650 -1.79376395139514
 1  9.29276959315932 -2.38665735893589 -1.86680522832283
 1  10.95205023612361 -2.92877447724773 -1.24825543044304
 1  9.88615363546355 -2.72303398899890  0.01787351805181
 1  11.01882718011801  0.70001878197820  0.43589217441744
 1  11.24608057155716 -1.13876911341134  0.97992792299230
 1  12.74801951255125 -1.53044461566157 -1.01572478547855
 1  12.53343149534953  0.12269219021902 -1.56094762846285
 1  13.62057321222122  1.12841255205521  0.40203311421142
 1  13.88184241124112 -0.58933536133613  1.06695354125413
 1  15.42984532873287  0.54170537663766 -1.32966497979798
 1  14.78233378627863 -1.78368094989499 -1.50066940014001
 1  16.69805367886789 -1.76061009760976 -1.35192097599760
 1  15.42430770957096 -1.99787492009201  0.18363763516352
 1  15.76330660386039  1.64425099539954  0.81967242624262
 1  16.49763442024203  0.27712833613361  1.48143156575658
 1  18.23632485418542  0.09870566006601 -0.67710757855786
 1  17.34832941854186  1.60769265756576 -1.13728216071607
 1  18.15342003150315  2.94374076997700  0.61636702640264
 1  18.46439869406941  1.45842165166517  1.59956710671067
 1  20.35263159555955  0.85487344834483 -0.10113895769577
 1  20.32134949154916  3.88851712181218 -1.04806670907091
 1  21.14053129682969  2.46429449914991 -1.35828893549355
 1  19.71306627962796  2.17720334203420 -1.89961214271427
 1  21.19367460396040  1.69818128612861  2.13222425902590
 1  22.05448830603060  2.86103613101310  0.68884304140414
 1  20.40814044344435  3.39019221882188  1.94872361026103
 1 -7.15549738283828  1.79510838403840  0.61661350745075
 1 -7.32900444884488 -0.27757793379338 -0.24400452805280

