%nproc=3
%Mem=2GB
# td=(NStates=1) B3LYP/SVP 

TD

0 1
 6 -5.12508020612061 -1.87288353045305  0.47805268116812
 6 -4.62354267326733  2.83293974567457  1.14924131003100
 6 -9.40502041174117  3.32776357555756 -0.05275374327433
 6 -9.85868392289229 -1.44128493189319 -0.88738129152915
 7 -5.18412757505751  0.52456407930793  0.70571900890089
 6 -4.50506912301230 -0.71477819881988  0.84073751715172
 6 -3.01661134763476 -0.56296273097310  1.14059905570557
 6 -2.99755472087209  0.92710160246025  1.60357946374637
 6 -4.30477967106711  1.46322614051405  1.17378097509751
 6 -2.78226679517952  1.15280279257926  3.18477634023402
 6 -2.05457752845284 -0.83033299499950 -0.04648670307031
 6 -0.62665587778778 -0.76009422602260  0.30667312001200
 6  0.34949861126113 -1.05814268716872 -0.80970252785278
 8  0.13546531413141 -1.49577194379438 -1.90105371687169
 8  1.61110130723072 -0.76406317941794 -0.36974941764176
 7 -6.94200879547955  2.73456072787279  0.49966947614761
 6 -5.84975655105510  3.41186560486049  0.83777463436344
 6 -6.20686387208721  4.86360279977998  1.02406889968997
 6 -7.50955005180518  4.89105794129413  0.58212473987399
 6 -8.01710265616562  3.64090258395840  0.17195735113511
 6 -5.35020553705371  5.93530904600460  1.42944421042104
 6 -8.34966224892489  6.14492850445045  0.47354585588559
 6 -9.39353725192519  6.53393311521152 -0.34839731853185
 7 -9.25016321692169  0.83414064706471 -0.37400986938694
 6 -9.85690955385538  1.97982048074808 -0.45442471167117
 6 -11.33537740424043  1.79590315131513 -0.81693552745275
 6 -11.49669361986199  0.38971631173117 -1.09240419511951
 6 -10.26657888358836 -0.13316326802680 -0.77269051155116
 6 -12.25042354325432  2.95526402800280 -0.94762785308531
 6 -12.72772051155115 -0.36275875537554 -1.41913287298730
 6 -12.65363549424942 -0.74255752015202 -2.95309348064806
 7 -7.49342830043004 -1.22829451465147 -0.16738526702670
 6 -8.60707229472947 -2.03162188898890 -0.55451881428143
 6 -8.19433187218722 -3.35244212641264 -0.63690625792579
 6 -6.90154506360636 -3.37176400470047 -0.22508013191319
 6 -6.44957606100610 -2.04021684028403  0.06266134233423
 6 -8.83789654725473 -4.64566531603160 -1.03761275567557
 6 -5.72428937413741 -4.27629266436644  0.07763870947095
 8 -5.64709419961996 -5.45040457055706  0.07275000910091
 6 -4.56422405100510 -3.29543030463046  0.44064312641264
 6 -3.91236503440344 -3.81347544104410  1.76863338903890
 8 -4.07986305980598 -3.29769770367037  2.83185125322532
 8 -2.86570525812581 -4.65321029392939  1.59556998489849
 6 -2.32404710851085 -5.21119056515652  2.74232637223722
 6  2.66511868046805 -0.98732262986299 -1.28980300610061
 6  3.92349559635964 -0.65697620002000 -0.73856595669567
 6  4.97780003660366  0.19965102000200 -1.22308626522652
 6  4.90494969066907  0.74718545024502 -2.63520063686369
 6  6.24304604980498  0.27380511971197 -0.50206912111211
 6  7.53451469186919 -0.36980316321632 -1.15137200410041
 6  8.71865346644664 -0.13459744484448 -0.26920526802680
 6  10.01926285198520 -0.70732505910591 -0.93211056585659
 6  9.91461750035003 -2.24261806470647 -1.22325161006101
 6  11.24830868106811 -0.37759207390739 -0.00132068776878
 6  12.70502217641764 -0.60117543474347 -0.52189671277128
 6  13.83583217261726 -0.21644887108711  0.36643869936994
 6  15.30259917171717 -0.36643752525253 -0.25452901080108
 6  15.70051962376237 -1.85374423982398 -0.35113388168817
 6  16.17404814911491  0.51493601090109  0.61140016231623
 6  17.70643553235324  0.60908382608261  0.01157725632563
 6  18.63841476577658  1.43579790869087  0.84035485168517
 6  20.05270717231723  1.66745455005501  0.29615134263426
 6  20.04834553345335  2.44178075417542 -1.08679675747575
 6  20.92390491179118  2.41870320912091  1.33616540474047
 1 -4.03409106940694  3.42997422942294  1.50604548544854
 1 -10.16034388748875  4.16033327542754 -0.16343766646665
 1 -10.52997725412541 -2.29295645114512 -1.09185865896590
 1 -2.91433376037604 -1.18550778597860  1.96399727542754
 1 -2.09644095859586  1.47576779998000  0.95021793399340
 1 -1.81007126512651  0.67417378577858  3.53766287028703
 1 -2.87911340324032  2.27050209990999  3.49724992019202
 1 -3.47982757965797  0.63546873137314  3.83845902210221
 1 -2.28875438383838 -1.73695842894289 -0.54038848604860
 1 -2.30920425982598  0.00680687168717 -0.73556025022502
 1 -0.31326714651465  0.20540439403940  0.58288865016502
 1 -0.38174851415142 -1.48502046064606  1.11675918431843
 1 -4.71947676417642  6.17829219731973  0.43913671347135
 1 -5.97841304770477  6.71871678637864  1.69336863146315
 1 -4.64817290409041  5.45310335433543  2.21545567956796
 1 -7.98077308670867  6.88589846434643  1.09876143004300
 1 -9.53038839073907  5.97681784228423 -1.34785637173717
 1 -9.82430717731773  7.52001072857286 -0.19393961686169
 1 -12.43306766876688  3.51623081028103 -0.00296810991099
 1 -11.95583943224323  3.69323328072807 -1.74137345414541
 1 -13.26005702850285  2.55078291399140 -1.30221457685769
 1 -12.95927830103010 -1.19092801950195 -0.49395414651465
 1 -13.63410043454345  0.28491264596460 -1.52509486828683
 1 -12.46140177007701  0.33702051515152 -3.59516686098610
 1 -11.96016098409841 -1.45384295789579 -2.93017196929693
 1 -13.70592734623462 -0.94440353515352 -3.23246078837884
 1 -9.69269581838184 -4.75712503230323 -0.20969327132713
 1 -9.30323430233023 -4.52421036703670 -2.03305020322032
 1 -8.18005318001800 -5.52556082308231 -0.93292124762476
 1 -3.78383023442344 -3.59385567576758 -0.27362871147115
 1 -1.57883827682768 -6.00559565526553  2.54939827392739
 1 -1.95874432083208 -4.48498198209821  3.55867030963096
 1 -2.98862187858786 -5.69834492609261  3.37341421702170
 1  2.67642154965497 -1.89904754825483 -1.77835900290029
 1  2.54932982748275 -0.38440602140214 -2.20340810801080
 1  4.06514928662866 -0.86045836013601  0.38241614461446
 1  5.37465929512951  1.55294780378038 -2.54797951775178
 1  5.49923654085409  0.12681864436444 -3.38804020562056
 1  3.78872899109911  0.87493868066807 -2.87903872897290
 1  6.51802981918192  1.24513063806381 -0.29560975207521
 1  6.23825186988699 -0.41496138573857  0.50281798919892
 1  7.39761654655466 -1.28947567216722 -1.25342610221022
 1  7.73088263076308  0.18187020762076 -2.18178300730073
 1  8.82412790019002  0.82599144044404 -0.06675652735274
 1  8.46621968476848 -0.74788894039404  0.72093490589059
 1  10.28979164776478 -0.24231167446745 -2.02510708570857
 1  9.03624394059406 -2.37103579677968 -2.03937248504851
 1  10.94887991909191 -2.56924852465247 -1.65705631053105
 1  9.66310133023302 -2.83968565416542 -0.28756702600260
 1  11.29749504690469  0.75141392149215  0.19442802800280
 1  11.18083404690469 -0.90523576007601  0.94365429562956
 1  13.04596930753075 -1.75701727292729 -0.62037525052505
 1  12.88683683588359  0.04808472947295 -1.58631016471647
 1  13.95213636853685  0.83803351415142  0.70006291719172
 1  13.83312753975397 -0.81924835263526  1.34308115401540
 1  15.23088543274327 -0.05337413131313 -1.35168718201820
 1  15.15756130903090 -2.43651623342334 -0.92138147134713
 1  16.73710758425842 -2.13997803440344 -0.79098488238824
 1  15.86598187698770 -2.33037817041704  0.70059933133313
 1  15.77210748394840  1.52178874917492  0.66111657065707
 1  16.04268892569257  0.24040466376638  1.64431785438544
 1  18.35779700140014 -0.28017222772277 -0.11978184598460
 1  17.45210979657966  0.97795968426843 -1.00932936543654
 1  18.20123481298130  2.61821821772177  0.85921131083108
 1  18.56974922912291  1.25379118861886  1.97717486748675
 1  20.56145247764777  0.71136909790979  0.12415357155716
 1  19.76532388898890  3.56285455555556 -0.90145204760476
 1  20.98282552625263  2.38494656435644 -1.46914002060206
 1  19.49368434143414  1.75495111681168 -1.86331851335134
 1  20.80810604710471  2.01814328232823  2.26013705030503
 1  21.98868172537254  2.26715674307431  1.06519067616762
 1  20.58696832623262  3.35502870247025  1.33958269616962
 1 -6.90357219031903  1.82494136733673  0.46244809090909
 1 -7.49870141854185 -0.17265744174417 -0.25712584018402

