%nproc=3
%Mem=2GB
# td=(NStates=1) B3LYP/SVP 

TD

0 1
 6 -5.04447214531453 -1.83810005210521  0.44246912281228
 6 -4.77373769276928  2.87408386008601  1.34700108600860
 6 -9.43550346004600  3.25294609380938 -0.13446191409141
 6 -9.79452750725072 -1.59208001140114 -0.92438499189919
 7 -5.15986514881488  0.50352197509751  0.86681511851185
 6 -4.46519513561356 -0.67344406540654  0.88803224662466
 6 -3.01006069256926 -0.45070150485048  1.22678767456746
 6 -3.14927989338934  0.97015590789079  1.81486059185919
 6 -4.46638583168317  1.52291210911091  1.35756935393539
 6 -3.10294886338634  1.03363087538754  3.40425828842884
 6 -2.07311938263826 -0.65449541124112  0.09150709630963
 6 -0.51352456465647 -0.79841805840584  0.45388784148415
 6  0.45741940334033 -0.94384125702570 -0.67359891749175
 8  0.16216798439844 -1.24863723032303 -1.87607121862186
 8  1.66413661076108 -0.74971174427443 -0.22252469516952
 7 -7.08645323992399  2.74038130993099  0.48568807800780
 6 -5.99452102750275  3.39527394569457  0.94605546244624
 6 -6.42837602330233  4.81520796029603  1.02168866166617
 6 -7.61036013281328  4.90825966146615  0.52691921932193
 6 -8.20891183708371  3.64223271697170  0.20906106150615
 6 -5.45196571307131  5.90515603070307  1.41692295829583
 6 -8.31789907260726  6.20013402500250  0.40920942224222
 6 -9.29593749194919  6.47532725462546 -0.45128760756076
 7 -9.28463666426643  0.78961619461946 -0.49722219061906
 6 -9.95890975387539  1.94200669936994 -0.52250151935194
 6 -11.31031489798980  1.73159672067207 -0.96742057595760
 6 -11.42380633113311  0.30776811691169 -1.10669562426243
 6 -10.14694692039204 -0.18234818651865 -0.88142138463846
 6 -12.46642514341434  2.73493199479948 -1.18319140944094
 6 -12.71643938343834 -0.29377185668567 -1.64457541724172
 6 -12.71149127982798 -0.53497676207621 -3.12767093839384
 7 -7.54856381398140 -1.27904959015902 -0.32337086558656
 6 -8.62182376987699 -2.14045277207721 -0.74690805320532
 6 -8.12298473747375 -3.53864074627463 -0.67750031733173
 6 -6.75385029412941 -3.36252308060806 -0.27702532643264
 6 -6.39831093449345 -2.02595541414141  0.03673875007501
 6 -8.90888364596460 -4.66513726322632 -0.95887488188819
 6 -5.64131107630763 -4.30742577767777  0.03324427002700
 8 -5.42312180238024 -5.47827735783578  0.02496523062306
 6 -4.53126075467547 -3.23497425902590  0.38353741584158
 6 -3.83081687958796 -3.74598869236924  1.66859338503850
 8 -4.06666173967397 -3.12047998189819  2.75088315641564
 8 -3.01918060566057 -4.74329930283028  1.44686511441144
 6 -2.39119382318232 -5.27410685678568  2.69592173177318
 6  2.71208337693769 -0.75715961356136 -1.19210323612361
 6  4.01476472327233 -0.62438294069407 -0.47875997609761
 6  5.09328158475848  0.20540159505951 -0.98038199479948
 6  4.95621481718172  1.16613734543454 -2.22238935573557
 6  6.24230597579758  0.35328306750675 -0.14402331653165
 6  7.57427866826683 -0.19004518741874 -0.87950481738174
 6  8.73990559165917 -0.20292427752775  0.02253390589059
 6  10.07976890259026 -0.70984531113111 -0.65426278107811
 6  9.89212525112511 -2.28549235213521 -0.93290257515752
 6  11.31220507070707 -0.49595391009101  0.15694513881388
 6  12.69452112631263 -0.63172849004901 -0.60725524862486
 6  13.84407299669967 -0.25573279947995  0.18286034153415
 6  15.15044395619562 -0.33014389588959 -0.27275083298330
 6  15.68930850265026 -1.84898376377638 -0.53386215451545
 6  16.36956770107011  0.33760827812781  0.58346736903690
 6  17.74952984178418  0.58630154785479 -0.21247514891489
 6  18.66408733303330  1.46019034793479  0.56673748994899
 6  20.12633453505351  1.54767257185719  0.07117884538454
 6  20.27872857175717  2.06999357545755 -1.46593467126713
 6  21.09182170347035  2.44296563536354  0.90692248044804
 1 -3.86859451975198  3.42492372437244  1.82882776367637
 1 -10.06524437753775  4.21942918501850 -0.02293361606161
 1 -10.84391864826483 -2.18338549404940 -1.07123659675968
 1 -2.86215854285429 -1.24301353655366  1.95927680338034
 1 -2.25012632713271  1.74594481768177  1.63268618081808
 1 -2.12945320332033  0.51429779817982  3.80881998599860
 1 -3.37109260116012  2.08078312801280  3.77831802700270
 1 -3.90997059395940  0.42785797029703  3.71757693389339
 1 -2.33425893429343 -1.56807154025403 -0.42399684688469
 1 -2.11981532093209  0.36537272827283 -0.66290298449845
 1 -0.13765958575858  0.26549040264026  0.88842920422042
 1 -0.50725106440644 -1.66613857245725  1.08273578197820
 1 -4.40700551705171  5.96249061716172  1.12932573237324
 1 -5.92066727312731  6.87768268296830  1.26085538013801
 1 -5.22020010681068  5.83658170217022  2.54222835683568
 1 -7.75631064046405  6.89499937443744  1.07295884978498
 1 -9.79864521642164  5.77131729222922 -1.20537212331233
 1 -9.70777552415241  7.70887961546155 -0.74256447934793
 1 -12.45756011801180  3.24451363856386 -0.28679649274927
 1 -12.13990783908391  3.21036499389939 -2.05821513831383
 1 -13.44691571437144  2.28353618931893 -1.13751810721072
 1 -12.89298167136714 -1.26137506420642 -1.17382213331333
 1 -13.67586461096110  0.23744789948995 -1.45671803060306
 1 -12.82342797269727  0.26010282338234 -3.86178352265226
 1 -11.95371033903390 -1.36529410301030 -3.26234518661866
 1 -13.83523027652765 -1.14045314011401 -3.36724426672667
 1 -9.65602215101510 -4.87994731453145 -0.08808111011101
 1 -9.45191917081708 -4.63232117811781 -1.92905980418042
 1 -8.27001217591759 -5.69398766576658 -0.94252220772077
 1 -3.67265911731173 -3.33779006920692 -0.43366471507151
 1 -1.78655904890489 -6.09899499519952  2.08445177927793
 1 -1.74708315471547 -4.43384686858686  2.90329477207721
 1 -2.94237725412541 -5.59347443904390  3.42964984058406
 1  2.47506141364136 -1.66605424892489 -1.80880204720472
 1  2.54560945544555  0.13855627482748 -1.89319708690869
 1  4.31821459315932 -1.24600691499150  0.44791269426943
 1  5.67580941014101  1.96555906490649 -2.10815553535353
 1  5.58605522272227  0.59776573907391 -2.98299970157016
 1  3.95512563076308  1.27347853465347 -2.54079490459046
 1  6.41831984818482  1.21847797279728  0.34449425832583
 1  6.18061610631063 -0.21873176277628  0.89029673707371
 1  7.43829061396140 -1.21708843344334 -1.20220097969797
 1  7.76003554605461  0.37387940854085 -1.86629145814581
 1  8.92398788618862  0.78024686598660  0.29910005830583
 1  8.54864792759276 -1.12020617211721  0.78714152655266
 1  9.90514318291829 -0.28451589488949 -1.52656723172317
 1  8.97309762596260 -2.58181687488749 -1.34326287408741
 1  10.75779081018102 -2.77993959375938 -1.44052465736574
 1  9.73711873197320 -2.47809949554955  0.24201593229323
 1  11.37998329572957  0.53517229732973  0.57015560076008
 1  11.43088905240524 -0.97693292979298  1.05528545874587
 1  12.84814952555256 -1.75767733893389 -0.71407462046205
 1  12.49331748394839  0.10717063806381 -1.44694622832283
 1  13.87428858375837  0.85165487628763  0.46850976187619
 1  13.96354058105810 -0.74520094789479  1.39149599549955
 1  15.08461080528053  0.14065527162716 -1.37360937423742
 1  15.10555610851085 -2.60168275007501 -1.38825815901590
 1  16.61244511801180 -1.58683271987199 -1.33032881678168
 1  15.93347862666267 -2.20415554815482  0.40446971837184
 1  15.82391266446645  1.35964253455346  0.84352481148115
 1  16.46652130893089 -0.04513389008901  1.53052647524752
 1  18.25659688138814 -0.31322553305331 -0.25432530033003
 1  17.47205179077908  1.03116500480048 -1.33217164966497
 1  18.29015370487049  2.45769216511651  0.75980136983698
 1  18.83900615481548  1.00762657215722  1.64580173017302
 1  20.55767209960996  0.58226618761876  0.15834699089909
 1  19.67197455405541  3.03277154725473 -1.45377728012801
 1  21.46489373307331  2.26968503820382 -1.45940904750475
 1  19.76517149014902  1.25194081578158 -2.24775695719572
 1  20.74045928242824  2.27738920692069  2.10888192479248
 1  22.14452730993099  2.24767479487949  0.65383954105411
 1  20.74183381278128  3.47096029562956  0.84298303620362
 1 -7.29517135023502  1.66219509270927  0.39577142324232
 1 -7.73862541094109 -0.28215839183918 -0.00342046964697

