%nproc=3
%Mem=2GB
# td=(NStates=1) B3LYP/SVP 

TD

0 1
 6 -5.13053075117512 -1.97012325442544  0.46715159105911
 6 -4.90659097809781  2.75556200790079  1.47542392829283
 6 -9.32653256295630  3.32305310451045 -0.34007247514751
 6 -9.70684873937394 -1.40177098049805 -0.89424197759776
 7 -5.28079724202420  0.37926954985499  0.93558199519952
 6 -4.57786640274027 -0.70716743774377  0.88153159655966
 6 -3.09277896439644 -0.49761619631963  1.33714871067107
 6 -3.17510247564756  0.90684957725773  1.93486259205921
 6 -4.52237143024302  1.40850066796680  1.31731532853285
 6 -2.99060762926293  1.13404091639164  3.44330219281928
 6 -2.10497256795680 -0.66901686338634  0.30905885148515
 6 -0.55506871907191 -0.69657787438744  0.72649510221022
 6  0.35833949534953 -0.85308218111811 -0.55556711431143
 8  0.12262403000300 -1.38942130873087 -1.57269088058806
 8  1.61877207430743 -0.51430820392039 -0.13427587028703
 7 -7.11915651025103  2.70155742754275  0.46918642784278
 6 -6.01898347374737  3.38630304860486  1.04141499839984
 6 -6.38772195789579  4.86758319781978  1.07985447824782
 6 -7.62817191399140  4.91601043654365  0.51205773317332
 6 -8.07592853875388  3.70128862256226  0.16309646504650
 6 -5.43455397189719  5.81537705280528  1.60677194319432
 6 -8.28777606030603  6.18672268386839  0.27664616591659
 6 -9.15946384458446  6.47554727662766 -0.74770724952495
 7 -9.07577577817782  0.89876710971097 -0.61228369676968
 6 -9.87054091699170  2.06905940464046 -0.67110637983798
 6 -11.23178704520452  1.79718327932793 -1.14128796269627
 6 -11.38096204670467  0.38061540164016 -1.25936089078908
 6 -9.97819004470447 -0.09596954865487 -1.00922416491649
 6 -12.29495799669967  2.81387988958896 -1.30746383668367
 6 -12.52859059855986 -0.39122160166017 -1.72737369706971
 6 -12.73809394009401 -0.65420868526853 -3.20522869416942
 7 -7.36755571317132 -1.19820150535054 -0.24724325282528
 6 -8.43303489098910 -2.09970869766977 -0.66542990539054
 6 -8.13123556255626 -3.42078896109611 -0.55411797909791
 6 -6.75825073417342 -3.46228305660566 -0.22357998189819
 6 -6.34046514991499 -2.11170398899890  0.03996907310731
 6 -9.01179393699370 -4.64226497599760 -0.85221421582158
 6 -5.58767571277128 -4.22167720282028  0.17663860946095
 8 -5.51562105230523 -5.51925145524552  0.10565329942994
 6 -4.44978260686069 -3.23645440704070  0.57225628772877
 6 -3.87095089298930 -3.83308740224022  1.80428695439544
 8 -4.16958203170317 -3.46222415631563  2.88747681578158
 8 -2.99485817341734 -4.82071704460446  1.51155158305831
 6 -2.49900460426043 -5.50454990109011  2.59410154975498
 6  2.65265743434343 -0.76724062166217 -1.19715374117412
 6  3.90177342414241 -0.59640014241424 -0.58742084218422
 6  4.94413667026703  0.31868292319232 -1.04838879547955
 6  4.84676387208721  1.24244497619762 -2.14698181498150
 6  6.24769651485148  0.38234597379738 -0.27942685688569
 6  7.44885612601260 -0.22612879577958 -0.86319318621862
 6  8.71564316541654 -0.29494347944794 -0.15069341684168
 6  9.99025995169517 -0.64401872847285 -0.84936229102910
 6  10.00737677627763 -2.16843064596460 -1.28693797869787
 6  11.27656150635064 -0.34321863656366 -0.02473302900290
 6  12.63640531473147 -0.53713903110311 -0.70333485658566
 6  13.85466405580558 -0.13621084728473  0.13154521002100
 6  15.21121003280328 -0.28119900140014 -0.50705426332633
 6  15.64931450325032 -1.77068593399340 -0.83254202250225
 6  16.28039878417842  0.41616613391339  0.38889791209121
 6  17.67552244104411  0.64352727042704 -0.20144404580458
 6  18.66255718001800  1.39235356425643  0.60623143934393
 6  20.09750165176517  1.51335914051405  0.13771549904991
 6  20.26729742864286  2.24227080318032 -1.20017809560956
 6  21.01048356965697  2.09709104790479  1.26090787898790
 1 -4.02221988228823  3.31595282728273  2.00178505940594
 1 -9.97750560366037  4.26665390749075 -0.44624594729473
 1 -10.43871812821282 -2.07153430893089 -1.22413188628863
 1 -2.87528985598560 -1.08916815201520  2.13571444714471
 1 -2.44742605710571  1.38673889708971  1.44042695489549
 1 -1.99732999099910  0.99415578397840  3.68334743874387
 1 -3.14563005490549  2.22507755745575  3.80333052825282
 1 -3.62772236913691  0.72113729822982  4.30471564776478
 1 -2.24629013741374 -1.60464519761976 -0.13765821302130
 1 -2.30181352075207  0.24988117911791 -0.56525321952195
 1 -0.30481630143014  0.12834668826883  1.39645000630063
 1 -0.25554589388939 -1.74225618421842  1.31660916931693
 1 -4.29937475397540  5.51297566566657  1.21950475027503
 1 -5.69938514491449  6.85213012771277  1.27311660626063
 1 -5.28714680148015  5.78312635663566  2.80016415041504
 1 -8.27720272967297  6.96763663816382  1.02290384428443
 1 -9.26420177207721  5.77301746224622 -1.55365695179518
 1 -9.85875062166216  7.24924365186519 -0.81943216611661
 1 -12.46408077007701  3.36410559775978 -0.41313912701270
 1 -12.06325017331733  3.64053801120112 -2.03524284108411
 1 -13.24172519531953  2.31915975167517 -1.52921727712771
 1 -12.57066944014401 -1.44202312901290 -1.15211996309631
 1 -13.38823584808481  0.15726988168817 -1.39291164996500
 1 -12.56993262316232  0.43762057515752 -3.74169151345135
 1 -11.96727169516952 -1.29741731533153 -3.55698465056506
 1 -13.63070982448245 -1.19567866266627 -3.50475801810181
 1 -9.71339788858886 -4.86937625742574  0.02488018601860
 1 -9.56288026692669 -4.52510045604560 -1.88905580378038
 1 -8.25407058175818 -5.63048131513151 -0.82963091859186
 1 -3.80106195759576 -3.43314960516052 -0.30236158475848
 1 -1.67926831983198 -6.05881097679768  2.04312764686469
 1 -1.88616706310631 -4.87941142504250  3.09013345594559
 1 -3.22714573097310 -6.24051914351435  3.30727760336034
 1  2.48685259275928 -1.69881752525253 -1.50292145914591
 1  2.68679357385739 -0.05004258505851 -2.05469323652365
 1  4.18419119081908 -1.30633294759476  0.16310421342134
 1  4.73813564276428  2.43762627162716 -1.77146186598660
 1  5.84957157435744  1.07830379287929 -2.86804820642064
 1  3.87441755995600  1.13747493429343 -2.70524134923492
 1  6.32915093129313  1.47812393739374 -0.16790698179818
 1  6.12581062576258 -0.19636952655265  0.67422512991299
 1  7.27751453635364 -1.35446217081708 -1.28910967056706
 1  7.67654719721972  0.59510153075308 -1.87284211321132
 1  9.13760924832483  0.72182102340234  0.26141628992899
 1  8.61988505130513 -0.96281043254325  0.83028584098410
 1  9.76248891749175 -0.14311175447545 -1.91199577457746
 1  9.12018233443344 -2.35672436563656 -1.85094364216422
 1  10.85100013111311 -2.54374597439744 -1.91748235313531
 1  9.99306432653265 -2.70255194079408 -0.22802107140714
 1  11.30439573697370  0.66186496659666  0.24838342354235
 1  11.21609757325733 -0.99907514401440  1.02180211041104
 1  12.91725643624362 -1.57990956215622 -0.91370458345835
 1  12.53951210341034  0.02782270327033 -1.71201273497350
 1  13.78911006590659  0.84214392519252  0.46700961186119
 1  13.73217744474447 -0.71788821662166  1.17338418431843
 1  15.06482882708271  0.17848905500550 -1.57795980928093
 1  14.93049860276028 -2.20633321512151 -1.59278861206121
 1  16.71091496499650 -1.80926496309631 -1.24878066196620
 1  15.61887716651665 -2.62791792439244 -0.00051077967797
 1  15.76977725092509  1.41361793209321  0.93063352235224
 1  16.67607226402640 -0.37776715341534  1.38839226182618
 1  18.20822204390439 -0.41123533403340 -0.20784065186519
 1  17.57341192679268  1.11305319361936 -1.18207664016402
 1  18.43642833233323  2.53621001690169  0.81816720642064
 1  18.74030628482848  0.81597740724072  1.71944909490949
 1  20.40713704610461  0.41714967596760 -0.02945178897890
 1  20.13483083968397  3.25942421252125 -1.04317622002200
 1  21.20733797749775  2.06421449114911 -1.75467857445745
 1  19.57330230323032  1.76244186588659 -2.15223740524052
 1  20.94044928142814  1.40165163316332  2.22972400900090
 1  21.95365822302230  1.98410843824382  1.12286644374437
 1  20.58796842624263  3.16058925852585  1.78226696459646
 1 -7.27975980908091  1.67606647984798  0.45375722182218
 1 -7.24438598699870 -0.15466564256426 -0.52813294089409

