%nproc=3
%Mem=2GB
# td=(NStates=1) B3LYP/SVP 

TD

0 1
 6 -5.19820751885189 -1.90898714081408  0.48532340824082
 6 -4.66880719971997  2.64271072277228  1.43196958285829
 6 -9.19129903960396  3.46889768896890 -0.23890235813581
 6 -9.76912496699670 -1.35072587598760 -0.99900245364536
 7 -5.17571673397340  0.32037366026603  0.86576501350135
 6 -4.55452406850685 -0.80769749074907  0.88198164156416
 6 -3.08674836133613 -0.71981841654165  1.42136713251325
 6 -3.02738770417042  0.78098699099910  1.88689779557956
 6 -4.35859505260526  1.31419123702370  1.42479607660766
 6 -2.99466803530353  0.77976548884888  3.50272813541354
 6 -2.03514558525853 -0.92877283898390  0.36190413601360
 6 -0.61641485368537 -1.06908512511251  0.74817727042704
 6  0.41591525292529 -1.36073294619462 -0.46212777037704
 8  0.13995576317632 -1.85597796439644 -1.43804741624162
 8  1.65087528462846 -1.13426019911991 -0.00753319601960
 7 -7.00363495809581  2.82682995479548  0.57634714391439
 6 -5.84847642304230  3.34307872617262  1.04533539043904
 6 -6.04521770747075  4.74171061056106  1.05398189098910
 6 -7.38535763256326  5.00528936443644  0.48013454085409
 6 -7.97114806070607  3.69372786648665  0.23313346874687
 6 -5.06824734123412  5.74625014011401  1.51050231623162
 6 -7.93474075677568  6.31648566016602  0.37767626892689
 6 -8.80843874207421  6.69728945084508 -0.58524100290029
 7 -9.18092629322932  0.98289552255226 -0.54777724612461
 6 -9.81049491239124  2.20570306900690 -0.65316458565857
 6 -11.10406427292729  2.04625818681868 -1.14693852775278
 6 -11.33654760526053  0.67876521662166 -1.36315126982698
 6 -10.11458368406841 -0.01228117981798 -1.07622086458646
 6 -12.13408190909091  3.04648314991499 -1.39323241354135
 6 -12.58413615311531 -0.10369284878488 -1.79609056875688
 6 -12.59625975667567 -0.52273553795380 -3.32601077237724
 7 -7.53150210781078 -1.21097278247825 -0.14014254275428
 6 -8.60969255675568 -1.95333406020602 -0.69001236363636
 6 -8.19657209620962 -3.39881676387639 -0.80718328562856
 6 -6.89207411651165 -3.36540336863686 -0.29792741664166
 6 -6.48682978637864 -2.01291411001100  0.11690676687669
 6 -9.07894065166517 -4.46362711221122 -1.14594358875888
 6 -5.85230217541754 -4.25237027212721 -0.01522057645765
 8 -5.74483397359736 -5.49999953005300 -0.07359462536254
 6 -4.67662529112911 -3.38110887248725  0.52940200230023
 6 -4.11400519841984 -3.94746884038404  1.84277080278028
 8 -4.38547362086209 -3.50956889078908  2.83990205830583
 8 -3.28633732133213 -4.96702167506751  1.56629705760576
 6 -2.88960366416642 -5.62668211431143  2.78964110371037
 6  2.65286745534553 -1.20245414301430 -0.96959098489849
 6  3.95595884268427 -0.83105360776078 -0.45114721482148
 6  4.97595985258526 -0.10375932103210 -1.00169412601260
 6  4.74097329302930  0.53081381308131 -2.36309342614261
 6  6.14400614581458  0.24805254445445 -0.26781569576958
 6  7.44657589798980 -0.35070125302530 -0.88315518241824
 6  8.76240784188419 -0.08458244334433 -0.13350169766977
 6  10.05948687438744 -0.59582390899090 -0.75329268406841
 6  9.94921095969597 -2.07369117201720 -0.84373365826583
 6  11.22932678287829  0.03126881218122  0.01485092939294
 6  12.59419109330933 -0.28125344254425 -0.60716523962396
 6  13.73534212361236  0.21980475427543  0.29040109560956
 6  15.17913682548255  0.01591070957096 -0.53938749664966
 6  15.54661423322332 -1.40270913631363 -0.65925469376938
 6  16.21021176547655  0.83830834813481  0.20220924322432
 6  17.67682257105711  0.88375129282928 -0.36472037343734
 6  18.60298122242224  1.90879520842084  0.47340815701570
 6  20.09792169376938  1.62157996259626  0.10506223372337
 6  20.38811951085108  2.02951952805281 -1.38049612741274
 6  21.04616713801380  2.41707304610461  0.96301809000900
 1 -3.93818147844785  3.44322555455546  1.95521040194019
 1 -9.95217307040704  4.30509775187519 -0.16035735843584
 1 -10.45719997639764 -2.12940009550955 -1.41049052215222
 1 -2.85504783178318 -1.34866410161016  2.31049192489249
 1 -2.12737405190519  1.30117034023402  1.44030694289429
 1 -1.87816807480748  0.54918128652865  3.84882398639864
 1 -2.91677716961696  1.81836688638864  3.91293148834884
 1 -4.12115171207121  0.35240042454245  3.89343451965196
 1 -2.21115662406241 -2.00350508360836 -0.30718516571657
 1 -2.12550588998900 -0.15777958695870 -0.34655134933493
 1 -0.04424024382438 -0.19815596199620  1.17208757005701
 1 -0.28709904920492 -1.82751471007101  1.37184469286929
 1 -4.03694851135113  5.71295566366637  0.99041184098410
 1 -5.44342954935494  6.80353526822682  1.55462475707571
 1 -4.86578466526653  5.34235227922792  2.64096823082308
 1 -7.85023003240324  6.87732760726073  1.22445399929993
 1 -9.06335168706871  6.13510367086709 -1.43353493959396
 1 -9.14752949954995  7.91683041054106 -0.57632785568557
 1 -12.48110247224722  3.61623081028103 -0.46262407550755
 1 -11.86827067536754  4.11524548194819 -1.83291260806081
 1 -12.87840886368637  2.69500733643364 -2.10651500690069
 1 -12.84927730093009 -0.99536846354636 -1.32684743584358
 1 -13.44240126462646  0.49791394609461 -1.58190054885489
 1 -12.57833346324632  0.50321713481348 -3.86233357765777
 1 -11.69251421942194 -1.21647922152215 -3.76240519261926
 1 -13.62066882038204 -0.96912600740074 -3.65270281258126
 1 -9.87969451825183 -4.73000232003200 -0.34599690169017
 1 -9.67936191509151 -4.09122706870687 -2.14567146534653
 1 -8.51173634833483 -5.39579784678468 -1.13940189568957
 1 -4.00670252165217 -3.65778206840684 -0.18521987058706
 1 -2.67138753175318 -6.85377047274728  2.50846418051805
 1 -1.99086753315331 -4.97822130603060  3.08702314491449
 1 -3.79793280968097 -5.54826991859186  3.51373824942494
 1  2.83854776227623 -2.40906855035504 -1.16117728472847
 1  2.40928582308231 -0.73385096589659 -1.88344611181118
 1  4.22076484818482 -1.62600491479148  0.46550445344534
 1  5.23424525372537  1.56289879887989 -2.30454517431743
 1  5.33164978217822 -0.23677771527153 -3.06137753935394
 1  3.74797491569157  0.71002218901890 -2.66398722382238
 1  6.40221823802380  1.30697682268227 -0.16871706280628
 1  6.23082112681268 -0.13617350695070  0.84931263866387
 1  7.24424120902090 -1.37924464906491 -0.91908266786679
 1  7.58035757825783 -0.03210118951895 -1.91568639763976
 1  8.73362885028503  1.14345318661866  0.13401354965496
 1  8.58838190099010 -0.61894604610461  0.73290610301030
 1  10.19585225382538 -0.13715115841584 -1.87672224722472
 1  9.37842815901590 -2.57059575277528 -1.59973852165217
 1  10.99476450755076 -2.56376797659766 -1.11096170107011
 1  9.97491251135114 -2.56113779937994  0.10609233993399
 1  10.98491378877888  1.14680346044604 -0.05795721052105
 1  11.30304626812681 -0.26426166266627  1.12080201040104
 1  12.87002171277128 -1.26481805300530 -0.77125033803380
 1  12.74210236243624  0.03745366636664 -1.55105663936394
 1  13.87917907280728  1.24742445324532  0.57829073997400
 1  13.95813004000400 -0.37253368116812  1.20232707860786
 1  15.15135747994800  0.33994520062006 -1.62029404270427
 1  14.86930248314831 -2.05328791059106 -1.28209754295430
 1  16.57921179467947 -1.38748278487849 -1.26372215611561
 1  15.57246252505250 -1.93062819541954  0.44771404280428
 1  15.90647092029203  1.80806737703770  0.25839629862986
 1  16.09272392919292  0.51958258155816  1.17322074467447
 1  18.06957817951795 -0.12228643914391 -0.26484635243524
 1  17.68896348194820  1.07147903620362 -1.38804723722372
 1  18.28279296879688  3.01545794169417  0.16310169986999
 1  18.38519077327733  1.51276708620862  1.53363051305130
 1  20.35596192859286  0.50369833083308  0.04796595279528
 1  20.18247560416042  3.22116038613861 -1.28047995039504
 1  21.34435167886789  1.96223429312931 -1.64937804440444
 1  19.92078705170517  1.55722134383438 -2.30282246374637
 1  20.92232746924693  2.45983745174517  2.12927396399640
 1  22.16222908010801  2.10514054145415  0.67765192229223
 1  20.93688331773177  3.56570977057706  0.87780651855185
 1 -7.17865969906991  1.73400227342734  0.54807665376538
 1 -7.54725627402740 -0.21832200820082 -0.02026215381538

