%nproc=3
%Mem=2GB
# td=(NStates=1) B3LYP/SVP 

TD

0 1
 6 -5.27192489058906 -1.91623786588659  0.58972384828483
 6 -4.77152747174717  2.71359781148115  1.53752013791379
 6 -9.20838074777478  3.44149494869487 -0.39654812271227
 6 -9.85733378787879 -1.25808661206121 -0.94738729212921
 7 -5.18278744104410  0.55587721062106  0.84977341434143
 6 -4.68253686978698 -0.68669539053905  0.88907235063506
 6 -3.13906359285929 -0.63664009870987  1.34974997079708
 6 -3.05422038743874  0.76322521482148  1.97383648944894
 6 -4.36695588868887  1.35189500740074  1.39536313331333
 6 -3.10968953745375  0.77349486178618  3.53561142374237
 6 -2.06563863456346 -1.03491345304530  0.19883782938294
 6 -0.63631684388439 -1.08139635623562  0.63029548224822
 6  0.31666532793279 -1.09490636353635 -0.54581613921392
 8 -0.02478071047105 -1.43023539013901 -1.70845445694569
 8  1.68520871797180 -1.06106287938794 -0.10234267696770
 7 -6.92657725232523  2.79562683448345  0.36362587178718
 6 -5.87347892329233  3.44345876417642  0.97153801070107
 6 -6.05633881958196  4.82742918241824  1.04698119091909
 6 -7.40984008080808  5.02412124762476  0.52042857025703
 6 -7.90525147104711  3.70131862556256  0.04252440784078
 6 -5.22356287278728  5.78137365246525  1.70642190819082
 6 -8.13575085778578  6.21078509010901  0.49089759105911
 6 -8.99129702790279  6.70526024792479 -0.45217769656966
 7 -9.10879908050805  1.01588882188219 -0.71241370977098
 6 -9.81157502040204  2.22431493019302 -0.64688395759576
 6 -11.14714858135814  2.09078263926393 -1.21938577247725
 6 -11.37211116161616  0.75096243634363 -1.37064201890189
 6 -10.10203242894289  0.09726977527753 -0.91775501800180
 6 -12.03442194309431  3.16795529712971 -1.41123421372137
 6 -12.49396713621362 -0.16660914041404 -1.84224518421842
 6 -12.69525965666567 -0.39830309470947 -3.24723289458946
 7 -7.59066802440244 -1.25919760496050 -0.21885041354135
 6 -8.64601618911891 -1.91590031683168 -0.62337569997000
 6 -8.31680411941194 -3.36296317851785 -0.58201076837684
 6 -6.96095100420042 -3.34167099539954 -0.17705532943294
 6 -6.50211131453145 -2.03477629622962  0.05450052625263
 6 -9.20135289288929 -4.42375312481248 -0.92811180558056
 6 -5.79072601780178 -4.29367440254025  0.13195414101410
 8 -5.83871336153615 -5.49454898499850 -0.10320758665867
 6 -4.66445407400740 -3.32805356695670  0.54251331343134
 6 -4.06811060896090 -3.91668576207621  1.84119064476448
 8 -4.34283935743574 -3.45373330723072  2.94853292139214
 8 -3.35649433703370 -4.93682865576558  1.73537396529653
 6 -2.75371007480748 -5.67136658275828  2.71263340294029
 6  2.70654282288229 -1.32781667926793 -1.14383840964096
 6  3.98583182998300 -0.93862436483648 -0.46638873897390
 6  4.98528078467847 -0.19382832793279 -0.92895685228523
 6  5.01555075077508  0.42972370407041 -2.32527964476448
 6  6.36924867006701 -0.03616587738774 -0.24224313851385
 6  7.55140638103810 -0.69387557045705 -0.90655752265227
 6  8.93631523262326 -0.54060804590459 -0.14030237773777
 6  10.23645457115712 -0.98667299389939 -0.76688404320432
 6  10.23658969756976 -2.52406620952095 -1.03894317921792
 6  11.35420927112711 -0.48709302400240  0.01099054335434
 6  12.74843651785179 -0.52869818701870 -0.69328385148515
 6  13.89062765216522  0.09274204800480  0.05889794529453
 6  15.28729764156416 -0.11212209370937 -0.56380993889389
 6  15.74954452625262 -1.48291715711571 -0.80169893819382
 6  16.28558930323032  0.70251476877688  0.43230225252525
 6  17.67504239303931  1.11030394809481 -0.26077997939794
 6  18.59952087638764  1.88625295419542  0.59137995419542
 6  20.08857075867587  2.09890769536954  0.03618534603460
 6  20.03620431933193  2.78000457655766 -1.35177325512551
 6  20.93516603790379  2.89206054485449  1.09459124732473
 1 -4.29315697599760  3.39225045704570  2.09306418731873
 1 -9.62362021512151  4.43070031213121 -0.61034235693569
 1 -10.61228548494849 -1.83013016851685 -1.42426189928993
 1 -3.01040336733673 -1.38586782198220  2.22429330503050
 1 -2.11646296079608  1.52391261446145  1.70688360056006
 1 -2.15041529952995  0.52176854525453  3.87698680268027
 1 -3.42330782268227  1.66983203290329  3.88150834603460
 1 -3.99667926482648  0.17121230573057  4.06604178037804
 1 -2.60780628902890 -1.97906263936394 -0.11674612181218
 1 -2.07074041344134 -0.27798160716072 -0.44027072127213
 1 -0.12347816761676 -0.26013215961596  1.17958832013201
 1 -0.27538787808781 -1.96876883548355  1.07331483988399
 1 -4.23126794329433  5.63275764386439  1.07955075487549
 1 -5.56627183358336  6.72309722442244  1.68850814541454
 1 -5.24306239303930  5.34896294029403  2.77020115411541
 1 -7.75072008140814  6.97248712321232  1.25031658555856
 1 -9.10427577947795  6.20244040454045 -1.50620220632063
 1 -9.44423917051705  7.78775750325033 -0.49036925982598
 1 -12.37598196019602  3.58019720692069 -0.36581439453945
 1 -11.52282613091309  3.99695365276528 -2.00245956275628
 1 -13.05674669746975  2.85141297699770 -1.95071942734273
 1 -12.62227460066007 -1.07871679837984 -1.13884863596360
 1 -13.44736176067607  0.30507466216622 -1.64976733553355
 1 -12.46581221112111  0.56995380848085 -3.62178952325232
 1 -11.93271823982398 -1.06199377297730 -3.71455040714071
 1 -13.67365411891189 -0.86844593939394 -3.51967951025103
 1 -9.93545009380938 -4.81582090189019 -0.10137243924392
 1 -9.62001598049805 -4.28987693369337 -1.91683858205821
 1 -8.47373254795479 -5.38213648064806 -1.04569252475248
 1 -3.88039989138914 -3.42963925412541 -0.25562691129113
 1 -2.05939633263326 -6.40044514021402  2.11393472757276
 1 -1.81071951835184 -5.16064954885489  3.32659710231023
 1 -3.42059507590759 -6.32927801940194  3.52854973057306
 1  2.67923183068307 -2.58731637513751 -1.25110627762776
 1  2.52362725722572 -0.90187776857686 -2.12517028422842
 1  3.92905567726773 -1.57058937323732  0.46633453645365
 1  5.39433126232623  1.48643115211521 -2.02749746954695
 1  5.62009862706271 -0.12948698619862 -2.94342574417442
 1  4.11710182838284  0.37864905170517 -2.67599842494249
 1  6.60399841604160  1.04870099509951  0.07658746764677
 1  6.05667371207121 -0.48184807440744  0.76677438483848
 1  7.39503628852885 -1.90060678527853 -0.90381114071407
 1  7.80654019651965 -0.54542252165217 -1.89655448444844
 1  9.14196968436844  0.50054889618962  0.07597774607461
 1  8.87040010281028 -0.95033918541854  0.87130994339434
 1  10.26685935453545 -0.41358880218022 -1.75796037103710
 1  9.45157547374738 -2.77338603180318 -1.79186773457346
 1  11.23143817491749 -2.81040264006401 -1.34118472337234
 1  10.05341036113611 -3.06272795839584 -0.12714098339834
 1  11.39939523692369  0.67648642874287  0.29121770697070
 1  11.34737070057006 -0.94236947344734  0.96975690589059
 1  12.93644835543554 -1.60421199239924 -0.86248946194619
 1  12.37682583478348  0.03398331933193 -1.66698823252325
 1  13.82811396629663  1.04242395319532  0.15766867776778
 1  13.99518374537454 -0.37639406720672  1.09538638453845
 1  15.45993833803380  0.35225643174317 -1.51366337963796
 1  14.96089164206420 -1.78155073687369 -1.64452378557856
 1  16.89193306680668 -1.49241327792779 -1.15489127302730
 1  15.80386566536654 -2.15363049564957  0.25572484388439
 1  15.60284055725573  1.48880545084508  0.74191465046505
 1  16.44632928972898  0.14712533583358  1.48491191379138
 1  18.20593181488149  0.06433222272227 -0.45191505930593
 1  17.56068065366537  1.64537642594259 -1.11814024652465
 1  18.08978366786679  2.83477987388739  1.09385477517752
 1  18.80721297549755  1.41504731423142  1.53452060206021
 1  20.44885121752175  1.05673363436344  0.01801295749575
 1  19.39335669226923  3.74712298239824 -1.09494139653965
 1  21.01369861356136  3.26083415311531 -1.76935004160416
 1  19.67823279627963  1.95840146184618 -2.07733991549155
 1  20.90726596309631  2.44214568256826  2.03354439103910
 1  21.98867172437244  2.74997502490249  0.71247540464046
 1  20.54430405980598  3.87724092369237  1.30177891579158
 1 -7.11729356245625  1.76991586478648  0.28810065616562
 1 -7.51740328872887 -0.10834101010101  0.06001587398740

