%nproc=3
%Mem=2GB
# td=(NStates=1) B3LYP/SVP 

TD

0 1
 6 -5.07678537663766 -1.97556379847985  0.44308918481848
 6 -4.60880119911991  2.72405885758576  1.42946933283328
 6 -9.21198110781078  3.43158395759576 -0.14899336723672
 6 -9.81333938843884 -1.31699250265027 -0.90793334673467
 7 -5.15497465976598  0.45691731463146  0.81531996899690
 6 -4.48187680378038 -0.81334805580558  0.80402384578458
 6 -3.08113780028003 -0.61891832653265  1.26617161296130
 6 -2.96862182758276  0.80442933523352  1.83945305110511
 6 -4.33120231333133  1.44685450335033  1.26898049504950
 6 -2.96209477797780  0.69000651295130  3.37113497609761
 6 -2.00309237993799 -0.94818478017802 -0.00124217861786
 6 -0.56583979617962 -1.00276849344934  0.39723217591759
 6  0.37268092949295 -1.18205507840784 -0.66511806940694
 8  0.08294006160616 -1.41846421302130 -1.81676528802880
 8  1.65852604970497 -1.08982575567557 -0.19603204590459
 7 -7.00935553015302  2.72459973177318  0.55053456265627
 6 -5.84243581898190  3.30285470377038  0.94316517341734
 6 -6.14279746544654  4.71473791329133  1.06361285408541
 6 -7.46820591739174  4.98891772727273  0.53278980638064
 6 -7.94423536943694  3.64291278497850  0.22722287768777
 6 -5.20199071557156  5.66846236133613  1.70755202120212
 6 -8.01502878557856  6.29920393199320  0.39004750605060
 6 -8.90705860406040  6.67198692059206 -0.57456993579358
 7 -9.17691589218922  0.97514474747475 -0.47612008040804
 6 -9.78029189208921  2.10328282698270 -0.49272854205421
 6 -11.19796366286629  1.96801036203620 -1.03293712761276
 6 -11.38783273377338  0.67827516761676 -1.26073102780278
 6 -10.14083630933093  0.01422147044704 -0.89943318581858
 6 -12.15275377627763  3.09527802940294 -1.32557564786479
 6 -12.65220295979598 -0.01881436093609 -1.71118207790779
 6 -12.63106323702370 -0.39864312871287 -3.23273144444444
 7 -7.54621357895790 -1.19658134333433 -0.16278480698070
 6 -8.67455904340434 -1.95497422422242 -0.57796115851585
 6 -8.24999743874388 -3.35203208540854 -0.57589015631563
 6 -6.93633854295429 -3.36115294359436 -0.23527115101510
 6 -6.46360746414642 -2.06255907450745  0.05917099329933
 6 -9.05621837943794 -4.49617036653665 -0.81242023642364
 6 -5.78084502970297 -4.30830586568657  0.01469241484148
 8 -5.93100259045905 -5.52795232533253  0.12357509160916
 6 -4.58579620822082 -3.44929569116912  0.42624168626863
 6 -4.02521631953195 -3.85404949844984  1.80642716841684
 8 -4.11331640514051 -3.37741567546755  2.85088315641564
 8 -3.04152283988399 -4.86087106000600  1.48746917481748
 6 -2.54605930973097 -5.57005645174517  2.61798393799380
 6  2.70936310491049 -1.15761965956596 -1.29348337413741
 6  3.98338158495850 -0.75990649304930 -0.61349344944494
 6  4.96720897749775 -0.04812375747575 -1.23183714031403
 6  5.01257045274527  0.53066379807981 -2.58739585638564
 6  6.19122086728673  0.13662140134013 -0.42959187338734
 6  7.43672491289129 -0.69019520242024 -0.96630349724972
 6  8.69591119221922 -0.15473945904590 -0.11722006950695
 6  10.02711363706371 -0.71092541914191 -0.71659901470147
 6  10.03266930553055 -2.23291709460946 -0.93957324222422
 6  11.19773362356236 -0.24226854155416  0.09706915121512
 6  12.57161883608361 -0.54817013421342 -0.43425794889489
 6  13.87416600600060 -0.00442766896690  0.41538359385939
 6  15.22228113991399 -0.16211709320932 -0.26632018991899
 6  15.58973854565456 -1.68839770517052 -0.09457822612261
 6  16.17020776507651  0.70716523382338  0.58984800710071
 6  17.48549343814382  0.93303622132213 -0.11139504090409
 6  18.60091101540154  1.78508283718372  0.55562637883788
 6  20.00459236083608  1.87694549914992 -0.03508178067807
 6  19.89663036193619  2.38647522362236 -1.50138821662166
 6  20.89408192949295  2.71949328812881  0.81624341254125
 1 -3.84319197949795  3.29531076307631  1.83674855575558
 1 -9.81322917601760  4.22462970507051 -0.37413873657366
 1 -10.56116037243724 -2.03821097659766 -1.04049352245225
 1 -2.69880220722072 -1.29796903210321  2.11506238193819
 1 -2.02226354085408  1.46385660886089  1.54952786498650
 1 -2.06399665766577  0.30861723012301  3.58853795779578
 1 -2.80920641254125  1.72741779147915  3.87813800900090
 1 -3.74136373327333  0.05045022952295  3.59284446064606
 1 -2.30484599299930 -1.80523525662566 -0.70122456965697
 1 -2.13156649604961 -0.07407121612161 -0.71695839003900
 1 -0.09888570837084 -0.34340048644864  1.26245660696070
 1 -0.53567390669067 -1.81198315691569  1.02715022342234
 1 -4.19556437293729  5.83196756485648  1.26727952775278
 1 -5.55444065046505  6.73783869856986  1.70380967556756
 1 -5.07536562336234  5.60718876287629  2.93598773277328
 1 -7.46212122152215  7.28835871037104  1.00402195609561
 1 -9.03198855075508  5.75880604110411 -1.33413499959996
 1 -9.30831557815782  7.63172189968997 -0.78483870677068
 1 -12.33728809080908  3.66988617581758 -0.40191800490049
 1 -11.53087693599360  3.74687864526453 -2.14140345714572
 1 -13.11700272307231  2.77762559825983 -1.65174953035304
 1 -12.95852822602260 -0.98545747244724 -1.21826657775778
 1 -13.39912693719372  0.73397755245525 -1.58616097489749
 1 -12.37417304720472  0.49672648574858 -3.79791713601360
 1 -12.00397536553655 -1.55562313591359 -3.58415736783678
 1 -13.76282303580358 -0.73625272007201 -3.49514705700570
 1 -9.68024457325733 -4.54194351415141  0.09657735573557
 1 -9.60986496539654 -4.43080102610261 -1.78471536973697
 1 -8.49756493119312 -5.58036630363036 -1.04500245574557
 1 -3.83653550495050 -3.56375266546655 -0.39241058965897
 1 -1.93435382838284 -6.42853794949495  2.13920725482548
 1 -1.74585303170317 -4.95412889678968  3.15275971857186
 1 -3.39628264466447 -6.03091818341834  3.26592346794680
 1  2.63520742824282 -2.05935357885789 -1.80547171417142
 1  2.41602649714972 -0.53831141194119 -2.17960572777278
 1  4.21061383308331 -1.09007132143214  0.48651655465547
 1  5.13368519771977  1.63005551455146 -2.28680340014001
 1  5.88928554575458  0.14867082958296 -3.06549795139514
 1  3.88143826202620  0.40470165696570 -2.85571639673967
 1  6.63760177637764  1.09340546554656 -0.31801199229923
 1  5.96106415111511 -0.16403629322932  0.58675638303830
 1  7.25925271017102 -1.75213193779378 -0.79313007260726
 1  7.51896143864386 -0.60602858225823 -2.06413124212421
 1  8.77746323372337  0.94533337463746 -0.23852370407041
 1  8.72928599139914 -0.19541369286929  0.95780859325933
 1  10.26125879447945 -0.37865530883088 -1.57028160316032
 1  9.30567088328833 -2.49885857905791 -1.73104165196520
 1  10.92983801490149 -2.50786238603860 -1.44884548944894
 1  10.07346236633663 -2.92841452705270 -0.08881715101510
 1  11.10246554395440  0.92387116721672  0.33349193439344
 1  11.25838180168017 -0.67858309480948  1.09794972517252
 1  12.83603831443144 -1.60989256045605 -0.59744295729573
 1  13.08623677587759 -0.31110118911891 -1.47397893159316
 1  13.49258041294129  1.10357006780678  0.65963887478748
 1  13.74335856285628 -0.46288271607161  1.38294514041404
 1  15.31035337953795 -0.00776957085709 -1.35824783808381
 1  14.83716926982698 -2.22586516831683 -0.59189852305230
 1  16.63049692319232 -1.69425346194619 -0.56491227512751
 1  15.40747602640264 -1.85910104270427  1.12169144054405
 1  15.79802007520752  1.76517308760876  0.89383984298430
 1  16.29435409220922  0.32649327262726  1.70797422002200
 1  18.13570479217922 -0.06613082358236 -0.24614448224822
 1  17.17800238583859  1.07771966026603 -1.01860029252925
 1  18.40905559505951  2.91516791269127  0.33733912361236
 1  18.94374662886289  1.64746055555556  1.72640979097910
 1  20.36986331873187  0.77704566556656 -0.26441528532853
 1  19.65644300090009  3.44321259135914 -1.46882878527853
 1  20.92661990569057  2.28571664136414 -1.69564267086709
 1  19.23250822382238  1.72976859855986 -2.12407458895890
 1  21.29267450395040  2.11033250125013  1.59510054665467
 1  21.86267912511251  3.20670069746975  0.20049420652065
 1  20.33146277567757  3.64388758835884  1.12372111001100
 1 -7.25127696079608  1.71553042624262  0.43358520462046
 1 -7.47996954535454 -0.02214239023902 -0.09227935553555

