%nproc=3
%Mem=2GB
# td=(NStates=1) B3LYP/SVP 

TD

0 1
 6 -5.18569626772677 -1.95598184028403  0.37792266816682
 6 -4.79141946094609  2.76852330403040  1.30215660156016
 6 -9.40382029172917  3.18165896509651 -0.27454592249225
 6 -9.82274032853285 -1.56382718611861 -0.86339889328933
 7 -5.17677683998400  0.40028165106511  0.78630706770677
 6 -4.53257187328733 -0.70144686568657  0.72523596699670
 6 -3.04856454295430 -0.51424785948595  1.11837683348335
 6 -3.08752371777178  0.99631852415242  1.83136224202420
 6 -4.46897609070907  1.34020383828383  1.26767036403640
 6 -3.01854042254225  0.91694920722072  3.29651751435143
 6 -1.97911998269827 -0.67511747344734  0.00286823242324
 6 -0.53364657685769 -0.61355957255726  0.50000245294529
 6  0.45549921132113 -0.84709158205821 -0.67943950155016
 8  0.18591035863586 -1.04289665626563 -1.76715032653265
 8  1.71373157025703 -0.59767654075408 -0.21104354705471
 7 -7.15998059265927  2.73436070787079  0.42856236543654
 6 -5.97959953535354  3.36449086738674  0.96090694759476
 6 -6.27745093079308  4.81173761326133  0.94980147294729
 6 -7.55452454925492  4.96241507700770  0.43796032343234
 6 -8.13822476837684  3.65759425312531  0.15370552595260
 6 -5.37218773527353  5.78568408350835  1.57828909490949
 6 -8.18650593329333  6.24070808240824  0.26286478777878
 6 -9.20242814101410  6.58206792869287 -0.60231271007101
 7 -9.28535673627363  0.88676590959096 -0.38734120252025
 6 -9.96143000590059  2.02780527922792 -0.46817608680868
 6 -11.33668753525353  1.74069763076308 -0.99166300020002
 6 -11.43707765826583  0.39652699279928 -1.14627958265827
 6 -10.17058928462846 -0.14410436213621 -0.76867010951095
 6 -12.33894239513951  2.88448695029503 -1.27897098739874
 6 -12.71439917941794 -0.24523700320032 -1.51539249894990
 6 -12.67024715541554 -0.53535680008001 -3.17289546084608
 7 -7.53318227582758 -1.35523720892089 -0.26602513101310
 6 -8.53374496199620 -2.16680540734073 -0.66420978337834
 6 -8.23209564856486 -3.59446632883288 -0.50887345464546
 6 -6.79987489658966 -3.50405723402340 -0.22507013091309
 6 -6.43592469586959 -2.17053987258726 -0.02982790659066
 6 -9.11285404300430 -4.67756850635064 -0.72590158455846
 6 -5.70008695389539 -4.39351438653865  0.09669061466147
 8 -5.65089457965797 -5.64677420752075  0.15563829792979
 6 -4.53833146174617 -3.36229699129913  0.39144820692069
 6 -3.84438823672367 -3.79541363486349  1.73534005970597
 8 -4.04806988048805 -3.27608554245425  2.82485055315532
 8 -2.88896758435844 -4.73657863076308  1.51140156805681
 6 -2.44223892769277 -5.32505195129513  2.71639377897790
 6  2.77263943254325 -0.76424032163216 -1.14517854365437
 6  4.04564781158116 -0.50233073547355 -0.42912501260126
 6  4.97024928152815  0.26101715661566 -0.85630958755876
 6  4.76266546224622  1.11951268296830 -2.10549766656666
 6  6.35702744794479  0.44633237243724 -0.21576049024902
 6  7.62304354475448 -0.05672185508551 -0.97703457035704
 6  8.82044364546455 -0.06568055315532 -0.09565791329133
 6  10.04320524622462 -0.66864119071907 -0.82736009080908
 6  10.00375641424142 -2.21429523242324 -1.02465175007501
 6  11.29912376257626 -0.27613192789279 -0.05647620332033
 6  12.67540921512151 -0.52698801600160 -0.62328685178518
 6  13.87234582398240 -0.10532775897590  0.09863191869187
 6  15.28021693349335 -0.36753763526353 -0.55295885378538
 6  15.56717628942894 -1.83250211561156 -0.73148191649165
 6  16.34860560486049  0.26026054335434  0.47005602790279
 6  17.68739362816282  0.35791870957096 -0.04749865126513
 6  18.67319824412441  1.30832516141614  0.73618443464346
 6  20.07419932153215  1.48817662226223  0.12457418491849
 6  20.14949564846485  2.41458803490349 -1.16490456825683
 6  21.10505302660266  2.16092743154315  1.16887867606761
 1 -3.95558321862186  3.38254948694869  1.66669155005501
 1 -10.00640849394939  4.07407464956496 -0.53687501020102
 1 -10.53003726012601 -2.20319747524753 -1.39046851995200
 1 -2.87567989498950 -1.09952918811881  1.83632450815081
 1 -2.31130244474447  1.56896711991199  1.41953486568657
 1 -1.98868912691269  0.67356372477248  3.61183028702870
 1 -3.29421491339134  1.91321637133713  3.77510770597060
 1 -3.59781937883788 -0.00306512201220  3.61975715191519
 1 -2.11138664706471 -1.54816955005501 -0.63471791899190
 1 -2.19779311871187  0.16422261326133 -0.83256995119512
 1 -0.36478229802980  0.29005285888589  1.04341470277028
 1 -0.33584392369237 -1.63009496809681  1.10849835823582
 1 -4.45565038153815  5.67678204630463  0.90986378617862
 1 -5.61597680408041  6.89086400110011  1.61202049664966
 1 -4.82357044384438  5.13066111011101  2.61742587658766
 1 -8.03254826422642  7.01205107960796  1.00933248714871
 1 -9.50737608950895  5.87034719521952 -1.32095368146815
 1 -9.47946269286929  7.66908563606361 -0.61251147404740
 1 -12.61030539253925  3.42303149034903 -0.36211402450245
 1 -12.04500834913491  3.70439439683968 -2.02512182898290
 1 -13.43841486428643  2.57698553425343 -1.81483583898390
 1 -12.78579095229523 -1.17428635533553 -1.03865861696170
 1 -13.53541056555656  0.25200935563556 -1.47317967676768
 1 -12.55795142504250  0.49609642274227 -3.47965530983098
 1 -11.74772974097410 -1.21696927052705 -3.17737668976898
 1 -13.61253800730073 -1.25857495229523 -3.51360890319032
 1 -10.05990253905391 -4.68658797859786  0.09916761476148
 1 -9.55107908680868 -4.76185413141314 -1.72558945714571
 1 -8.56386156085609 -5.63681194819482 -0.58861681718172
 1 -3.80439229062906 -3.48881517171717 -0.42170351895189
 1 -2.06076646964696 -6.33821891759176  2.28200153425343
 1 -1.83910235663566 -4.67211069496950  3.29955439803980
 1 -3.27508052445245 -5.58014310591059  3.33391026662666
 1  2.51672558005801 -1.71578922242224 -1.60079124612461
 1  2.50679557405741 -0.07051463226323 -2.00171793899390
 1  4.37527029872987 -0.90423273757376  0.64829273227323
 1  5.23151498069807  2.05596810581058 -2.01323604340434
 1  5.26800341754175  1.00882684518452 -3.11000240184018
 1  3.52490260846085  1.42330351715172 -2.34685551065106
 1  6.43233124932493  1.58943506850685 -0.27989818091809
 1  6.48274631933193  0.03625373577358  0.83017072447245
 1  7.41794857975797 -1.08574529912991 -1.55091585118512
 1  7.68373791629163  0.58619063966397 -1.79314414341434
 1  9.07038252565256  0.88521736303630  0.20140028832883
 1  8.57024008680868 -0.62763691519152  0.72540535293529
 1  10.14257692629263 -0.46126356965697 -1.83176775177518
 1  8.90738105430543 -2.61987068026803 -1.54673322112211
 1  10.99119415051505 -2.57223882368237 -1.63349395429543
 1  9.97109212931293 -2.83938562416242  0.08530026072607
 1  11.19265456285629  0.84810359045905  0.29257784298430
 1  11.23115907940794 -0.74873010951095  0.75381531173117
 1  12.84197890849085 -1.65988755995600 -0.96289950295029
 1  12.60766891909191 -0.00656073507351 -1.72769430313031
 1  13.64278543344334  0.88590830163016  0.42194510541054
 1  13.87676190319032 -0.69742617041704  1.19141598749875
 1  15.37498984318432  0.23473467956796 -1.50494250755075
 1  14.68361391429143 -2.21258384018402 -1.36413574677468
 1  16.58084195769577 -2.13742777937794 -1.24930071397140
 1  15.51873715251525 -2.36529166176618  0.32064133553355
 1  16.01596186938694  1.33746031633163  0.74166462546255
 1  16.31690634743475 -0.08039741644164  1.58380180278028
 1  18.04921614331433 -0.68687289778978 -0.09894976277628
 1  17.70401498709871  0.81314320262026 -1.12982141464146
 1  17.98788347784778  2.36865326122612  0.95960134983498
 1  18.78261051525153  1.09883569306931  1.65688283828383
 1  20.80472680508051  0.59324728572857 -0.18702754655466
 1  19.37847520412041  3.38681695179518 -1.08030993339334
 1  21.20887813151315  2.89079714941494 -1.43448655525553
 1  19.86986195919592  1.80002562426243 -2.21289347084708
 1  21.30980621712171  1.61548301630163  2.11825286188619
 1  22.12316517371737  2.29740976837684  0.65859001610161
 1  20.69618924832483  3.23738693829383  1.41666040394039
 1 -7.04123595669567  1.75122399559956  0.48597044314431
 1 -7.61583313171317 -0.42431260726073 -0.09238936653665

