%nproc=3
%Mem=2GB
# td=(NStates=1) B3LYP/SVP 

TD

0 1
 6 -5.16886458455846 -1.87104334643464  0.40507538343834
 6 -4.70823114211421  2.81205765746575  1.53977036293629
 6 -9.22083199289929  3.27467826702670 -0.17372584048405
 6 -9.83439149364937 -1.36610741414141 -1.09167172057206
 7 -5.22558172047205  0.46571819471947  0.80428886588659
 6 -4.54785340144014 -0.69173589458946  0.82622606600660
 6 -3.08018770527053 -0.53420985568557  1.27085208100810
 6 -3.11604657005701  0.81641053335334  1.90893999979998
 6 -4.43340253335333  1.44800461836184  1.32838643564356
 6 -3.01506007450745  0.84264177647765  3.52873073567357
 6 -2.07607967866787 -0.85377533923392  0.15344328992899
 6 -0.58050126232623 -0.89291750835084  0.66768922162216
 6  0.40173383478348 -1.28956582948295 -0.41406296389639
 8  0.20723249084908 -2.06522888948895 -1.40659427092709
 8  1.69411960906091 -0.78931570467047 -0.14446688938894
 7 -6.92191678627863  2.86529380118012  0.43570307950795
 6 -5.88284986038604  3.45058947724772  1.06055691259126
 6 -6.18022120782078  4.87330376987699  1.04922141494149
 6 -7.44594369116912  4.98861769726973  0.49112563996400
 6 -7.92569351525153  3.68296679037904  0.16244640004000
 6 -5.16624714121412  5.85874138923892  1.48619988598860
 6 -8.03439072177218  6.39454346594659  0.35236373767377
 6 -8.90474837303730  6.65587530943094 -0.65480795959596
 7 -9.19732793339334  0.98531576457646 -0.54940740914091
 6 -9.83961782468247  2.12431493019302 -0.51953122232223
 6 -11.27445131163116  1.88838239923992 -0.84074790869087
 6 -11.38547249774977  0.60204754485449 -1.12693764846485
 6 -10.06450867656766 -0.06824677637764 -0.93027627012701
 6 -12.28467696859686  3.05265376697670 -0.92488557885789
 6 -12.66560429992999 -0.06213869336934 -1.57762872257226
 6 -12.74931506220622 -0.26059932433243 -3.21802997429743
 7 -7.58964792239224 -1.24505619081908 -0.23390191869187
 6 -8.62200378787879 -2.04552327912791 -0.73676703910391
 6 -8.21454389338934 -3.42098898109811 -0.68882144944494
 6 -6.96153106220622 -3.40720754905491 -0.26239386328633
 6 -6.53935503890389 -2.01626444504450  0.05880095629563
 6 -9.08420117771777 -4.62045279477948 -1.11642063646365
 6 -5.75289223442344 -4.18980401550155 -0.05481453585359
 8 -5.72947243744374 -5.40292982308231 -0.33908117401740
 6 -4.61469909850985 -3.26726748834883  0.46053511561156
 6 -4.05535933383338 -3.76949104260426  1.72738926462646
 8 -4.23796887038704 -3.28498643254325  2.82926099419942
 8 -3.19677836543654 -4.84969994289429  1.50718114601460
 6 -2.74636934073407 -5.56566601270127  2.58630076967697
 6  2.69062123072307 -1.21832573017302 -1.04919894569457
 6  4.01165441224122 -0.95486598899890 -0.43680578067807
 6  4.99128138473847 -0.23986293139314 -1.08225218181818
 6  4.85774497019702  0.34528526022602 -2.50663778057806
 6  6.35994773997400  0.01099883908391 -0.40168908310831
 6  7.52232347274727 -0.70646682958296 -0.94315118201820
 6  8.81581318241824 -0.39884386948695 -0.33341168866887
 6  10.17597852355236 -0.87975230183018 -0.81107846264626
 6  10.14811084968497 -2.42203600650065 -0.80276956185619
 6  11.27555140534053 -0.44132844754475 -0.04250480618062
 6  12.71431310551055 -0.65463078027803 -0.62879740284028
 6  13.83798238763876 -0.01452867906791  0.17055911141114
 6  15.28979789158916 -0.26211709320932 -0.36536009390939
 6  15.85682525432543 -1.67152601800180 -0.40144891319132
 6  16.27823856815682  0.72463698099810  0.33879290159016
 6  17.60640552935294  1.02710562826283 -0.18075197659766
 6  18.62774369866987  1.95439976887689  0.63335415161516
 6  20.05590749234923  2.03972177677768  0.14298602610261
 6  20.16818751765177  2.57069364546455 -1.30944902270227
 6  20.87085960726073  2.98501984078408  1.02713450165016
 1 -4.22735039533953  3.51776300830083  2.00015489638964
 1 -9.94088194129413  4.14378162026203 -0.16551787448745
 1 -10.54708896529653 -2.01831898739874 -1.50325979907991
 1 -2.92339466646665 -1.33912314751475  2.22129300500050
 1 -2.35781709620962  1.43162338553855  1.36711962416242
 1 -2.05888614661466  0.34099046744674  3.84439354335434
 1 -3.23346883878388  1.89815486518652  3.81462165736574
 1 -3.88090768766877  0.39201438593859  4.00502567876788
 1 -2.20638614701470 -1.78634336743674 -0.20247469466947
 1 -2.21199453885388 -0.10504431343134 -0.63910060426043
 1 -0.23093891369137  0.03066692029203  1.18223858515852
 1 -0.34410474977498 -1.79130108870887  1.41436894529453
 1 -4.45954077057706  5.91432580068007  0.64581738153815
 1 -5.63489869626963  6.97499241394140  1.36419571417142
 1 -4.82014010081008  5.84930297429743  2.50279441344134
 1 -7.74881989138914  7.12687256175617  1.05618717261726
 1 -9.19060441234123  5.96626678717872 -1.53010459655966
 1 -9.40814556115611  7.66625535303530 -0.62823304620462
 1 -12.15402976497650  3.67533672087209 -0.11607942104210
 1 -12.22626647494749  3.73597755515552 -1.75083440024002
 1 -13.20104112691269  2.48551638733873 -1.09156351175117
 1 -12.60249262246225 -1.00606953365337 -0.95052980408041
 1 -13.60172719721972  0.36686084078408 -1.26506886568657
 1 -12.95205083498350  0.78596540964096 -3.68950629492949
 1 -11.76183115111511 -0.72476004960496 -3.50551950405040
 1 -13.56514326782678 -0.98319741454145 -3.47845538783878
 1 -10.01073762256226 -4.69145846564657 -0.47807010901090
 1 -9.61898587748775 -4.42650059605961 -1.98191508970897
 1 -8.55391056575658 -5.63192145914591 -1.04501245674567
 1 -3.91653350475047 -3.37856414661466 -0.50702205080508
 1 -2.34489488248825 -6.55164025972597  2.31157449154915
 1 -2.12653109950995 -5.03379686358636  3.14073851645164
 1 -3.69349236563656 -5.71069616121612  3.35476235183518
 1  2.56191009850985 -2.34000164366437 -1.35154632163216
 1  2.52038693319332 -0.75080266106611 -1.97648541574157
 1  4.07282005370537 -1.36219853415341  0.55172307530753
 1  5.44190601980198  1.27546005500550 -2.39491421122112
 1  5.48387500470047 -0.30925496299630 -3.31907330893089
 1  3.72354247244725  0.45977716451645 -2.85948677377738
 1  6.54158217441744  1.16093221822182 -0.23164335543554
 1  6.25319336403640 -0.34314420402040  0.72962066946695
 1  7.19845663056306 -1.86022274687469 -1.06093685328533
 1  7.60972051455146 -0.38880686008601 -2.07837266626663
 1  8.85846133353335  0.59435827712771 -0.00879073077308
 1  8.66782984578458 -0.75650980248025  0.80275308770877
 1  10.01422409100910 -0.57642508580858 -2.02018659365937
 1  9.24325464166417 -2.96505519871987 -1.20736928472847
 1  10.96227125822582 -2.62608420822082 -1.30037064196420
 1  10.07204222432243 -2.80025171077108  0.31162289298930
 1  11.44640993839384  0.69936871697170  0.16232481768177
 1  11.36975293879388 -0.79632486898690  0.98503843404340
 1  12.78705341594159 -1.72264383558356 -0.67173038603860
 1  12.61132928512851 -0.45994607360736 -1.78222975667567
 1  13.82738389328933  1.08412812361236  0.12693560446045
 1  13.73680790779078 -0.41270769856986  1.17196404230423
 1  15.31657400160016  0.12352355845585 -1.45397741104110
 1  15.00961651455146 -2.42616519831983 -0.70516985018502
 1  16.82846672017202 -1.77122115871587 -0.90753653755376
 1  15.99267454625462 -2.01350648324832  0.80184945634563
 1  15.66340661386139  1.58220479077908  0.59387984698470
 1  16.35430008680868  0.22699332263226  1.42024544714471
 1  18.20031125282528 -0.00321453195320 -0.25472534033403
 1  17.45891047664767  1.31928381668167 -1.27446587908791
 1  18.24589927942795  3.02551894779478  0.61290668036804
 1  18.70110236443644  1.45246105560556  1.53561071107111
 1  20.55797212961296  1.09089705070507 -0.01483032683268
 1  19.55900325692569  3.41557982808281 -1.63598550095009
 1  21.26144338803881  2.54205227492749 -1.61112421902190
 1  19.58396336933693  1.83618924062406 -2.14641682318232
 1  21.01203644014402  2.58144961296130  1.93128416501650
 1  21.97603046024603  3.15400542794279  0.73154731183118
 1  20.47178680808081  4.03324652425243  1.13899263716372
 1 -7.39399123222322  1.70007888108811  0.90904275037504
 1 -7.60583213161316 -0.18177835383538 -0.46787691529153

