%nproc=3
%Mem=2GB
# td=(NStates=1) B3LYP/SVP 

TD

0 1
 6 -5.01771947004701 -1.96377261936194  0.36024089999000
 6 -4.68807912691269  2.78052450415041  1.20039642554255
 6 -9.45221513121312  3.36747754695470 -0.13977244514451
 6 -9.78295635013501 -1.40468127152715 -0.91321387478748
 7 -5.18548771107111  0.46497812071207  0.71234967196720
 6 -4.47485610171017 -0.70534725572557  0.71905534893489
 6 -3.07304699119912 -0.50538697339734  1.18401339713971
 6 -3.09058402380238  0.90459935223522  1.79611871767177
 6 -4.41453064616462  1.51401121902190  1.25783938093809
 6 -3.10244881338134  0.94904241654165  3.41068893149315
 6 -2.03032510321032 -0.62017197889789 -0.02961501590159
 6 -0.59626283848385 -0.67185540214021  0.53371582428243
 6  0.36311997339734 -1.15911278417842 -0.59413097069707
 8  0.04228599619962 -1.46714908150815 -1.71814542604260
 8  1.64743494059406 -0.98101487458746 -0.14617706040604
 7 -7.07271186578658  2.75184245604560  0.52549205840584
 6 -5.91644321972197  3.47667208550855  0.99658051495150
 6 -6.22279546524652  4.80853729322932  1.04685117791779
 6 -7.51056015281528  4.99409824532453  0.49483601100110
 6 -8.07353829972997  3.65294378807881  0.31986214161416
 6 -5.18739925642564  5.89333484858486  1.26455772177218
 6 -8.21824910761076  6.31895590719072  0.36297479877988
 6 -9.22817071527153  6.55640536243624 -0.58958143694369
 7 -9.23722192279228  0.89214644764476 -0.34227669606961
 6 -9.89511337423742  2.07850034873487 -0.36254552375238
 6 -11.39470333683368  1.88726228722872 -0.77696153005301
 6 -11.43904785528553  0.54519185928593 -1.05263021772177
 6 -10.04840706640664 -0.06886683838384 -0.82103534603460
 6 -12.32996149704971  3.03449195079508 -0.99791288158816
 6 -12.64685242474247 -0.27350983048305 -1.41586254595460
 6 -12.74207433813381 -0.56337960236024 -2.95940411171117
 7 -7.47213617121712 -1.22238392359236 -0.26695522402240
 6 -8.52796438393839 -2.02992171897190 -0.69144250665067
 6 -8.20134257325733 -3.36606348854886 -0.77133970127013
 6 -6.79551446054605 -3.39237606590659 -0.28815643954395
 6 -6.40657176057606 -2.00879369796980 -0.05791071487149
 6 -9.03382614021402 -4.52906365586559 -1.11940093449345
 6 -5.64341128632863 -4.20962599769977  0.00753169876988
 8 -5.42932242244224 -5.42426195629563 -0.16719398529853
 6 -4.52627025562556 -3.31015177677768  0.44777383948395
 6 -3.94075787368737 -3.90619471297130  1.75786231193119
 8 -4.16730180368037 -3.52358029192919  2.82792086018602
 8 -2.86829551715172 -4.76260123302330  1.45779620752075
 6 -2.47244194799480 -5.38190763686369  2.64366650625062
 6  2.76987915651565 -1.27884178177818 -1.13586761256126
 6  3.99691293809381 -0.97250775317532 -0.54760686078608
 6  4.92888514511451 -0.14739368446845 -1.01711566816682
 6  4.78117731343134  0.53294402610261 -2.42419953675368
 6  6.21301304650465  0.16198393759376 -0.40008892309231
 6  7.51040228062806 -0.52014819771977 -0.92358922582258
 6  8.77171877297730 -0.18024200930093 -0.22967131463146
 6  10.09606053175318 -0.87298162476248 -0.70839819461946
 6  9.96151218981898 -2.43410721362136 -0.77662694759476
 6  11.32628647884789 -0.42425674037404 -0.04557511321132
 6  12.71913358755876 -0.49683500070007 -0.75221974507451
 6  13.84118270767077  0.09652242604260  0.03182523802380
 6  15.17029594139414 -0.10452133363336 -0.48819237713771
 6  15.72454202600260 -1.63932279767977 -0.19694846314631
 6  16.06818756305631  0.90430494779478  0.21497051935194
 6  17.65675056385639  0.95367828552855 -0.23749765116512
 6  18.50307123142314  1.83663799269927  0.62577339353935
 6  20.04084598619862  1.63656146074607  0.28513024052405
 6  20.48288898779878  2.11272784888489 -1.14136221402140
 6  20.95874839613962  2.38176951575158  1.36133792199220
 1 -3.90496815711571  3.52654388638864  1.70545542644264
 1 -10.19995784888489  4.29772701480148 -0.05132645534553
 1 -10.50829508590859 -1.92876003150315 -1.28645811891189
 1 -2.85028735573557 -1.35891512671267  1.92912378807881
 1 -2.30628194269427  1.54337456065607  1.44245715791579
 1 -2.11995225322532  0.73623999239924  3.89605870987099
 1 -3.27223271517152  1.86685173487349  3.98308850405040
 1 -3.85313491039104  0.32193737823782  3.90179535573557
 1 -2.15841134953495 -1.48078281138114 -0.45079952715271
 1 -2.05501884128413  0.38951514251425 -0.51816851105111
 1 -0.34108992879288  0.31519537313731  0.92606296759676
 1 -0.61544188348835 -1.55586754535453  1.10815832423242
 1 -4.37254207070707  5.49017338543854  0.50986378617862
 1 -5.73549875627563  6.93293820852085  0.90730002460246
 1 -4.68980706750675  5.93709175317532  2.28653278727873
 1 -8.19533454285428  7.03913378787879  1.07472902680268
 1 -9.31564691659166  5.75871603210321 -1.47572915901590
 1 -9.41107585418542  7.63543227072707 -0.68025824872487
 1 -12.43608797079708  3.76500568776878 -0.18074588768877
 1 -12.00240408870887  3.54218817621762 -1.91921123792379
 1 -13.30712173497350  2.39863769946995 -1.02912726812681
 1 -12.70268264146415 -1.17294622132213 -0.76077082818282
 1 -13.53214023852385  0.59904405910591 -1.44210656945695
 1 -12.72010764066406  0.52544935803580 -3.35240258455846
 1 -11.94490945894590 -1.24688226182618 -3.35881483358336
 1 -13.66676342984298 -1.13230232503250 -3.17473501580158
 1 -10.01437798659866 -4.51030034983498 -0.58803110511051
 1 -9.25419939883988 -4.43190113611361 -1.94986188438844
 1 -8.30148532323232 -5.47514578157816 -1.08298625412541
 1 -3.81505335673567 -3.41704799499950 -0.05135648424842
 1 -1.81026141914191 -6.08005310101010  2.44532786688669
 1 -1.93863230963096 -4.63240672457246  3.34729917251725
 1 -3.48244126052605 -5.86161125272527  3.19952682828283
 1  2.81961586908691 -2.44452209570957 -1.12102326932693
 1  2.44661955645565 -0.77693527432743 -1.97516528372837
 1  4.16643941564156 -1.46528884318432  0.42981088408841
 1  4.95152698189819  1.66381889088909 -2.63650837063706
 1  5.53518013521352 -0.05846988448845 -3.16132753435344
 1  3.68558867706771  0.21841302810281 -2.88125895099510
 1  6.31189920612061  1.28769489448945 -0.52150234133413
 1  6.12771081578158 -0.03755364496450  0.67049475687569
 1  7.30398718361836 -1.61451817641764 -0.90958171777178
 1  7.51472101460146 -0.39767774717472 -2.11014584358436
 1  8.67009249664966  0.82526136743674 -0.40353020472047
 1  8.55510857365737 -0.39713386488649  0.85648846124612
 1  9.94124679327933 -0.59082652595260 -1.77960253525353
 1  9.29312962916292 -2.64419311251125 -1.52941148894890
 1  10.98024305540554 -2.86199779957996 -0.73954455935594
 1  9.57483250335034 -2.78289997559756  0.22950468116812
 1  11.10632592999300  0.66926570667067  0.41987057225723
 1  11.35873183668367 -1.23433867036704  0.98303823402340
 1  12.95407011761176 -1.48813038423842 -1.08287150015002
 1  12.67625577777778 -0.00860093909391 -1.90498203190319
 1  13.69132028692869  1.13409312011201  0.04740765166517
 1  13.67375160216022 -0.35010143794379  0.98239508540854
 1  15.07244958915891 -0.15356415031503 -1.58593060636064
 1  15.18253380628063 -2.44618720052005 -0.69081841504150
 1  16.76862073557356 -1.90189422602260 -0.70633641754175
 1  15.93742902170217 -1.70489562216222  0.72750202160216
 1  15.62623289648965  2.03336990729073 -0.21642118311831
 1  16.01944660146015  0.95482610591059  1.36709013161316
 1  17.94269549124913 -0.14973918441844  0.09816994919492
 1  17.88730331593159  0.99615150345034 -1.45876430893089
 1  18.13388807830783  2.81316771267127  0.38533392309231
 1  18.62724497869787  1.45388119761976  1.76354350435044
 1  20.07458379077908  0.44005196619662  0.19151030723072
 1  20.43677103370337  3.22700097019702 -1.37201910431043
 1  21.49148639233924  1.66567463716372 -1.25028813541354
 1  19.80978595159516  1.89167478917892 -2.03104528602860
 1  20.69192442894289  2.08584005200520  2.37603864046405
 1  22.12399525672567  2.23020304770477  1.20543470057006
 1  20.67108673807381  3.37910110971097  1.28847758565857
 1 -7.19611144424442  1.75651452465247  0.54292613871387
 1 -7.46442799119912 -0.23428360436044 -0.16600672827283

