%nproc=3
%Mem=2GB
# td=(NStates=1) B3LYP/SVP 

TD

0 1
 6 -5.19601729982998 -2.00999724182418  0.53703857975798
 6 -4.75498581758176  2.75288173987399  1.30198658455846
 6 -9.18169807950795  3.30783158235824 -0.28925739363936
 6 -9.80734878937894 -1.48912971637164 -0.94789734313431
 7 -5.14806396869687  0.42357398029803  0.86001443844384
 6 -4.54545316141614 -0.83593031403140  0.89830327372737
 6 -3.03674336083608 -0.63930036473647  1.35715071087109
 6 -2.98572353775378  0.77723661596160  1.76537564336434
 6 -4.31644083718372  1.33761357925793  1.24682827982798
 6 -2.82952152065207  0.97387489978998  3.26502436503650
 6 -2.05918798949895 -0.93138310001000  0.17086503210321
 6 -0.64422763496350 -0.87264548114811  0.47969042174217
 6  0.37849151055106 -1.06361323422342 -0.64414597219722
 8  0.06945871347135 -1.38711107770777 -1.76447005850585
 8  1.57625782288229 -0.71523829692969 -0.27900034273427
 7 -7.09045363996400  2.72240951275127  0.51586109530953
 6 -5.98123969936994  3.29597401570157  0.99425028192819
 6 -6.14790797649765  4.85071151065106  1.08775526832683
 6 -7.39411850865087  4.93923275877588  0.51946847424742
 6 -7.94480542644265  3.70991948564856  0.17584774017402
 6 -5.29306982348235  5.74991050615062  1.69830109610961
 6 -8.12463974667467  6.20649466106611  0.44959346064606
 6 -8.93457135533553  6.74944466636664 -0.61319379817982
 7 -9.07723592419242  0.83975120812081 -0.49722219061906
 6 -9.72164602750275  2.05221772047205 -0.64284355355536
 6 -11.12060592709271  1.84504806580658 -1.06195002890289
 6 -11.35892984348435  0.52190953105311 -1.23842879757976
 6 -10.06973919961996 -0.09962991469147 -0.89602284478448
 6 -12.16033453435344  2.98201670327033 -1.29342243254325
 6 -12.54837257675768 -0.15917839733973 -1.71467242694269
 6 -12.55889602030203 -0.47967123152315 -3.25408357965797
 7 -7.53696265386539 -1.31663334853485 -0.20799932843284
 6 -8.58312990049005 -2.06751547834783 -0.65173853625363
 6 -8.24091653065306 -3.45577245944594 -0.60409297659766
 6 -6.86677158625863 -3.49877670597060 -0.08434605850585
 6 -6.47208831223122 -2.06115893449345  0.05691076727673
 6 -9.03812657025703 -4.62804355385539 -1.00075907030703
 6 -5.72026897209721 -4.30582561766177  0.10319126472647
 8 -5.62289177937794 -5.49397892799280  0.25293802790279
 6 -4.46850447904791 -3.36294705630563  0.40725978807881
 6 -3.82375617351735 -3.81903599709971  1.78968549424942
 8 -4.10663573707371 -3.39226716061606  2.95485355345535
 8 -2.98635732333233 -4.78642361526153  1.53340376827683
 6 -2.40545524932493 -5.38190763686369  2.74315645524552
 6  2.62941511011101 -0.93020691829183 -1.29801382718272
 6  3.88693193999400 -0.51522202460246 -0.63404550465047
 6  4.85286754335434  0.34344539943994 -1.12256621322132
 6  4.76420561626163  1.05661639333933 -2.48925604240424
 6  6.17950969616962  0.43786152535254 -0.29930884508451
 6  7.48216945734573 -0.24829101200120 -1.05015188208821
 6  8.71824342544254 -0.21093507860786 -0.06882523002300
 6  9.97651857755775 -0.66220054665467 -0.71473882868287
 6  9.95236127472747 -2.23309711261126 -1.00168945384538
 6  11.19475332553255 -0.33901821652165  0.08970841514151
 6  12.58844051825183 -0.56623194039404 -0.55751027412741
 6  13.81447003640364  0.01881465526553  0.29288134363436
 6  15.18365727752775 -0.25212609410941 -0.37700125802580
 6  15.51970154195419 -1.71529039443944 -0.56448521682168
 6  16.23533427772777  0.53197771507151  0.43551257355736
 6  17.53622851165117  0.60029294699470 -0.15548945034503
 6  18.47491841614161  1.61514584348435  0.61152196839684
 6  19.95806770837084  1.63941174577458  0.16680840834083
 6  20.03584428332833  2.11230780688069 -1.24358243604360
 6  20.77740026132613  2.42816415521552  1.04189597779778
 1 -4.08816647694769  3.43412464446445  1.81899678057806
 1 -10.09852770587059  4.04205144724472 -0.52235355805581
 1 -10.53937819421942 -2.34414156965697 -1.15562503560356
 1 -2.72791511851185 -1.45486472167217  2.09375025072507
 1 -2.12295360986099  1.36224644784478  1.31844475667567
 1 -1.65600585858586  0.75419178757876  3.63227233123312
 1 -3.07888338023802  2.02212726242624  3.31018121332133
 1 -3.38921851875187  0.08967415191519  3.92398757495750
 1 -2.17721322972297 -2.11584631773177 -0.33702815001500
 1 -2.12983632303230 -0.65057886688669 -0.93726042024202
 1 -0.30516633643364  0.14952880648065  1.09211957325733
 1 -0.35325566486649 -1.58898085668567  1.26404391279128
 1 -4.49005382188219  6.06598096619662  0.86794959475948
 1 -5.76157136353635  6.75460037473747  1.92167146174617
 1 -4.74522260906091  5.27899594359436  2.68049218321832
 1 -8.05339034843484  6.83700357485748  1.37269882378238
 1 -9.10318567046705  6.09021918241824 -1.51254284038404
 1 -9.41215596219622  7.64170289778978 -0.38264848774877
 1 -12.05068943094309  3.82728191539154 -0.59491730483048
 1 -11.96292014031403  3.59306326372637 -2.41594091089109
 1 -13.26713773657366  2.34937277297730 -1.10159451485148
 1 -12.82339471267127 -1.08461738843884 -1.00314506560656
 1 -13.59632665716572  0.47661181588159 -1.87131949074907
 1 -12.44506013591359  0.51416822992299 -3.74516186048605
 1 -11.83010797879788 -1.16770434403440 -3.48056700880088
 1 -13.51278803230323 -0.65917501230123 -3.32413995629563
 1 -9.75981253005301 -4.71551087088709 -0.26130843284328
 1 -9.45922990189019 -4.58546649264926 -2.03020991919192
 1 -8.33023819851985 -5.70327859485949 -1.04965292079208
 1 -3.66742859425943 -3.36236252645264 -0.42521386998700
 1 -1.59604999799980 -6.16155125082508  2.59369270337034
 1 -1.99001744814481 -4.60959444334433  3.39167360996100
 1 -3.17372038843884 -5.95979107070707  3.24728160376038
 1  2.82474638213821 -1.89431707520752 -1.55944711171117
 1  2.30493538803880 -0.37248482928293 -2.19856762396240
 1  3.94503727542754 -1.26249856415642  0.25993389638964
 1  5.15059688888889  2.04828733773377 -2.13034775457546
 1  5.30006662386239  0.77321328382838 -3.38547994959496
 1  3.74628474667467  1.30590177697770 -2.71129195429543
 1  6.49016703290329  1.47870399539954 -0.41085127622762
 1  6.00541858655866  0.10876098649865  0.84930263766377
 1  7.22547933283328 -1.32792951755175 -1.12096285588559
 1  7.71404094659466  0.41138315891589 -1.95622045104510
 1  8.80635612301230  0.83780262156216  0.60885103340334
 1  8.63240630343034 -1.12257640914091  0.74699751215121
 1  9.98276094469447 -0.20929837313731 -1.60699527452745
 1  9.08256857305730 -2.57330602380238 -1.68176672447245
 1  10.75824085518552 -2.75428702850285 -1.69756036093609
 1  9.94679970007001 -3.12517420302030 -0.24110237953795
 1  11.11748704610461  0.60791957205721  0.46590517571757
 1  11.11619758325833 -0.85099033553355  0.97014694489449
 1  12.71844655525553 -1.76431800300030 -0.62552576557656
 1  12.62846099829983 -0.16122620162016 -1.61439297299730
 1  13.73260441534153  1.01854156495650  0.38065097599760
 1  13.79355358235824 -0.30101652945295  1.23717056295630
 1  15.01760410461046  0.15353655975598 -1.46204821812181
 1  14.77903345624562 -2.39401198299830 -0.93905323852385
 1  16.44710858435844 -1.81350538713871 -1.30495627952795
 1  15.92499777857786 -2.07840297289729  0.59160843224322
 1  15.61181145434544  1.54033060336034  0.64133459245925
 1  16.43569822662266 -0.04509388608861  1.43651707430743
 1  18.01865308700870 -0.34837904840484 -0.35498536633663
 1  17.53435802140214  1.13347523582358 -1.18174660716072
 1  18.16269095859586  2.68052444834483  0.38093348304830
 1  18.37682993719372  1.30912672217222  1.54083123312331
 1  20.26262259465947  0.67723568456846  0.23145430163016
 1  19.81571892849285  3.20933920402040 -1.13748565096510
 1  21.07271451515152  2.11438950865086 -1.70573367996800
 1  19.64302927592759  1.49005462716272 -1.92340452195220
 1  20.81919715621562  2.13621508950895  2.25843688028803
 1  21.97066992419242  2.09471949934993  0.79085324242424
 1  20.64638426782678  3.52882608220822  0.97323606150615
 1 -7.28126996009601  1.74903377657766  0.46643848994899
 1 -7.83151469986999 -0.25501567756776  0.00567043944394

