%nproc=3
%Mem=2GB
# td=(NStates=1) B3LYP/SVP 

TD

0 1
 6 -5.11967966606661 -1.94699094119412  0.40736561246125
 6 -4.74399471847185  2.78442489418942  1.29590597649765
 6 -9.28799870957096  3.30061086028603 -0.16348481638164
 6 -9.76534458895889 -1.50891169456946 -1.01347390079008
 7 -5.13657281958196  0.45756737963796  0.66610504750475
 6 -4.47577619371937 -0.70881760276028  0.82629607300730
 6 -3.07247693419342 -0.60493692839284  1.22017701350135
 6 -3.07948291369137  0.84934382668267  1.75108421422142
 6 -4.34447364046405  1.37498731663166  1.29663326032603
 6 -3.15461402990299  0.89033654595460  3.36033389598960
 6 -2.09328139883988 -0.66973693539354 -0.05598765316532
 6 -0.68631184338434 -0.89834805140514  0.48191064376438
 6  0.38131179257926 -1.04536140904090 -0.70164172177218
 8  0.09378114571457 -1.26123849044904 -1.88524213571357
 8  1.64267446454645 -0.81979875297530 -0.21510395309531
 7 -6.99479407400740  2.78922619441944  0.44980448964896
 6 -5.92451402680268  3.29597401570157  1.00198105500550
 6 -6.25926911261126  4.77680411991199  1.07022351515152
 6 -7.47443654045404  5.06351518701870  0.43977050445045
 6 -8.03797474337434  3.68757725142514  0.24278443384338
 6 -5.22710322682268  5.84668018311831  1.51669293529353
 6 -8.24612189488949  6.36024003560356  0.33459196049605
 6 -9.21161906010601  6.62245196709671 -0.50889336813681
 7 -9.13084128472847  0.87015424842484 -0.56785925432543
 6 -9.85243910681068  2.05145764446445 -0.50009927912791
 6 -11.24803867036704  1.84257781878188 -0.94094792869287
 6 -11.34519847034703  0.50945828592859 -1.11290624532453
 6 -10.03211543724372 -0.11753170487049 -0.88061130363036
 6 -12.22525102600260  2.96183468506851 -0.92113520382038
 6 -12.67311505100510 -0.27649012851285 -1.59338029772977
 6 -12.65811594229423 -0.31367463186319 -3.09795796709671
 7 -7.40299925752575 -1.25535722092209 -0.32164069256926
 6 -8.55076666416642 -2.00732945974597 -0.67355071747175
 6 -8.21749418841884 -3.40758764096410 -0.55058762606261
 6 -6.78962387148715 -3.39882671097110 -0.18842646654665
 6 -6.36452755615562 -2.02893571217122 -0.07103202700270
 6 -9.00313307090709 -4.58817956745675 -0.85539453385339
 6 -5.76212315751575 -4.28768380348035  0.16305725132513
 8 -5.69446893709371 -5.50807033713371  0.16935967006701
 6 -4.51947957655766 -3.38248901050105  0.49591865396540
 6 -3.93301709960996 -3.75745983948395  1.81058758445845
 8 -4.13074814831483 -3.32133006690669  2.92782085018502
 8 -2.95247393499350 -4.75771074397440  1.56837726562656
 6 -2.74475917971797 -5.61097054315432  2.71252339193919
 6  2.66214838343834 -1.17960185778578 -1.21832585838584
 6  3.97101034783478 -0.79318982138214 -0.62339443954395
 6  5.02856511311131 -0.01653059815982 -1.09422337893789
 6  4.94014321002100  0.58353908560856 -2.44911202800280
 6  6.24408615381538  0.20513825302530 -0.33231214541454
 6  7.43184442484248 -0.45055123802380 -1.00816768366837
 6  8.71502310341034 -0.21936592169217 -0.22342068956896
 6  10.10588151385138 -0.80737506410641 -0.77217457225723
 6  10.06881291989199 -2.34752855575558 -0.88118740364036
 6  11.35196904710471 -0.32728704340434  0.04400384468447
 6  12.62802447664767 -0.51560687788779 -0.63060758385839
 6  13.74659324872487 -0.00716794299430  0.22451450695070
 6  15.21436034783478 -0.10971185268527 -0.42361591949195
 6  15.50558012981298 -1.66967583298330 -0.70802957125713
 6  16.23518426272627  0.64910942824282  0.41019004130413
 6  17.68300318911891  0.84884780248025 -0.17391129252925
 6  18.59650057435744  1.57559188808881  0.79849066526653
 6  20.06885878747875  1.69666747134713  0.23457518501850
 6  20.13883458235824  2.36832340844084 -1.23661173897390
 6  21.00923344464447  2.37505884468447  1.23376516471647
 1 -3.99580724102410  3.52743397539754  1.82701758265827
 1 -9.90909876297630  4.14436167826783 -0.20791211391139
 1 -10.77801205760576 -2.11643879937994 -1.16479595269527
 1 -2.94008633563356 -1.38818805400540  2.11102197789779
 1 -2.19651096559656  1.42373259645965  1.47219013121312
 1 -2.28207846584659  0.47009337773777  3.62081118511851
 1 -2.96613210511051  1.99044409410941  3.64959515471547
 1 -4.01125072197220  0.36589177367737  3.79451462766277
 1 -2.31000650905090 -1.68291302440244 -0.61090553775378
 1 -2.31962530193019  0.04912110311031 -0.57762445664566
 1 -0.43515933573357  0.05359921352135  1.06876723802380
 1 -0.53199353865387 -1.77718967756776  1.17947545594559
 1 -4.16697151365137  5.44191855995600  1.18444124392439
 1 -5.65677088348835  6.83074798949895  1.21980127472747
 1 -5.08840692749275  5.78651669566957  2.54590872487249
 1 -7.80315532493249  7.14847472197220  1.23488504240424
 1 -9.75112046394639  6.10781094159416 -1.34003558965897
 1 -9.40122486908691  7.70338906640664 -0.58008823172317
 1 -12.50295465746575  3.56662584978498 -0.00638845194519
 1 -11.98529237753775  3.84315827322732 -1.69196851365137
 1 -13.10118114091409  2.62737057275728 -1.42591694709471
 1 -12.86759913311331 -1.27155608230823 -1.02789754085409
 1 -13.39510653515351  0.50727488218822 -1.40014237303730
 1 -12.81799742964296  0.54216102920292 -3.74189153345335
 1 -11.74203917191719 -0.67245481908191 -3.61085003710371
 1 -13.50414716821682 -0.89372846764677 -3.36158370067007
 1 -9.77715426422642 -4.74560388018802 -0.15017731973197
 1 -9.60537451635163 -4.54786273227323 -1.63641053925392
 1 -8.48194336903690 -5.52689095609561 -0.89754771027103
 1 -3.50845269666967 -3.52479877007701 -0.03541489008901
 1 -1.91808220122012 -6.48794389008901  2.31241457555756
 1 -2.12109055545555 -5.13449693359336  3.32802724532453
 1 -3.64479749614962 -5.96500159175918  3.30506738233823
 1  2.54307821532153 -2.28868651215121 -1.40138130513051
 1  2.52720761526153 -0.61286886768677 -2.10329809700970
 1  4.02266503820382 -1.19593190749075  0.39535743874387
 1  5.37082891209121  1.66874938393839 -2.60154487428743
 1  5.63372999019902  0.09513547604761 -3.22001340294029
 1  3.85475559375938  0.59992117891789 -2.94960578567857
 1  6.41398941514151  1.30354647964796 -0.21611180228023
 1  6.05132317701770 -0.31209109870987  0.71100880828083
 1  7.13608039293929 -1.50794751935193 -1.12971373097310
 1  7.61294083658366 -0.08279625902590 -2.05424025302530
 1  8.80659614701470  0.87836667796780 -0.41687153885389
 1  8.70221328412841 -0.22671682318232  0.89644245664566
 1  10.00345301390139 -0.22431987528753 -1.87904247924793
 1  9.43294361056106 -2.91378007120712 -1.53111165896590
 1  11.17606263736374 -2.58641024082408 -1.30241084598460
 1  9.78997401750175 -2.75370705630563  0.20695242594259
 1  11.11868716611661  0.74582336243624  0.12517110231023
 1  11.08962492599260 -0.67902313881388  0.99477940814081
 1  12.94035874647465 -1.49937150835084 -0.61092430543054
 1  12.54985313751375  0.04394431543154 -1.52910444414441
 1  13.68701985688569  1.12702241304130  0.29634254515452
 1  13.64550877787779 -0.29809623742374  1.38025487138714
 1  15.20035237943794  0.40451165726573 -1.43975598889889
 1  15.09561511441144 -1.89706228802880 -1.74121345454546
 1  16.70547442094209 -1.49589362596260 -0.90111589548955
 1  15.07242252105210 -2.31004613721372  0.14431370277028
 1  15.73448372157216  1.72234880518052  0.60464092309231
 1  16.40626528332833  0.21336195949595  1.43447687028703
 1  18.20137135883588 -0.07324153465347 -0.26464633243324
 1  17.69715430103010  1.22462435073507 -1.14746317881788
 1  18.32451714121412  2.57365376127613  1.01495688538854
 1  18.51805405960596  1.13883969346935  1.83648079807981
 1  20.58928526092609  0.79689765076508  0.02914407060706
 1  19.82182953955396  3.44171244134413 -1.05186708910891
 1  21.16297354105411  2.53639170887089 -1.44113722032203
 1  19.44492946594659  1.94980060176018 -1.89046122762276
 1  21.06092132863287  1.72499396739674  2.08928996559656
 1  22.11270412761276  2.39021904930493  0.81314547164716
 1  20.84076370577058  3.56476967656766  1.16943568146815
 1 -7.12786461956196  1.89163803700370 -0.01246940084008
 1 -7.45773732213221 -0.19619979597960 -0.54524465206521

