%nproc=3
%Mem=2GB
# td=(NStates=1) B3LYP/SVP 

TD

0 1
 6 -5.10585828392839 -1.89101534363436  0.58548342424242
 6 -4.75324564356436  2.74861131283128  1.39615600150015
 6 -9.32983289298930  3.33705450465046 -0.30387885578558
 6 -9.79491754625463 -1.46549735313531 -1.04147670107011
 7 -5.21687084938494  0.42320394329433  0.90409884688469
 6 -4.49191780788079 -0.75885260626063  0.92112555595560
 6 -3.09628931543154 -0.59411584628463  1.39003399919992
 6 -3.12616758215822  0.80854974727473  1.92348145394539
 6 -4.44055324842484  1.42163198109811  1.37230082708271
 6 -3.05426399489949  0.93159067136714  3.46174403700370
 6 -1.96961903260326 -0.91048100980098  0.19862780838084
 6 -0.50116332853285 -0.86110432703270  0.76737919061906
 6  0.44727838923892 -1.01001787468747 -0.39266082368237
 8  0.11267303490349 -1.32589495609561 -1.52600621212121
 8  1.69889008610861 -0.79620639373937 -0.04670711341134
 7 -7.00314490909091  2.66321359315932  0.68857836703670
 6 -5.94013558895890  3.33596801510151  1.11535239213921
 6 -6.21970515621562  4.73935037453745  1.07475396819682
 6 -7.45221431823182  4.99379821532153  0.44089061646165
 6 -8.02584353025303  3.66176467016702  0.26940709610961
 6 -5.40461097759776  5.75167068216822  1.59175044104410
 6 -8.12409969266927  6.31282529412941  0.30731923322332
 6 -8.93511140934093  6.54528425032503 -0.78655113391339
 7 -9.16231443204320  0.90378761176118 -0.52187465586559
 6 -9.86129999289929  2.12850534923492 -0.63440270947095
 6 -11.21953582008201  1.90494405540554 -1.12140597449745
 6 -11.38056200670067  0.53019035913591 -1.34169912461246
 6 -10.07196942264226 -0.06964691639164 -0.99672291479148
 6 -12.26094459535954  2.97856635823582 -1.29704279457946
 6 -12.58893663316332 -0.27304978447845 -1.74692565226523
 6 -12.59689982068207 -0.49797306170617 -3.24055222652265
 7 -7.41255021262126 -1.28838052325233 -0.25162369086909
 6 -8.52057364486449 -2.07062578937894 -0.66704006640664
 6 -8.09373181218122 -3.48266514871487 -0.70967353465347
 6 -6.78997390649065 -3.50294712301230 -0.27295491939194
 6 -6.46132723612361 -2.16376919551955  0.09606468266827
 6 -8.97369012661266 -4.59337008650865 -0.94104309870987
 6 -5.75160210541054 -4.34546958205821  0.05428637423742
 8 -5.53572306250625 -5.54468399849985 -0.09887715361536
 6 -4.48147577617762 -3.34499526112611  0.48760782288229
 6 -3.93926772467247 -3.88725281878188  1.79227575327533
 8 -4.42259733323332 -3.57136507040704  2.91995006310631
 8 -2.95858454605461 -4.74129910281028  1.55314574247425
 6 -2.35231993579358 -5.34894434053405  2.77928006760676
 6  2.62815498409841 -1.12672657025703 -1.05297932373237
 6  3.97708095489549 -0.68171867426743 -0.64909700980098
 6  4.78817107370737  0.21922297719772 -1.12630658725873
 6  4.67397659335934  0.83278401010101 -2.53456057285729
 6  6.13450519571957  0.52451019021902 -0.33408232243224
 6  7.39162040244024 -0.09940612351235 -0.96722358925893
 6  8.76059766086609  0.16870288518852 -0.23443179067907
 6  9.92298322402240 -0.47478180478048 -0.91985934073407
 6  9.84788082668267 -2.08122192509251 -1.12479176407641
 6  11.26541039123912 -0.19989430413041  0.01144058835884
 6  12.65432710691069 -0.50487580478048 -0.61780630373037
 6  13.79115770517052  0.05333810761076  0.25234729022902
 6  15.15493440524052 -0.17722860436044 -0.46723028092809
 6  15.60674024582458 -1.62649151455145 -0.62967173547355
 6  16.26471721602161  0.58718323562356  0.30850987328733
 6  17.68156304510451  0.57145006270627 -0.21609551095110
 6  18.64052497679768  1.45920024892489  0.70193100930093
 6  20.07848975057506  1.42085989058906  0.18449017651765
 6  20.26749744864486  1.94244082018202 -1.25433351115112
 6  20.96285880718072  2.23771511031103  1.06704849304930
 1 -3.86026368666867  3.32310354235423  1.72200708160816
 1 -9.93574142724272  4.11048829092909 -0.21580290299030
 1 -10.71963622002200 -2.06369352485249 -1.38026749984998
 1 -2.98577090409041 -1.34776401160116  2.33452432813281
 1 -2.32466378087809  1.31091131433143  1.43586649884989
 1 -2.04092435043504  0.61733810221022  3.72675177917792
 1 -2.98919441134113  2.06777182688269  3.69636983218322
 1 -3.74861445834584  0.37394257875788  3.98897407360736
 1 -2.35877138553855 -1.95424015711571 -0.13636808400840
 1 -2.12676601600160 -0.07307111611161 -0.57438413261326
 1 -0.49532535233523  0.24269812341234  1.20514087538754
 1 -0.42549288858886 -1.81513347194719  1.53188069646965
 1 -4.56259107560756  6.05298966706671  0.95782858265827
 1 -5.81493670007001  6.76256117081708  1.63784307890789
 1 -4.93609169596960  5.55626367036704  2.68427256125613
 1 -8.10268527792779  7.16143601810181  0.97234878877888
 1 -9.09612496439644  5.91070123062306 -1.67948953505351
 1 -9.23203795039504  7.59454818231823 -1.15937616051605
 1 -12.09473383538354  3.49580876807681 -0.09372718581858
 1 -11.85161901020102  3.75197915531553 -1.97428674547455
 1 -13.27478850165017  2.49290712641264 -1.47205156055606
 1 -12.74804717791779 -1.23595252195220 -1.29832458355836
 1 -13.46800382488249  0.45567972267227 -1.69540189898990
 1 -12.57277290719072  0.36631344444445 -3.89980732503250
 1 -11.90752572057206 -1.12536010961096 -3.67355630773077
 1 -13.50421717521752 -0.97199629442944 -3.69732727502750
 1 -9.84729127792779 -4.63813313311331 -0.30025232723272
 1 -9.36634061296130 -4.46707465346535 -1.97137403560356
 1 -8.45463063776378 -5.50974924192419 -0.88480643614361
 1 -3.82393424482448 -3.47483377357736 -0.39001034963496
 1 -1.58373876687669 -6.19690478617862  2.43884721882188
 1 -1.80855930233023 -4.67985146904690  3.34777922052205
 1 -3.14953797019702 -5.86360145174517  3.20980785638564
 1  2.64019792729273 -2.24766240974097 -1.21893306030603
 1  2.51935683018302 -0.73307088788879 -2.14027179437944
 1  4.31748452015202 -0.74452676697670  0.44283218621862
 1  4.66587841704170  2.07467997699770 -2.65550026982698
 1  5.57700431763176  0.67928389088909 -3.01163256485649
 1  3.78835895409541  0.40183136993699 -2.91163198829883
 1  6.10470848704870  1.66266239123912 -0.49561975307531
 1  6.00032807750775  0.27989810021002  0.63478118551855
 1  7.03924070897090 -1.11425815041504 -1.18780954055406
 1  7.49295883838384  0.18424044464446 -2.00890571957196
 1  9.00246573397340  1.17638647994799 -0.11810166186619
 1  8.65646870967097 -0.43230738223822  0.82213502590259
 1  10.02762543114311 -0.05101254455446 -1.88570314531453
 1  9.06937725392539 -2.34616330953095 -1.85413396119612
 1  10.79356438753875 -2.67217881768177 -1.46237684258426
 1  9.50682570267027 -2.63659534513451 -0.19606787608761
 1  11.21427672507251  0.89524830493049  0.17824640984098
 1  11.25820178367837 -0.71744698119812  0.88559849004900
 1  12.78525323592359 -1.51029260046005 -0.90287350035003
 1  12.77035518771877 -0.19781986098610 -1.48536006970697
 1  13.65941709660966  1.16865657645765  0.41993490439044
 1  14.05336956395640 -0.49251567936794  1.32475932183218
 1  15.21169351355135  0.15305651175118 -1.50253226652665
 1  14.73784933783378 -1.86172875467547 -1.20834016721672
 1  16.52641651515151 -1.49531356795680 -1.43203898779878
 1  16.00622590139014 -2.34324945754575  0.29690896229623
 1  15.55796606980698  1.58768533883388  0.46870732973297
 1  16.32949760656066  0.26991761506151  1.36516993959396
 1  18.09953117481748 -0.48718292879288 -0.26922679047905
 1  17.80729531513151  0.93187507580758 -1.22771120362036
 1  18.24067875737574  2.54349074497450  0.58723411311131
 1  18.50992324652465  0.88210401990199  1.81813896389639
 1  20.26267259965996  0.32927088808881  0.23234439063906
 1  19.79418677527753  3.09254752485249 -1.18473037543754
 1  21.24829207290729  1.83658172787279 -1.66639974657466
 1  19.53653862686269  1.34950057175718 -1.81447362886289
 1  20.61600683718372  2.05391685968597  2.27015805240524
 1  22.04360721792179  1.92362238963896  0.80946510361036
 1  20.93547317671767  3.37130032963296  1.02678141604160
 1 -7.13907574067407  1.65274414761476  0.52745459155916
 1 -7.51499304770477 -0.16545672167217 -0.17987811541154

