%nproc=3
%Mem=2GB
# td=(NStates=1) B3LYP/SVP 

TD

0 1
 6 -5.15387308540854 -1.90519676177618  0.51929680558056
 6 -4.70507082608261  2.86419287098710  1.39660604650465
 6 -9.34183409310931  3.26388718791879 -0.23066153405341
 6 -9.82457051155115 -1.56583738713871 -0.91850440384038
 7 -5.14296345864586  0.50147177007701  0.81631006800680
 6 -4.46795541164116 -0.71552827382738  0.90615405880588
 6 -3.04809449594960 -0.52851928662866  1.22024702050205
 6 -3.05267023242324  0.93400229252925  1.76056516231623
 6 -4.36736592969297  1.47405722362236  1.27227082408241
 6 -2.85785435393539  1.15021253355336  3.28054591719172
 6 -2.01011308200820 -0.79185914761476 -0.00743279767977
 6 -0.69777298949895 -0.67197541414141  0.60160261296130
 6  0.37705136653665 -1.00321719461946 -0.52482404000400
 8  0.16746851445145 -1.61111347794779 -1.52132574407441
 8  1.73028322542254 -0.71350812391239 -0.14480692339234
 7 -7.07488208280828  2.77607487928793  0.40924043324332
 6 -5.96223779917992  3.46113053135314  1.06144700160016
 6 -6.30133331903190  4.80314675417542  1.08390488328833
 6 -7.57876697349735  4.94952378787879  0.65004153155316
 6 -8.13663460936094  3.62761125482548  0.22107226262626
 6 -5.43722423892389  5.87431294639464  1.59795106110611
 6 -8.28620590329033  6.19081309290929  0.48843734503450
 6 -9.09171706990699  6.53949367126713 -0.51586406520652
 7 -9.20706890749075  0.85789302230223 -0.54867733613361
 6 -9.93504736763676  1.92900539923992 -0.57303657285729
 6 -11.25597946444645  1.83030659165917 -1.01113494739474
 6 -11.42099605010501  0.48174551465147 -1.24993994869487
 6 -10.16084831053105 -0.14755470717072 -0.85972921542154
 6 -12.19840834173417  2.93251175277528 -1.18261135143514
 6 -12.60400814031403 -0.27013949344935 -1.68247920762076
 6 -12.75363549424942 -0.50435369976998 -3.21873004430443
 7 -7.56014497209721 -1.37242892809281 -0.02074060256026
 6 -8.56237782528253 -2.16793552035204 -0.55289865226523
 6 -8.10227266626663 -3.48757563976398 -0.65932850015001
 6 -6.85712062116212 -3.41189801810181 -0.25916354025403
 6 -6.51366246964696 -2.16922974157416  0.16404148034803
 6 -8.90879363696370 -4.59204995449545 -1.20381937633763
 6 -5.73247019221922 -4.18448348344834  0.03077402300230
 8 -5.48843833403340 -5.37471700180018 -0.21147841374137
 6 -4.45968359695970 -3.29503026462646  0.52401146324632
 6 -3.86050984888489 -3.74691878537854  1.79698622432243
 8 -4.03888896239624 -3.27986592049205  2.91074914301430
 8 -3.09985867346735 -4.85974094699470  1.58722915081508
 6 -2.28440314411441 -5.26529597569757  2.74262640224022
 6  2.69917208580858 -1.00339423702370 -1.25029905570557
 6  4.00588383518352 -0.56087659005901 -0.61649374947495
 6  4.97344960156016  0.17999905480548 -1.03488744534453
 6  4.81617081278128  0.85872660436044 -2.35043216001600
 6  6.21684342954295  0.40898863806381 -0.31463037723772
 6  7.42874411481148 -0.38663484638464 -0.87218408530853
 6  8.76143774487449 -0.24299828492849 -0.11711005850585
 6  9.98129905560556 -0.79818414501450 -0.93554090889089
 6  10.13315935453545 -2.29443324622462 -0.98644792969297
 6  11.32729657985799 -0.18383269796980 -0.21682223792379
 6  12.68847052125213 -0.51968728592859 -0.73234775787579
 6  13.78090668006801 -0.04407163336334  0.09129118461846
 6  15.24566347814781 -0.39648052955296 -0.39549310721072
 6  15.60419999179918 -1.94370323572357 -0.31497026532653
 6  16.32973371767177  0.41266578387839  0.44058308060806
 6  17.69029391819182  0.66566948464846 -0.23778768016802
 6  18.55836676097610  1.51393572247225  0.67761857805781
 6  20.04857675927593  1.59152695729573  0.17385911341134
 6  20.12854355325533  2.31194777087709 -1.15250332813281
 6  20.82590511181118  2.48519985878588  1.14611639983998
 1 -4.04125178547855  3.57078831083108  1.60018489938994
 1 -10.05841369446945  4.05194243634363 -0.29924124682468
 1 -10.65138939533953 -2.15886304180418 -1.44040351345134
 1 -2.78667099409941 -1.21102033723372  2.29243011871187
 1 -2.25805712021202  1.33558378157816  1.11018393059306
 1 -1.99679993799380  0.87677404580458  3.67774687868787
 1 -2.97168266016602  2.28427347704770  3.23559375457546
 1 -3.74275387228723  0.68478366286629  3.71124630083008
 1 -2.09981548994900 -1.79428416151615 -0.45836028322832
 1 -2.20526386578658  0.12380857185719 -0.64341103530353
 1 -0.56775259505951  0.39407326092609  0.98986934823482
 1 -0.50076041534153 -1.55903786238624  1.23348085648565
 1 -4.41189600610061  5.91822619071907  0.99265206500650
 1 -5.98211341774177  6.86704161886189  1.44540383498350
 1 -5.21833992079208  5.81351939593959  2.73085721972197
 1 -8.25840084948495  6.91322119661966  1.26290784468447
 1 -9.15815116701670  5.99330949144914 -1.40722230833083
 1 -9.54549929652965  7.60469919741974 -0.37880810371037
 1 -11.96603096509651  3.95191437863786 -0.55043285638564
 1 -12.05547939623962  3.48532248964896 -2.30260957775778
 1 -13.35076609940994  2.73010084578458 -1.16180053545355
 1 -12.68807118031803 -1.47936686338634 -1.37199195029503
 1 -13.59925695019502  0.26836099079908 -1.61313367216722
 1 -12.69887551745174  0.42811962506251 -3.72474981928193
 1 -12.01038600660066 -1.35199277287729 -3.61017997009701
 1 -13.74874162766277 -0.85334442924292 -3.48211575387539
 1 -9.89475602440244 -4.58474779457946 -0.58520082208221
 1 -9.05096907580758 -4.57622556855686 -2.42845974417442
 1 -8.58688386308631 -5.68386665366537 -0.75646360186019
 1 -3.84442629402940 -3.23389968016802 -0.34206555515552
 1 -1.66991738473847 -6.23627872357236  2.10147348144814
 1 -1.37714616101610 -4.49634311821182  3.08491293389339
 1 -2.88394141054105 -5.59794488608861  3.65071194679468
 1  2.84004791229123 -2.17489513301330 -1.35126629362936
 1  2.26880177467747 -0.44984256505651 -1.99770753795380
 1  4.06141891359136 -1.14656697099710  0.39815771877188
 1  5.03517534673467  1.90491300030003 -2.27665238503850
 1  5.45716233343334  0.43122908540854 -3.09325072667267
 1  3.94475459365937  0.67633882068207 -2.78368919401940
 1  6.53807182338234  1.50001612661266 -0.53860405150515
 1  6.17745579027903  0.19578968936894  0.70667837523752
 1  7.17419420432043 -1.45087181178118 -0.78936969656966
 1  7.45093463596360 -0.20718869826983 -2.14014884388439
 1  8.94235972337234  0.64986382768277 -0.09444929662966
 1  8.63353641644164 -0.80888504000400  0.87556036843684
 1  10.02150481908191 -0.41328877217722 -1.96160073507351
 1  8.94663497969797 -2.79796849004900 -1.18251679947995
 1  10.85259029012901 -2.69368096789679 -1.88479908480848
 1  10.42465748584859 -2.68607029262926  0.01795352605261
 1  11.24222952035204  1.04816359645965 -0.41084249904990
 1  10.99255521902190 -0.44704994149415  0.88789872007201
 1  12.93312802340234 -1.61234280548055 -0.82938615161516
 1  12.59314746694669 -0.07706778577858 -1.85959749344934
 1  13.68457961286129  0.92705241604160  0.16496940784078
 1  13.60956518351835 -0.55230165796580  1.16372321822182
 1  15.40882322652265  0.03732493859386 -1.60435244854485
 1  15.01478703160316 -2.39016159795980 -1.32983231643164
 1  16.54479835333533 -2.28266230283028 -0.46987277117712
 1  15.13565884468447 -2.33457859045905  0.71910118151815
 1  15.88527880108011  1.38899546984698  0.58617907690769
 1  16.44478913571357 -0.04197357405741  1.24954837743774
 1  18.08562978467847 -0.53115732623262 -0.33665353315332
 1  17.67511209680968  1.08853074137414 -1.24638307080708
 1  18.16542123162316  2.65459185508551  0.86962235193519
 1  18.67420967516752  1.12434824432443  1.92990014001400
 1  20.62387872027203  0.60548850985099 -0.10080892469247
 1  19.35644300090009  3.17702597269727 -1.25895779817982
 1  21.13528077177718  2.57249531923192 -1.28554166076608
 1  19.75120009300930  1.63580920262026 -2.06928911041104
 1  20.66723195969597  1.84399586758676  2.11240227682768
 1  21.91346420362036  2.48586861426143  1.07853201030103
 1  20.51371100050005  3.45823902350235  1.25019375727573
 1 -7.22062389548955  1.71648052125213  0.41064291039104
 1 -7.55666721512151 -0.37176735273527 -0.04613474107411

