%nproc=3
%Mem=2GB
# td=(NStates=1) B3LYP/SVP 

TD

0 1
 6 -5.15498319641964 -1.96674291639164  0.50156503240324
 6 -4.70473079207921  2.73895034673467  1.44199058495850
 6 -9.18224813451345  3.40328112731273 -0.23071153905391
 6 -9.82617067156716 -1.39915071847185 -0.95366792019202
 7 -5.10865002730273  0.43412503540354  0.76098453545355
 6 -4.52461107720772 -0.76990371137114  0.86161960536054
 6 -2.98735842234223 -0.64625105980598  1.37925292109211
 6 -2.95365033043304  0.82997188948895  1.77658676447645
 6 -4.33462265536554  1.37580739863986  1.28448204520452
 6 -2.78417698619862  0.99908742104210  3.29983784638464
 6 -2.07138920962096 -1.05980594229423  0.24170211581158
 6 -0.65970918311831 -1.05654387098710  0.70793324602460
 6  0.34180784218422 -1.32874974787479 -0.41872342994299
 8  0.02537430503050 -1.59268163476348 -1.57296090759076
 8  1.67290748784878 -1.06168294139414 -0.05376781948195
 7 -7.00900549514952  2.78542581438144  0.44938444764476
 6 -5.78586016141614  3.35659007730773  0.92236309320932
 6 -6.18357154285429  4.75100153965397  1.03658015081508
 6 -7.38899799659966  5.02359119461946  0.48235476287629
 6 -7.93420436633664  3.69783827752775  0.25675583098310
 6 -5.13927444394439  5.78735425052505  1.29261052705271
 6 -7.97086436913691  6.28393240484048  0.29126762806281
 6 -8.73664156235624  6.77587730963096 -0.67007948674868
 7 -9.21530973157316  0.97529476247625 -0.55417788618862
 6 -9.88884274717472  2.06500899959996 -0.53095236443644
 6 -11.19424329082908  1.98127168816882 -1.05274910881088
 6 -11.41368531903190  0.61280862096210 -1.11047600230023
 6 -10.13480570627063 -0.07398735043504 -0.86706994949495
 6 -12.17448594949495  3.16837533913391 -1.23136622692269
 6 -12.68509624912491 -0.10231271077108 -1.61806276597660
 6 -12.61165129582958 -0.38643190759076 -3.18806697799780
 7 -7.54426338393839 -1.30675236043604 -0.18702723122312
 6 -8.66807839533953 -1.98550727752775 -0.44847821022102
 6 -8.36154859385939 -3.43815069726973 -0.53407597489749
 6 -6.92358726782678 -3.38465529382938 -0.12941056495650
 6 -6.53113421682168 -2.09956277487749  0.06681175737574
 6 -9.12286504410441 -4.63202395189519 -0.88782777717772
 6 -5.83966091129113 -4.39581461656166  0.11520246584658
 8 -5.82385187538754 -5.51750128022802  0.04008674277428
 6 -4.53942157075708 -3.40055081668167  0.45420448254825
 6 -3.88339213711371 -3.79359345284528  1.68733525922592
 8 -4.15077015051505 -3.48147608150815  2.80282835093509
 8 -2.95024371197120 -4.72884785768577  1.43321374927493
 6 -2.38078278207821 -5.34252369846985  2.65250739033903
 6  2.70962313091309 -1.30088398599860 -1.17165119091909
 6  4.01554480128013 -0.86177668006801 -0.55647774787479
 6  4.87099935653565 -0.03521246634663 -1.07893184978498
 6  4.60580977667767  0.88981971367137 -2.30303742054205
 6  6.26613835903590  0.26521426062606 -0.38230714491449
 6  7.41679291969197 -0.35556173907391 -1.16983385028503
 6  8.68968056915692 -0.33648763386339 -0.24688303580358
 6  9.99922084778478 -0.70102442904290 -0.95273262806281
 6  10.04219025762576 -2.22470627352735 -1.25317460236024
 6  11.22321617181718 -0.20229454415442 -0.06725728142814
 6  12.55016669086909 -0.50239555675568 -0.83127765086509
 6  13.81835042444244 -0.09219644584458  0.17918997449745
 6  15.22107101890189 -0.10930181168117 -0.44827838573857
 6  15.67927749954995 -1.56141500690069 -0.65835460376038
 6  16.21202194649465  0.61865638293829  0.56277529982998
 6  17.60652554135414  0.81117403510351 -0.04947884928493
 6  18.58601952625262  1.57163149204921  0.87580839703970
 6  20.04961686328633  1.85041284588459  0.20618234573457
 6  19.92244294319432  2.61361793789379 -1.20025810361036
 6  20.94143666496650  2.50159149794979  1.31783357155716
 1 -3.92680034033403  3.18348958095810  1.82557743864386
 1 -9.92279013211321  4.27631487358736 -0.52980430313031
 1 -10.61694595099510 -2.06596375187519 -1.33971344444444
 1 -2.77986031303130 -1.49331856705671  1.94708558425843
 1 -2.16783809830983  1.24838506170617  1.32209512171217
 1 -1.88694895289529  0.64922129052905  3.55891499549955
 1 -2.87157264916492  1.98073312301230  3.52420261546155
 1 -3.53175277217722  0.46788197269727  3.79701487768777
 1 -2.20595610401040 -2.05658039113911 -0.27790223742374
 1 -2.37274061346135 -0.52180598959896 -0.69285597979798
 1 -0.21554737453745 -0.17741388778878  1.13810417171717
 1 -0.39349968926893 -1.90066202480248  1.32347985638564
 1 -4.32170698719872  5.61638600670067  0.80141294109411
 1 -5.54416962336234  7.00208512321232  1.51561085568557
 1 -4.64226231303130  5.67003504750475  2.29621375537554
 1 -7.69913492289229  6.94970484498450  0.93420497439744
 1 -9.34305965786579  6.06455661616162 -1.41016260236024
 1 -9.06374112071207  7.70644937243724 -0.84580480338034
 1 -12.25856021802180  3.84698388558856 -0.37763557665767
 1 -11.71289513781378  3.72546650405040 -2.01424074087409
 1 -13.11508253105310  2.88076591229123 -1.46065042044204
 1 -12.46833920712071 -1.06659558625863 -1.04952970407041
 1 -13.72131915641564  0.32955711041104 -1.36994935373537
 1 -12.44499012891289  0.56060287338734 -3.89004634893489
 1 -11.72218718671867 -1.02018959255926 -3.50019897199720
 1 -13.45200195369537 -0.95290438523852 -3.59204674697470
 1 -9.79217576637664 -4.85764508430843 -0.06848915091509
 1 -9.59338331723172 -4.46242418841884 -1.87349424762476
 1 -8.55401057575757 -5.66828509550955 -0.85928388388839
 1 -3.92335418681868 -3.41197748794879 -0.20970231883188
 1 -1.83343373637364 -6.12674777047705  2.13321665576558
 1 -1.77325577197720 -4.68763224712471  3.05027947054706
 1 -3.41625464186419 -5.54970006160616  3.36092296789679
 1  2.43109701720172 -2.42701034453445 -1.52908407540754
 1  2.38737363186319 -0.59227680848085 -2.02180994819482
 1  4.10418319001900 -1.45063737803780  0.42977088008801
 1  4.60003183238324  1.98997150615062 -1.74521924172417
 1  5.41815843304330  0.72717868036804 -3.20102150375037
 1  3.59335945414542  0.67742892969297 -2.92622344744474
 1  6.48166618281828  1.25712183718372 -0.41236142724272
 1  6.16321436613661 -0.35752564216422  0.69144685208521
 1  7.05349213411341 -1.28888561316132 -1.23972473207321
 1  7.64557409990999  0.19616163676368 -2.13120794979498
 1  8.90660614801480  0.70243908520852  0.25119526782678
 1  8.44591765456546 -0.94174832633263  0.61774458685869
 1  10.07722039063906 -0.17003444674467 -1.94061863686369
 1  9.09583990019002 -2.65222391559156 -1.75495404320432
 1  10.97455248634864 -2.51623322312231 -1.82757336223622
 1  10.06278129822982 -2.82407409300930 -0.35807407670767
 1  11.19065436283628  0.82005078517852 -0.25025644044405
 1  11.24291025452545 -0.80896613311331  0.89655958615862
 1  12.71403611421142 -1.48805037623762 -1.05043825682568
 1  12.80552870507051  0.16305622662266 -1.59096062976298
 1  13.53962511741174  0.97737744854485  0.55780869176918
 1  14.01837606460646 -0.58824525232523  1.12096894279428
 1  15.08577092129213  0.35910711681168 -1.43553556685669
 1  14.98004355725572 -2.16280886268627 -1.53476280948095
 1  16.61124499799980 -1.52742677927793 -1.41039682358236
 1  15.77060233903390 -2.04373950655065  0.41551082248225
 1  15.86391666486649  1.65042161246125  0.91370182918292
 1  16.11876653345335 -0.06257563426343  1.50655407800780
 1  18.07364858655865 -0.30273448394840 -0.01583145094509
 1  17.51442602820282  1.20983287158716 -1.18053648614861
 1  18.25691038053806  2.48603499939994  1.24239962966297
 1  18.68035028922893  1.09829563906391  1.81533868386839
 1  20.43238957135713  0.66772473347335 -0.18375721952195
 1  19.71697905450545  3.72925119521952 -1.06587849024903
 1  20.86139338303830  2.37371544124412 -1.50436354295430
 1  19.11545651865186  2.27132275397540 -1.88642082358236
 1  20.68231346784679  1.76216768476848  2.18323936053605
 1  22.07267012421242  2.88057808520852  1.12814697179718
 1  20.48029765916592  3.51226442604260  1.45312405030503
 1 -7.11853368646865  1.82490136333633  0.48587043314331
 1 -7.63386493489349 -0.23992416841684 -0.44698482608261

