%nproc=3
%Mem=2GB
# td=(NStates=1) B3LYP/SVP 

TD

0 1
 6 -4.99850754885489 -1.82280852295230  0.43853872977298
 6 -4.70369068806881  2.91847829952995  1.43310969686969
 6 -9.36114602430243  3.28373917311731 -0.11690015791579
 6 -9.76310436493649 -1.44974577797780 -0.90074262766277
 7 -5.17921708400840  0.47364898779878  0.83444188118812
 6 -4.48025664176418 -0.63756047704770  0.90526396979698
 6 -3.03704339083908 -0.47414384908491  1.28575357115712
 6 -3.04448941434143  1.08477737003700  1.84462356815682
 6 -4.45974516761676  1.56240605850585  1.29772336933693
 6 -2.91120968946895  1.14094160646065  3.34029189178918
 6 -2.03730580128013 -0.70828078977898  0.16194414001400
 6 -0.62012522472247 -0.77622583918392  0.60824327702770
 6  0.34641830323032 -1.03376024892489 -0.48052961056106
 8  0.05356712431243 -1.44137650425043 -1.60337394889489
 8  1.62755295239524 -0.61791856495650 -0.19330177287729
 7 -7.09246384098410  2.78126539833983  0.57740724992499
 6 -6.04789636503650  3.50982540084008  1.07355821272127
 6 -6.43544673037304  4.85710214971497  1.04634112691269
 6 -7.74248334513451  4.88190702620262  0.66310283768377
 6 -8.13417436333634  3.64023251695169  0.34094424982498
 6 -5.46546706320632  5.84843035813581  1.48694996099610
 6 -8.47976525922592  6.16742075367537  0.45821432273227
 6 -9.39222712091209  6.57363708560856 -0.53293577237724
 7 -9.22928112871287  0.86736396939694 -0.57404987338734
 6 -9.93753761666167  2.02539503820382 -0.50032930213021
 6 -11.24788865536554  1.81955551655166 -0.99036287018702
 6 -11.43592754325432  0.47369470957096 -1.28867382208221
 6 -10.16053827952795 -0.07383733543354 -0.96497974047405
 6 -12.22528102900290  2.90249875147515 -1.24286737703770
 6 -12.59494723422342 -0.32472495199520 -1.72813377307731
 6 -12.50570070077008 -0.68306157055706 -3.22486065736574
 7 -7.48599755735574 -1.26981866706671 -0.12978150665067
 6 -8.52914450195020 -2.02323104990499 -0.50940430283028
 6 -8.13400583958396 -3.42752963516352 -0.64510707800780
 6 -6.84002891199120 -3.36719354765477 -0.11243886778678
 6 -6.35165626902690 -2.05004782338234  0.13314839103910
 6 -8.87866062366237 -4.62827357685769 -1.11843083748375
 6 -5.66715366056606 -4.18523355845585 -0.01912096649665
 8 -5.46254574477448 -5.38697822792279 -0.11888915481548
 6 -4.55375300390039 -3.25126588818882  0.42734179627963
 6 -3.86949074697470 -3.74743883738374  1.73829035473547
 8 -4.23945901940194 -3.46280421432143  2.87905597369737
 8 -2.94988367596760 -4.77703267616762  1.44248467636764
 6 -2.37511221502150 -5.51227067316732  2.57777991759176
 6  2.63808597719772 -1.11220511811181 -1.18207223302330
 6  3.91157440424042 -0.68867937033703 -0.52761486158616
 6  4.93231548814881  0.01501255615562 -1.07751170777078
 6  4.87038623432343  0.64735546724672 -2.39547666446645
 6  6.21928367356736  0.28229596879688 -0.34242315651565
 6  7.44521576197620 -0.52141832473247 -0.93380024692469
 6  8.90581218231823 -0.20167415251525 -0.21992033953395
 6  10.10599152485248 -0.89009333593359 -0.92017937273727
 6  10.04390042864286 -2.41991579447945 -1.00028931383138
 6  11.33162701290129 -0.30401471617162 -0.17141769746975
 6  12.69530120432043 -0.73460877807781 -0.75011953505351
 6  13.82476106550655 -0.05092231843184  0.16192824832483
 6  15.26798571037104 -0.28167904940494 -0.41994555245525
 6  15.71660123192319 -1.77098596399640 -0.44114288258826
 6  16.22319306360636  0.54527904520452  0.38606762906291
 6  17.75397028582858  0.59033195089509 -0.09023292469247
 6  18.55353627792779  1.67968229712971  0.59073989018902
 6  20.15099700130013  1.56562436703670  0.20555228272827
 6  20.33175387428743  1.95359193529353 -1.17928600640064
 6  20.86421894319432  2.72446378517852  1.19209099729973
 1 -3.85724338463846  3.38489972197220  1.68929381028103
 1 -10.09863771687169  4.25718296039604 -0.01294261696170
 1 -10.50573482988299 -2.02861001650165 -1.41397087018702
 1 -2.78815114211421 -1.06228546374637  2.33950482618262
 1 -2.25142645714571  1.76982720592059  1.52379529172917
 1 -1.98325858385839  0.51841821022102  3.59167827182718
 1 -2.80451594349435  2.15434048374838  3.52135233043304
 1 -3.78717831473147  0.62196738123812  3.58293346954695
 1 -2.30060556895690 -1.65529026212621 -0.25511995919592
 1 -2.33027636703670 -0.06939074807481 -0.61588828302830
 1 -0.43947976777678  0.15633948754876  1.17240760206021
 1 -0.37113745304530 -1.71297325592559  1.09829733813381
 1 -4.60550536703670  6.03647801590159  0.64294709450945
 1 -6.09830503690369  6.81870678537854  1.63822311691169
 1 -4.98904699149915  5.86134417841784  2.48227236123612
 1 -8.17302231163116  6.93128300280028  1.13834538843884
 1 -9.57353270517052  5.89919007950795 -1.35689727582758
 1 -9.53882862946294  7.69200792829283 -0.61739196209621
 1 -12.59573393539354  3.30654984218422 -0.23906171927193
 1 -11.64954880318032  3.81099505690569 -1.78902821962196
 1 -13.12686370917092  2.32518035373537 -1.80484483988399
 1 -12.62079445264526 -1.20614954165417 -1.00804555565557
 1 -13.49859688418842  0.29842399709971 -1.70219257805781
 1 -12.42792842274227  0.36434324742474 -3.86646399069907
 1 -11.73644861286129 -1.53035060866087 -3.45288424052405
 1 -13.53038979247925 -0.92729182398240 -3.71098864116412
 1 -9.98122467126713 -4.82298161796180 -0.76036833883388
 1 -8.98227220612061 -4.40926887288729 -2.30667756595660
 1 -8.30784595929593 -5.60356862386239 -0.94396235173517
 1 -3.56491834323432 -3.47273356355636 -0.24819616821682
 1 -1.74032442544254 -6.05059015471547  2.29309264336434
 1 -1.95701414781478 -4.74232771667167  3.16106054865487
 1 -3.26723974037404 -6.18524361596160  3.05921279687969
 1  2.57152105960596 -2.12976061956196 -1.53866503350335
 1  2.61863675817582 -0.57198477927793 -2.00124789198920
 1  4.25911868356836 -1.04582689698970  0.36939484248425
 1  4.97329915911591  1.68969147814781 -2.47465218501850
 1  5.48802541974197  0.31343730623062 -3.06903830543054
 1  3.92201231943194  0.75155634243424 -2.96877770287029
 1  6.54568258445845  1.40360648564857 -0.42299249034903
 1  6.05258330303030 -0.09976986658666  0.74923263066307
 1  7.16809359425943 -1.57392411701170 -0.58472923252325
 1  7.61845138763876 -0.21890987038704 -2.04364919391939
 1  9.05787127452745  0.99990883218322 -0.37458731043104
 1  8.88335139793979 -0.45322947444744  0.99207201960196
 1  10.30954362296230 -0.55250269356936 -1.70540511551155
 1  8.96030634683468 -2.79136782998300 -1.58064661246125
 1  10.72320735183518 -2.67891949174917 -1.93106371127113
 1  10.10641566166617 -2.82334402000200  0.03876560726073
 1  11.39829512691269  0.80170895099510 -0.13556497129713
 1  11.46108207170717 -0.72520775727573  1.00594052425242
 1  12.83017772837284 -1.71026259745975 -0.71495470847085
 1  12.72133028522852 -0.30240031903190 -1.83648518221822
 1  13.65593674857486  1.10927063786379  0.29486239713971
 1  13.69624385138514 -0.51835826362636  1.29883672957296
 1  15.37456980118012  0.12421362746275 -1.38013002630263
 1  15.08523407630763 -2.38818139993999 -1.12575190839084
 1  16.80194406790679 -1.80943498009801 -0.80197598149815
 1  15.38887416621662 -2.39207434003400  0.55034430583058
 1  15.99544981818182  1.74919148944894  0.25668612761276
 1  16.02379703650365  0.67031765506551  1.58607202980298
 1  18.30669189088909 -0.30135434593459 -0.14303417121712
 1  17.78166275187519  0.80448233653365 -1.14528296079608
 1  18.45991068056806  2.67961435733573  0.36006139583958
 1  18.20173242744275  1.87238304780478  1.63093024302430
 1  20.53831016341634  0.51827978897890  0.52022317851785
 1  20.05715307190719  2.96464473457346 -1.42080398279828
 1  21.30630787448745  1.85664373407341 -1.60005311191119
 1  19.69076404940494  1.49558518021802 -1.81807398889889
 1  20.87301253775378  2.19497096509651  2.19398043464346
 1  22.04438729592959  2.71272129952995  0.79559371647165
 1  20.47292692209221  3.82172537213721  1.04800353825383
 1 -7.31571340444044  1.76034490769077  0.64792663876388
 1 -7.75143669206921 -0.28872904890489 -0.15125525312531

