%nproc=3
%Mem=2GB
# td=(NStates=1) B3LYP/SVP 

TD

0 1
 6 -5.03096079417942 -1.89610585268527  0.42180705660566
 6 -4.86812713171317  2.75308175987599  1.53538992489249
 6 -9.39596950665066  3.29617041624162 -0.36700516841684
 6 -9.80394844934493 -1.50248105150515 -0.99087164056406
 7 -5.20753991629163  0.51822344524452  0.91015945294529
 6 -4.48358697479748 -0.67265398639864  0.73215665906591
 6 -3.04140382688269 -0.34382081678168  1.30791578737874
 6 -3.15611057645765  0.99273816611661  1.89094820062006
 6 -4.42969216231623  1.39941975987599  1.46592018901890
 6 -3.16455502400240  1.03762127442744  3.39715757835784
 6 -1.98149021972197 -0.44962492419242  0.12049999559956
 6 -0.52447565976598 -0.56331454805481  0.63365581828183
 6  0.42657631903190 -0.85987286018602 -0.58116967456746
 8  0.10659242684268 -1.31766413301330 -1.59553316481648
 8  1.67225742284228 -0.68767554065407 -0.11403384608461
 7 -7.15234982958296  2.74235150695069  0.50690019921992
 6 -6.03768534393439  3.29745416371637  1.04163502040204
 6 -6.34801798749875  4.71176761626163  1.07056354915492
 6 -7.64813391019102  4.90722955845585  0.49805633303330
 6 -8.08243918981898  3.60766926062606  0.16178633403340
 6 -5.55498601510151  5.81431694679468  1.72333359935994
 6 -8.40490777347735  6.22527653925393  0.49169767106711
 6 -9.06497439563956  6.54284400630063 -0.53381586038604
 7 -9.11514971557156  0.86013324632463 -0.53160562896290
 6 -9.87006086898690  1.91259375807581 -0.61263053225323
 6 -11.21141500800080  1.67581114211421 -1.07587142104210
 6 -11.35386933743374  0.36127346744675 -1.36587154185419
 6 -10.02260448614861 -0.16015596729673 -0.87797103960396
 6 -12.18440694159416  2.83868236983698 -1.13204629492949
 6 -12.50359809930993 -0.33155563506351 -1.77539849954995
 6 -12.61593172387239 -0.60742400680068 -3.31575974727473
 7 -7.50129908750875 -1.20360204540454 -0.31439996849685
 6 -8.53591517901790 -2.07212593939394 -0.71000436283628
 6 -8.05585802480248 -3.45527240944094 -0.76124869216922
 6 -6.71992690179018 -3.31385821412141 -0.25504312821282
 6 -6.36376748014801 -1.98263108170817  0.04164924112411
 6 -8.77177993559356 -4.65879662916292 -1.12589158355836
 6 -5.62561950715072 -4.25152018711871 -0.08210726512651
 8 -5.64197368756876 -5.50002953305331 -0.03294055995600
 6 -4.42794042264226 -3.24236499809981  0.47450651275128
 6 -3.86920071797180 -3.73539763326333  1.79260578627863
 8 -4.02342741624162 -3.18879681358136  2.91893996209621
 8 -3.06415510311031 -4.76936190909091  1.54251467936794
 6 -2.37699240304030 -5.28511795789579  2.72530467006701
 6  2.69770193879388 -1.02821671927193 -1.04607863366337
 6  4.06833007980798 -0.73108361076108 -0.43463556365637
 6  5.01861411801180  0.19249030393039 -0.94182813941394
 6  4.92284147984798  0.81736246794679 -2.29055617241724
 6  6.30932267746775  0.31173891309131 -0.06721563576358
 6  7.43390463086309 -0.47025320822082 -0.73004987188719
 6  8.73172477357736 -0.35757974307431  0.00165181768177
 6  9.95801672737274 -0.77701202780278 -0.73771112591259
 6  9.97591362996300 -2.30144394729473 -1.02310159505951
 6  11.29213306350635 -0.35320963566357  0.05634507880788
 6  12.62623429762976 -0.58398371557156 -0.63312783588359
 6  13.79036762616262 -0.05351257745775  0.21942399789979
 6  15.23545245704570 -0.26419730123012 -0.45098865676568
 6  15.49280885268527 -1.71563042844284 -0.67389615791579
 6  16.25532627692769  0.54458897619762  0.33600262256226
 6  17.64087897669767  0.54407732543254 -0.25238914031403
 6  18.51376230053005  1.58525285418542  0.40559137533753
 6  19.99882178377838  1.50505831043104  0.04047577507751
 6  20.19136983588359  2.01521809790979 -1.40993907170717
 6  20.78318083938394  2.39279061786179  1.01303309150915
 1 -4.03448110841084  3.34058529052905  2.00509539043904
 1 -10.04008186128613  4.19520676277628 -0.61212253495350
 1 -10.63502775917592 -2.08275543104310 -1.34185365846585
 1 -2.83516584358436 -1.15440467566757  2.18097897359736
 1 -2.30820213471347  1.68920914411441  1.55963887608761
 1 -2.12041229922992  0.61614798319832  3.75852495649565
 1 -3.45505099699970  2.10593564326433  3.68532872807281
 1 -3.91750134703470  0.40599578407841  3.76625180138014
 1 -2.21429693809381 -1.31963669676968 -0.59557400460046
 1 -2.19935327472747  0.34548073907391 -0.53486018021802
 1  0.05315949614962  0.16510036363636  1.35257561886189
 1 -0.33731407070707 -1.80375233383338  1.11670917931793
 1 -4.85480029652965  6.23467783588359  0.94491729152915
 1 -6.11627683408341  6.71668658335834  2.12228152275228
 1 -5.00254834163416  5.25979402340234  2.84984911891189
 1 -8.08771378077808  7.08727860236024  1.31144269816982
 1 -9.70326567846785  6.15212537303730 -1.38057964406441
 1 -9.62774752135213  7.61485021252125 -0.38222844574457
 1 -12.19430379237924  3.21996118331833 -0.09818763186319
 1 -11.73907775607561  3.72536649404941 -1.90292960976098
 1 -13.21133215601560  2.58507634333433 -1.63811816721672
 1 -12.43141551475147 -1.18920784748475 -1.37379213031303
 1 -13.40009703420342  0.09664381908191 -1.56647900670067
 1 -12.87228285818582  0.43183999709971 -3.81558890319032
 1 -11.59892486048605 -1.01108868246825 -3.63814276637664
 1 -13.49431618511851 -1.24128322312231 -3.61169871217122
 1 -9.86349289808981 -4.73560288008801 -0.56873917591759
 1 -8.80270424932493 -4.85063300930093 -2.32582948114811
 1 -8.06862203690369 -5.54008227522752 -0.69869782528253
 1 -3.68057990939094 -3.46097238743874 -0.30507185578558
 1 -1.64444483748375 -6.14478957465747  2.20008334243424
 1 -1.66029447584758 -4.61262474637464  3.08418286088609
 1 -3.08492150855085 -5.53961905350535  3.39621649724972
 1  2.73208711621162 -2.13985162866287 -1.19728089508951
 1  2.68230312481248 -0.67404498529853 -1.91873964116412
 1  4.14461723342334 -0.90568288258826  0.55305320832083
 1  5.16125795499550  1.91968447744775 -2.14560928072807
 1  5.72879949714972  0.45485144764477 -2.79693109470947
 1  3.98337845604560  0.77596878367837 -2.69068989408941
 1  6.66121413761376  1.32993911891189 -0.05849604070407
 1  6.16220426512651 -0.01718160776078  1.01068877627763
 1  6.89791657655766 -1.67301402600260 -0.75105586518652
 1  7.53844338683868 -0.38756673607361 -1.91828665766577
 1  8.72124761216122  0.69866870817082  0.12556270457046
 1  8.74583764656466 -0.90340449194920  1.04853766616662
 1  10.11892456105611 -0.07603504680468 -1.62903747874787
 1  9.37361767796780 -2.54617331053105 -1.99109765756576
 1  10.87227225832583 -2.63135473527353 -1.34098470337034
 1  10.04876989708971 -2.84825651125112 -0.02444071337134
 1  11.25627092449245  0.71644042414241  0.25531411661166
 1  11.24939090259026 -1.03779901640164  0.97087701790179
 1  12.64923963456346 -1.64218578977898 -0.79357257025703
 1  12.69800795299530 -0.20606068506851 -1.62493402710271
 1  13.54981613651365  1.12987269806981  0.45391830273027
 1  13.68446267326733 -0.45423185098510  1.28508535443544
 1  15.15419776397640  0.21573277937794 -1.32529454275428
 1  14.66211176407641 -2.00096267806781 -1.28984831803180
 1  16.30487436093609 -1.90925496209621 -1.30120590449045
 1  15.74591987078708 -2.29634476707671  0.28483775517552
 1  15.95864613781378  1.65206177647765  0.44036449544955
 1  16.24186884368437  0.32027265056506  1.48453187578758
 1  18.02135335703570 -0.43327753825383 -0.27410727852785
 1  17.52570715631563  0.72574446274627 -1.41922035453545
 1  18.14540923042304  2.55498189408941  0.27380276997700
 1  18.28377063126313  1.54670047954796  1.50192734273427
 1  20.58804513691369  0.43236119711971  0.10452160836084
 1  19.58070542714271  3.02695096519652 -1.81978388078808
 1  21.28676592029203  2.00453852355236 -1.61845495209521
 1  19.73749872287229  1.29457507920792 -2.05746792829283
 1  20.70015525202520  2.05347681568157  2.18335937253725
 1  21.88280113731373  2.66617664506451  0.80304446154615
 1  20.38170780018002  3.38511171077108  1.22759149704970
 1 -7.43155498859886  1.69054792799280  0.35959780588059
 1 -7.58587013541354 -0.21526170217022 -0.16734686228623

