%nproc=3
%Mem=2GB
# td=(NStates=1) B3LYP/SVP 

TD

0 1
 6 -5.18562626072607 -2.09239548164816  0.54000887678768
 6 -4.68784910391039  2.76525297699770  1.36099248514851
 6 -9.22868277797780  3.27962876207621 -0.32636110401040
 6 -9.86038409290929 -1.40457126052605 -1.03052560596060
 7 -5.09307847014701  0.42144376727673  0.73706214321432
 6 -4.50964958105811 -0.81079780078008  0.92872631603160
 6 -3.12999268576858 -0.62322875757576  1.33123811961196
 6 -3.17249221462146  0.86556544884488  1.94538364416442
 6 -4.37107630073007  1.39064888278828  1.24261785878588
 6 -3.11879044754475  0.88392590489049  3.39811767436744
 6 -2.11785385608561 -0.87411737343734  0.15113305890589
 6 -0.69013222542254 -0.89678789538954  0.69872232493249
 6  0.40700436183618 -1.22679955285529 -0.36174773237324
 8  0.08587035463546 -1.68679104570457 -1.49558316981698
 8  1.53225342244224 -0.99370614371437 -0.07346978967897
 7 -6.89890448504851  2.77336460826083  0.36777628682868
 6 -5.91878345374537  3.34938935723572  0.92074293119312
 6 -6.23281646734673  4.74209064856486  1.04663115591559
 6 -7.47028612541254  5.03419225472547  0.58558508590859
 6 -7.93707465336534  3.62083057675768  0.10754090949095
 6 -5.25639615611561  5.83771928702870  1.64239550555055
 6 -8.11315859855986  6.31164517611761  0.42109061036104
 6 -9.00262816101610  6.63968369026903 -0.60762324112411
 7 -9.11900010061006  0.86716394939494 -0.70141260966097
 6 -9.76846070897090  2.08681117981798 -0.60666993619362
 6 -11.12227609410941  1.88247180818082 -0.99142297619762
 6 -11.32069602010201  0.55710305040504 -1.31537649234923
 6 -9.97111933763376 -0.03536348804881 -1.03607685018502
 6 -12.16144464536454  3.09864836643664 -1.21404449474947
 6 -12.57860560006001 -0.21434391389139 -1.71184214391439
 6 -12.63847397809781 -0.63710697509751 -3.25439361066107
 7 -7.53221217881788 -1.25750743594359 -0.14622315081508
 6 -8.60046163366337 -1.97878660546055 -0.56403976637664
 6 -8.22039447844785 -3.38955583778378 -0.64086665396540
 6 -6.87420232933293 -3.48518534683468 -0.30036766066607
 6 -6.49129023242324 -2.04825764436444  0.02980805700570
 6 -9.05621837943794 -4.63147389688969 -1.15462445684568
 6 -5.73867081228123 -4.36194122922292  0.10676162176218
 8 -5.77198668886889 -5.53670320042004 -0.06303356925693
 6 -4.58138576717672 -3.39665042664266  0.47493655575558
 6 -3.96121991989199 -3.76936102960296  1.90220674637464
 8 -4.25329040254025 -3.29195712961296  2.98422649074907
 8 -3.10602929052905 -4.83596856975698  1.78470889878988
 6 -2.68671337513751 -5.53685313141314  2.93142528212821
 6  2.64511668026803 -0.91226512411241 -1.06985101090109
 6  3.91635488228823 -0.59465996839684 -0.48086018611861
 6  4.95958821542154  0.17731878677868 -1.02493645024502
 6  4.86728592429243  0.77008774047405 -2.33512062886289
 6  6.22459420462046  0.43539127832783 -0.25033394759476
 6  7.58175941634163 -0.23860004290429 -0.89508637553755
 6  8.77237883898390 -0.21067505260526 -0.11371971947195
 6  10.08832975867587 -0.58986331293129 -0.88448580338034
 6  10.10978701730173 -2.06219002190219 -1.32980226512651
 6  11.32769661986199 -0.17079139383938 -0.04265482118212
 6  12.61387306150615 -0.39542485968597 -0.78746326942694
 6  13.78872746214621  0.05948872267227  0.13151520702070
 6  15.19844875667567 -0.06037691919192 -0.50063362126213
 6  15.46152572437244 -1.55060392579258 -0.81214998329833
 6  16.24313505780578  0.50448496579658  0.43446246854685
 6  17.67185207400740  0.75513843154315 -0.23997789918992
 6  18.67126805110511  1.47719204810481  0.69475029122912
 6  20.08150005160516  1.51866967156716  0.09713144064406
 6  20.18124882378238  2.41302787888789 -1.21937001480148
 6  20.98721124242424  2.15802714151415  1.21301308950895
 1 -3.91375903620362  3.37928916091609  1.57620250115012
 1 -9.92045989908991  4.06590383248325 -0.39005032773277
 1 -10.63620787718772 -2.12940009550955 -1.40168964206421
 1 -2.82114444144415 -1.21305054025403  2.12459333503350
 1 -2.30200151465146  1.38798902210221  1.41450436263626
 1 -2.03337359535954  0.54528089648965  3.78241734573457
 1 -2.97438293019302  1.91701675137514  3.88865906110611
 1 -4.10560015691569  0.24915009950995  3.94669984618462
 1 -2.39185469386939 -1.96389112221222 -0.21550599779978
 1 -2.07819115851585 -0.05353916291629 -0.44449114331433
 1 -0.45855167496750 -0.07821396779678  1.21609197049705
 1 -0.58318865816582 -1.64415637423742  1.47949545794579
 1 -4.23273809030903  5.90764513261326  1.08399119891989
 1 -5.76476168256826  6.94594950965097  1.66441573617362
 1 -4.89749783658366  5.47443548754875  2.62429656365637
 1 -8.06925193459346  7.09643951845184  1.30740229412941
 1 -8.89613496539654  5.98125828632863 -1.58164975107511
 1 -9.45147989458946  7.61288001550155 -0.84809503240324
 1 -11.99199356135614  4.07934712191219 -0.47041485458546
 1 -11.84873872217222  3.61257521492149 -2.21614093089309
 1 -13.05880690349035  2.61131896759676 -1.21637599299930
 1 -12.88095046824682 -1.08300722742274 -1.09124387548755
 1 -13.44669169366937  0.48465261996200 -1.69882224102410
 1 -12.48933456335634  0.24199101220122 -3.80524786908691
 1 -11.74701966996700 -1.28875644924492 -3.50012896499650
 1 -13.55142189568957 -1.15169426422642 -3.44654219651965
 1 -10.11696824562456 -4.59206852665267 -0.85981828382838
 1 -8.99691367026703 -4.45137308330833 -2.46059295749575
 1 -8.55798097279728 -5.54920318731873 -0.56765472097210
 1 -3.89797164856486 -3.60884717491749 -0.31312266086609
 1 -1.83792418541854 -6.27440253595360  2.60461379547955
 1 -2.20798924532453 -4.65698918281828  3.48689313191319
 1 -3.59365238163816 -6.17153224482448  3.23896077167717
 1  2.58518242574257 -1.88098574207421 -1.73325449244924
 1  2.46849174367437 -0.29690727152715 -1.87480524772477
 1  4.08292106380638 -1.05297761206121  0.58720662366237
 1  5.66445827502750  1.74310681968197 -2.25701042084208
 1  5.32373899109911  0.18366432893289 -3.40054145574557
 1  3.65094521272127  0.92966415321532 -2.50637146224623
 1  6.48095611181118  1.66336246124612 -0.28671886298630
 1  6.17622566726673  0.15188529892989  0.76361406880688
 1  7.38428521342134 -1.27712443704370 -0.97617837743774
 1  7.47818736123612  0.13214523512351 -1.99658448744874
 1  8.94112960036004  0.68788763006301  0.34187433573357
 1  8.41989505230523 -0.79801395289529  0.84191700410041
 1  10.13968663726373 -0.02761020432043 -1.93306788178818
 1  8.96437675387539 -2.20540923412341 -1.85528407620762
 1  10.84626965806581 -2.47622922272227 -2.00946155105510
 1  9.77258227832783 -2.74492617821782 -0.37193546284628
 1  11.12872817021702  0.81592037213721  0.25269385458546
 1  11.19248521202120 -0.74244948144815  0.91105103530353
 1  12.76584129472947 -1.35441701290129 -1.27185039803980
 1  12.79575772797280  0.47608752975297 -1.68516004970497
 1  13.49851100600060  1.09027873867387  0.21210412131213
 1  13.60360458745875 -0.58091451925193  1.02814966086609
 1  15.31757410161016  0.24498570467047 -1.52031404470447
 1  14.66410196309631 -1.95330791259126 -1.45665499869987
 1  16.51616549004900 -1.80006404300430 -1.40885666956696
 1  15.31201648044804 -2.33195832843284  0.14456372777278
 1  15.88354862806281  1.69582615291529  0.67447790679068
 1  16.52921757855786  0.04244486778678  1.52043546614661
 1  18.23750497219722 -0.29932414291429 -0.50328019581958
 1  17.62268685428543  1.28389027732773 -1.27640607310731
 1  18.34516920642064  2.64503089898990  0.79028441814181
 1  18.83113536773677  1.01318712821282  1.71544869486949
 1  20.52240857325733  0.49809777077708  0.03977513371337
 1  19.82726008260826  3.54920319041904 -0.97130903330333
 1  21.22335957965797  2.53970203990399 -1.33404651125113
 1  19.60600557355735  1.78955457715772 -2.00825300680068
 1  20.91435667216722  1.75571703970397  2.15900693729373
 1  21.97125998319832  2.14741476887689  0.89202335943594
 1  20.65256488588859  3.28941214081408  1.20790952885288
 1 -6.98833066616662  1.75434430763076  0.40650249634963
 1 -7.69484103250325 -0.11883205920592 -0.00302042964296

