%nproc=3
%Mem=2GB
# td=(NStates=1) B3LYP/SVP 

TD

0 1
 6 -5.19750744884488 -1.97519376147615  0.51767664356436
 6 -4.72321264026403  2.76394284598460  1.52613899979998
 6 -9.24779468916892  3.42562336153615 -0.17418588648865
 6 -9.77136519101910 -1.27525832923292 -1.29132168556856
 7 -5.15433459575958  0.41626324922492  0.95039347634763
 6 -4.56777539363936 -0.80882760376038  0.93214665806581
 6 -3.10245993249325 -0.69668610331033  1.38186318211821
 6 -3.06793175857586  0.82946183848385  2.04162326812681
 6 -4.39084827792779  1.35077489538954  1.50623422042204
 6 -3.03554212271227  0.85159267156716  3.56307417001700
 6 -2.14534660536054 -0.85845580728073  0.20392833843384
 6 -0.66593980618062 -0.91457967456746  0.65651810451045
 6  0.34063772517252 -1.19948682158216 -0.41869342694269
 8  0.10447221482148 -1.61976434303430 -1.52103571507151
 8  1.64983518061806 -0.90284705780578 -0.09545198789879
 7 -7.01396599119912  2.77975524732473  0.52143165236524
 6 -5.89729130453045  3.32672709100910  1.17328818571857
 6 -6.09403258895890  4.74886132563256  1.18637513031303
 6 -7.36560565736574  4.92439127462746  0.64068059545955
 6 -7.96563750965097  3.70184867856786  0.27395755115512
 6 -5.12033254975498  5.74332984808481  1.60960222622262
 6 -8.06495377807781  6.30939495109511  0.52818131943194
 6 -8.76655455365536  6.74952467436744 -0.58033051185119
 7 -9.17324552515251  1.07473470647065 -0.68529099749975
 6 -9.80138400130013  2.29832233093309 -0.69141841104110
 6 -11.22518638513851  1.96043960496050 -1.16032986688669
 6 -11.32722667316732  0.60372771287129 -1.23276823152315
 6 -10.02028425412541  0.08576862516252 -1.07306054855486
 6 -12.17673617451745  3.10860936253625 -1.20493358365837
 6 -12.57861560106011 -0.08087056655666 -1.83041400110011
 6 -12.46621675237524 -0.32044530893089 -3.40572874417442
 7 -7.45611456905691 -1.28423010821082 -0.35026355485549
 6 -8.54330591809181 -1.98900762756276 -0.90715407780778
 6 -8.27317975697570 -3.32310919311931 -0.82523509080908
 6 -6.87596250535054 -3.36756358465847 -0.25968359225923
 6 -6.47526863026303 -1.96272909150915 -0.04636956075608
 6 -9.11288404600460 -4.53320406990699 -1.27672666706671
 6 -5.80992793799380 -4.27477251235124  0.05197614321432
 8 -5.86505599579958 -5.40126965706571 -0.10124739063906
 6 -4.59140676927693 -3.43348411001100  0.54616367846785
 6 -4.08698249614961 -3.85926001950195  1.79283580928093
 8 -4.26814188768877 -3.42972090599060  2.93198126622662
 8 -3.28555724332433 -4.86857183008301  1.62903333123312
 6 -2.76519122292229 -5.48495794189419  2.86776891649165
 6  2.70990315891589 -1.26249014661466 -0.99152317811781
 6  3.99449269606961 -0.83986448884888 -0.39541164126413
 6  5.02173443004300 -0.33782272737274 -1.07046100270027
 6  4.95498469416942  0.17310804250425 -2.52039915671567
 6  6.39483122832283  0.01835957515752 -0.34628354255426
 6  7.49837107750775 -0.64434061696170 -0.85688255515552
 6  8.80677227832783 -0.36244022912291 -0.17868621612161
 6  10.08011893759376 -1.04036836343634 -0.67255461026103
 6  10.03599963856386 -2.44264806770677 -0.71831111601160
 6  11.38089193939394 -0.46174048874888  0.02591203550355
 6  12.72066374057406 -0.75609092629263 -0.61757628072807
 6  13.82588117751775 -0.04414164036404  0.12725478097810
 6  15.25007391919192 -0.23132401390139 -0.57486104400440
 6  15.81930150195019 -1.70735960136014 -0.33794256255626
 6  16.23946469076908  0.83852837013701  0.24995401770177
 6  17.57079196799680  0.95375829352935 -0.36575047644764
 6  18.40333125742574  1.97362169106911  0.48667948414841
 6  19.93328523012301  2.15164296889689  0.00971269876988
 6  20.12520321922192  2.64937151325133 -1.54021209900990
 6  20.72626514781478  3.11857319611961  0.93272506070607
 1 -4.05403306360636  3.42692392439244  2.01516639753975
 1 -9.83127098019802  4.36205344744474  0.12845152245224
 1 -10.46114037043704 -1.89945710121012 -1.57331680478048
 1 -3.01028335533553 -1.38955819101910  2.29496037173717
 1 -2.26235755025503  1.47401762496250  1.44134704690469
 1 -2.04920517851785  0.54827119551955  3.98514761876188
 1 -3.10523601550155  1.85790083978398  3.94259445464546
 1 -3.94063366026603  0.06045122962296  3.76152132833283
 1 -2.27596310471047 -1.89278401150115 -0.18544299149915
 1 -2.43473681308131 -0.11056486548655 -0.49507620182018
 1 -0.37521334113411  0.05079893349335  0.95452581388139
 1 -0.63450378967897 -1.40814277287729  1.62922043044304
 1 -4.17375219171917  5.79199356745675  0.94180698049805
 1 -5.39327453385339  6.83280819551955  1.52165145974597
 1 -4.75758384518452  5.54454249824983  2.59329346334633
 1 -7.83976898629863  6.87264713921392  1.44997655155516
 1 -8.93987933983398  5.99461962246225 -1.48723030913091
 1 -9.12029677627763  7.74965369286929 -0.78571879477948
 1 -12.40726508850885  3.45333452065207 -0.20604841794179
 1 -11.70346419471947  3.88649260666067 -1.81623093989399
 1 -13.11021204400440  2.82972080778078 -1.65260961636164
 1 -12.56598897209721 -1.19726865356536 -1.40527527862786
 1 -13.62596962146215  0.23511766646665 -1.49959231803180
 1 -12.38974460436044  0.53961077417742 -4.15767311161116
 1 -11.67373234123412 -1.00454802840284 -3.59664861696170
 1 -13.40035678917892 -0.88810790559056 -3.80835837813781
 1 -10.13705025382538 -4.67256657645765 -0.74209651165116
 1 -9.25975995489549 -4.42898084408441 -2.27868476667667
 1 -8.50040521522152 -5.49118738573857 -1.06952490799080
 1 -3.80594244564456 -3.31712800300030 -0.34552590119012
 1 -2.04757515051505 -6.27558265396540  2.48924225832583
 1 -2.22736118251825 -4.63934741864187  3.37179162176218
 1 -3.72005502190219 -5.86926201780178  3.54417129272927
 1  2.79516342384238 -2.40871851535154 -1.04400556755676
 1  2.59605449995000 -0.86642422322232 -2.02664043124312
 1  4.11782455415542 -1.09337165146515  0.75468337133713
 1  5.42994482368237  1.06785929492949 -2.31800652045205
 1  5.49760637783778 -0.47158119561956 -3.05684708630863
 1  3.87069718791879  0.30878206500650 -2.75617644274427
 1  6.43085110131013  1.22072819781978 -0.30722091319132
 1  6.26960500520052 -0.21488137773777  0.81391909930993
 1  7.19018580348035 -1.64606133073307 -0.71690244984498
 1  7.68385792829283 -0.46629460886089 -2.04594942394239
 1  8.86586207360736  0.88830767206721 -0.06198605030503
 1  8.60206326912691 -0.75112926442644  0.85282809520952
 1  10.17293996259626 -0.61000844414442 -1.56312088708871
 1  9.21004132033203 -3.10634932813281 -1.19464801260126
 1  10.90200523162316 -2.70669226902690 -1.04072467736774
 1  10.05120014011401 -2.90193187878788  0.23148487918792
 1  11.33977927532753  0.64702348244824 -0.00108152295230
 1  11.27754371787179 -0.64151938843884  1.12634256445645
 1  12.89277398799880 -1.84892646384638 -0.81327454045405
 1  12.58002615481548 -0.49415949494950 -1.71994352805281
 1  13.66819797469747  1.02969268006801  0.18886179707971
 1  13.79812403940394 -0.50126655445545  1.16048289418942
 1  15.02965530973097 -0.00571936583658 -1.69106111941194
 1  15.22033758665867 -2.31798438023802 -0.81825115831583
 1  16.66453032653265 -1.86926096269627 -1.10961674557456
 1  15.99437471627163 -1.94530966356636  0.61209048044805
 1  15.81911218441844  1.78929549984998  0.30935139413941
 1  16.41666632343235  0.42413303660366  1.20170359295930
 1  17.93701492319232 -0.03649786028603 -0.60248011581158
 1  17.40438502410241  1.41600348864887 -1.33824225672567
 1  17.88267295679568  3.03885028092809  0.40074546424642
 1  18.49196145034504  1.74419022852285  1.57569471947195
 1  20.38858519091909  1.25185314631463 -0.17022586638664
 1  19.37847520412041  3.59880815091509 -1.81870377277728
 1  21.34583182688269  2.87958602830283 -1.57924103070307
 1  19.94831980498050  1.72224784648465 -2.30386256775678
 1  20.83855909240924  2.79823129112911  2.03120415701570
 1  21.73419627682769  3.18303833123312  0.79222337943794
 1  20.04577420682068  4.22978617821782  0.91307004490449
 1 -7.18627046014601  1.79301817501750  0.65144699079908
 1 -7.34464601300130 -0.24969514551455 -0.29831995959596

