%nproc=3
%Mem=2GB
# td=(NStates=1) B3LYP/SVP 

TD

0 1
 6 -5.04139183728373 -1.82299854195420  0.33141801770177
 6 -4.95917623662366  2.82814926662666  1.40493687958796
 6 -9.49983989368937  3.20338113731373 -0.25691415931593
 6 -9.91771982648265 -1.62564336773677 -0.95531808520852
 7 -5.18171733403340  0.45290691359136  0.71744018101810
 6 -4.43835245134513 -0.63742046304630  0.69009245264526
 6 -2.98925861236124 -0.43720015471547  1.21645664146415
 6 -3.08662362776278  1.04622351465147  1.78098720452045
 6 -4.49851904500450  1.56876669456946  1.20491408840884
 6 -3.04614318281828  1.19117662996300  3.19845770837084
 6 -2.04757682838284 -0.51492145384538  0.08955690129013
 6 -0.52124533673367 -0.71000921752175  0.49983243594359
 6  0.49089275067507 -0.75374224712471 -0.67557911551155
 8  0.11412317991799 -1.09786215281528 -1.79435304680468
 8  1.64753495059506 -0.75782255535554 -0.25794823752375
 7 -7.08419301390139  2.76295356715672  0.40016952615262
 6 -6.18741031643164  3.36776119441944  1.07482833973397
 6 -6.53326651235123  4.82448888838884  1.17942443524352
 6 -7.77434653145315  4.90968980448045  0.56936346374637
 6 -8.24597554345435  3.67460595429543  0.22438259365937
 6 -5.53981449794979  5.92067758285829  1.65343660966097
 6 -8.46053333603360  6.15791980358036  0.37867636893689
 6 -9.24882278047805  6.53682340424042 -0.61042352115211
 7 -9.24914311491149  0.70598783178318 -0.46710917931793
 6 -9.95323918681868  1.88142064076408 -0.54849411861186
 6 -11.27991185768577  1.61930549154915 -0.87478131203120
 6 -11.51900585108511  0.26730407050705 -1.10346530123012
 6 -10.13393561926192 -0.28087803950395 -0.81657489999000
 6 -12.37631613251325  2.74797329892989 -1.01787487778778
 6 -12.71406914641464 -0.48375085458546 -1.60610156985699
 6 -12.68508863956396 -0.41731499589959 -3.05934410571057
 7 -7.55369432703270 -1.33205489068907 -0.21149967846785
 6 -8.60978256575658 -2.15553428022802 -0.60219358175818
 6 -8.11345378437844 -3.59607648984898 -0.57239980728073
 6 -6.77527243634363 -3.37180400870087 -0.21422904680468
 6 -6.41683278667867 -2.04287710631063 -0.01714663846385
 6 -8.73022578017802 -4.86381713121312 -0.96216521092109
 6 -5.56957390259026 -4.24482951805181  0.02367331293129
 8 -5.35474496469647 -5.40674020412041 -0.05746301220122
 6 -4.37209483808381 -3.22186294789479  0.37246630873087
 6 -3.85828962686269 -3.61288538203820  1.68625515121512
 8 -4.01856693019302 -3.06339427332733  2.75566363446345
 8 -2.94773346094609 -4.61745671857186  1.59097952585259
 6 -2.56749145294530 -5.18320776687669  2.91198333793379
 6  2.71440360896090 -0.85905980358036 -1.20532455825583
 6  4.08063130993099 -0.56286678907891 -0.61310341044104
 6  5.10357261386139  0.18995004990499 -1.14840879747975
 6  5.02974216991699  1.05688642034203 -2.33932104890489
 6  6.36560830603060  0.31031877107711 -0.21673058725873
 6  7.60132137253725 -0.15408159105911 -1.04428129502950
 6  8.78458005910591 -0.19594357945795 -0.05458380588059
 6  10.02783370907091 -0.72635696229623 -0.76688404320432
 6  9.99384542314231 -2.25188899179918 -1.17074635953595
 6  11.27263111331133 -0.43091740644064  0.17070651495150
 6  12.73606528072807 -0.81225654285429 -0.56216073917392
 6  13.89132772217222 -0.30433765996600  0.34104616011601
 6  15.32782169396940 -0.36367724922492 -0.32320587848785
 6  15.71616118791879 -1.85114397979798 -0.54232300060006
 6  16.38154889918992  0.43494801210121  0.45451447374737
 6  17.61729661846185  0.60471338903890 -0.25330923232323
 6  18.74531545584559  1.29417374627463  0.68418923512351
 6  20.06297819941994  1.39241704630463  0.03459518701870
 6  20.19481017991799  2.26305288138814 -1.22655073287329
 6  20.98487100840084  2.11480281908191  1.21300308850885
 1 -4.32269993029303  3.52504373637364  1.88075295619562
 1 -10.08506635973597  4.09478672077208 -0.62061338403840
 1 -10.75275953235323 -2.10137729322932 -1.25660513361336
 1 -2.68257058405841 -1.21605084028403  1.91576245194519
 1 -2.26216753125313  1.64923514671467  1.38613152535254
 1 -2.17936819481948  0.87456382478248  3.55395449944995
 1 -3.14536002790279  2.22766781648165  3.64321451665167
 1 -3.74820441734173  0.36079126362636  3.70342551875187
 1 -2.33911942034203 -1.33368810191019 -0.45071951915192
 1 -1.97418075747575  0.50006619761976 -0.42157885208521
 1 -0.31772759255926  0.18877273087309  1.15480584188419
 1 -0.11898223752375 -1.71692365096510  1.16313382178218
 1 -4.83213803030303  6.04132850095009  0.74185698549855
 1 -6.03442864926493  6.95903081778178  1.59154844944494
 1 -5.11618970577058  5.80699874387439  2.77142127612761
 1 -7.97293230263026  6.94130400490049  1.20547210111011
 1 -9.54107945984598  5.71057121762176 -1.30342192829283
 1 -9.73905865246525  7.47612634013401 -0.68564878777878
 1 -12.52545690769077  3.25802498969897 -0.19559737283728
 1 -11.96877072537254  3.43574753215322 -1.86260557735774
 1 -13.22810383318332  2.55362319801980 -1.34920927632763
 1 -12.67735010821082 -1.58914784148415 -1.16560131123112
 1 -13.57252427692769  0.00669482418242 -1.23262562136214
 1 -12.71450708060806  0.69271608470847 -3.65596294059406
 1 -11.76544151215121 -0.93489106270627 -3.60026897899790
 1 -13.67970472397240 -0.86872596739674 -3.40573811611161
 1 -9.61188773757376 -5.14405372517252 -0.24382668466847
 1 -9.04888886778678 -4.97264521052105 -2.05188208640864
 1 -7.97985316001600 -5.80003827082708 -0.66580453595360
 1 -3.54330618201820 -3.51658794899490 -0.44254560316032
 1 -1.97005739873987 -6.12302739843984  2.80777411151115
 1 -2.13103154955496 -4.51679516341634  3.47662210481048
 1 -3.24996801320132 -5.73690878247825  3.57280415601560
 1  2.70866477397740 -1.77729537303730 -1.60335150215022
 1  2.47945283978398 -0.17483506430643 -2.15135290249025
 1  4.20199297099710 -1.07336965126513  0.25613351635164
 1  5.26064789398940  2.26505901490149 -2.07359207900790
 1  5.53180979817982  0.93110907340734 -3.25552695429543
 1  4.01638175637564  1.12264345114512 -2.87846867196720
 1  6.35238325452545  1.28466459145915  0.04452426132613
 1  6.24316236093609 -0.29826971657166  0.77706541394139
 1  7.57525431033103 -1.33377010161016 -1.46726748634864
 1  8.02015155765577  0.38260028062806 -1.79859468846885
 1  9.05664115151515  0.71172001330133  0.17215736403640
 1  8.61424448724872 -0.87184133563356  0.82859567196720
 1  10.08383105170517 -0.23678112141214 -1.74508908390839
 1  9.07521783798380 -2.26300499369937 -1.87099564736474
 1  10.90283531463146 -2.26402800260026 -1.82581318621862
 1  10.09592461256126 -2.75635732133213 -0.18114638393839
 1  11.24902019941994  0.66093487358736  0.65025361056106
 1  11.01514747824782 -0.99536477297730  1.00188011821182
 1  12.71134584518452 -1.74652622382238 -0.85882909590959
 1  12.70528868106811 -0.16189626862686 -1.64151568526853
 1  13.60603175807581  0.65231494229423  0.58273118401840
 1  13.73594782178218 -0.78438486628663  1.43933077897790
 1  15.30799314351435  0.05843704980498 -1.35588760206021
 1  15.23039859275928 -2.45020760256026 -1.24386371957196
 1  16.70722459595959 -1.87271130773077 -1.29492527642764
 1  15.98017329612961 -2.45161029362936  0.39805907730773
 1  15.97988826202620  1.43776034633463  0.53919437843784
 1  16.49745440224023 -0.19509888658866  1.34239766236624
 1  18.11928315001500 -0.30832504300430 -0.54823469126913
 1  17.63501808740874  1.40819270757076 -1.18984741724172
 1  18.41067575707571  2.37098349424943  1.02672806250625
 1  18.83052530673067  0.90215602510251  1.82600975097510
 1  20.57419375177518  0.42527048804881 -0.18532737653765
 1  19.78312566916692  3.39538780888089 -0.87640954335434
 1  21.31463870757076  2.20897896759676 -1.47726083268327
 1  19.58099307230723  1.83464908660866 -2.18505068656866
 1  21.06575181168117  1.74272574057406  2.20968200480048
 1  21.95054791199120  2.38384841224122  0.72655681278128
 1  20.64809443884388  3.06898009760976  1.42472121002100
 1 -7.05612744584458  1.75899477267727  0.36136798289829
 1 -7.86980852925292 -0.27394757075708 -0.33459358695870

