%nproc=3
%Mem=2GB
# td=(NStates=1) B3LYP/SVP 

TD

0 1
 6 -5.04527222532253 -1.92640888298830  0.39333420932093
 6 -4.78731905090509  2.70551700340034  1.34039042494249
 6 -9.29393930363036  3.37620842004200 -0.23834230213021
 6 -9.82992104660466 -1.38187899129913 -1.00071262466247
 7 -5.15016417871787  0.39265088798880  0.80002843984398
 6 -4.46962557865787 -0.82582930393039  0.83311675507551
 6 -3.01561124762476 -0.55291172587259  1.29885488128813
 6 -2.99923488888889  0.87263615591559  1.71745085088509
 6 -4.35740493359336  1.38699851775178  1.28186178317832
 6 -2.82751131963196  1.07020453275328  3.11276913951395
 6 -2.06820889158916 -0.94458442014201  0.01132907850785
 6 -0.59387259945995 -0.92239045564556  0.40940339303930
 6  0.36894055545555 -1.27266413931393 -0.54673623122312
 8  0.07636940454045 -1.62100446704671 -1.65380899239924
 8  1.65009520662066 -1.06041281438144 -0.11413385608561
 7 -7.09705430003000  2.75897316911691  0.45631514071407
 6 -5.98030960636064  3.26106052435244  1.00903176007601
 6 -6.17928111381138  4.75633207270727  1.03375986878688
 6 -7.45467456425643  4.97188602410241  0.59173570097010
 6 -8.03231417731773  3.66514500820082  0.25615577097710
 6 -5.10356087258726  5.89631514661466  1.38810007600760
 6 -8.01794907760776  6.32606661826183  0.38720722202220
 6 -8.94416231443144  6.73642336423642 -0.51139361816182
 7 -9.18812701330133  0.87780501350135 -0.47426989538954
 6 -9.84134799769977  2.10659315801580 -0.46764603380338
 6 -11.14470833733373  1.97939150015002 -0.85316915081508
 6 -11.43720767126713  0.63193053315332 -1.02125708040804
 6 -10.09467169286929 -0.02144209590959 -0.89573281578158
 6 -12.24949345024502  3.04557305890589 -0.79457254755476
 6 -12.68493623312331 -0.09082156165617 -1.46887784748475
 6 -12.76616674737474 -0.54853811821182 -3.00885905720572
 7 -7.41532048964896 -1.15426711191119 -0.29860838933893
 6 -8.58152974047405 -1.91048977577758 -0.68171153355336
 6 -8.25790822982298 -3.34076095829583 -0.66633920122012
 6 -6.94338924802480 -3.38068489678968 -0.23767139103910
 6 -6.46419752315232 -2.07516033463346  0.01354643084308
 6 -9.16224898249825 -4.47150790029003 -0.89718871327133
 6 -5.77514445964596 -4.37547258235824  0.06080702630263
 8 -5.87715720592059 -5.57410694079408  0.09336207030703
 6 -4.48065569416942 -3.41921268286829  0.35700476257626
 6 -3.84834863276328 -3.84985907940794  1.52418894459446
 8 -4.08622369586959 -3.36517445134513  2.69343741184118
 8 -3.12948163576358 -4.97988296119612  1.36766719461946
 6 -2.65703040684068 -5.51034048014801  2.55517765736574
 6  2.71683385198520 -1.35247914551455 -1.06783080888089
 6  4.06783002980298 -0.85800630303030 -0.68019011911191
 6  4.92669492609261 -0.04363330843084 -1.26852080868087
 6  4.76141533723372  0.58629936163616 -2.73417053385339
 6  6.25187693289329  0.27998573777378 -0.53477239143914
 6  7.53475471587159 -0.32084826772677 -1.18209507640764
 6  8.77647924902490 -0.16062004710471 -0.12585093259326
 6  10.10517144284428 -0.70129445604560 -0.75344269906991
 6  10.05196123472347 -2.22013581648165 -0.73864314921492
 6  11.31458530873087 -0.20660497519752  0.04297374167417
 6  12.73272494669467 -0.67262257945795 -0.41263578667867
 6  13.81647023642364  0.11628440224022  0.39194124962496
 6  15.23310222202220 -0.19426030753075 -0.20539409730973
 6  15.63881345314531 -1.67806667206721 -0.07467623592359
 6  16.22383312761276  0.76865138243824  0.49242826512651
 6  17.64113900270027  0.81817473517352 -0.21149505090509
 6  18.54884580888089  1.68600292919292  0.64088490469047
 6  20.06411831343134  1.80528833343334  0.01807353485349
 6  20.12269296819682  2.28955553165317 -1.31066914471447
 6  20.81882440374038  2.60867220602060  1.02432422062206
 1 -3.91714937523752  3.46913814581458  1.53910879177918
 1 -9.79198705180518  4.06590383248325 -0.53629495219522
 1 -10.76711096749675 -2.07452460796080 -1.36276574967497
 1 -3.05205753275328 -1.32505174037404  2.14971584728473
 1 -2.02294360886089  1.27580780398040  1.23595650785079
 1 -1.70984124212421  0.68774514291429  3.56996610061006
 1 -3.08922441434143  2.19959500920092  3.62917311251125
 1 -3.65789538643864  0.29525470997100  3.65757093329333
 1 -2.48586409480948 -1.77152188528853 -0.38024247144714
 1 -2.38775211461146 -0.33958776777678 -0.61527822202220
 1 -0.13058887868787  0.20399425302530  0.81029139043904
 1 -0.55436577587759 -1.42840479907991  1.43497100550055
 1 -4.15003982048205  5.76277064516452  0.69829262906291
 1 -5.38103330973097  6.86387130183018  1.32864215881588
 1 -4.74241232803280  5.63763180718072  2.43642777677768
 1 -7.83687869726973  7.15994586908691  1.11485303920392
 1 -9.50966631853185  6.16514667516752 -1.26383796989699
 1 -9.15074982158216  7.82733146064606 -0.30868109100910
 1 -12.74648901090109  3.52398158535854  0.16459864676468
 1 -11.66462031033103  4.05373933133313 -1.34948426522652
 1 -13.06478750155016  2.62147998369837 -1.44385874127413
 1 -12.77764013721372 -1.00921984868487 -0.87037178827883
 1 -13.69320634513451  0.52359651435143 -1.30165252405241
 1 -12.78464409430943  0.18866567966797 -3.81786913121312
 1 -11.95676064406441 -1.20454802840284 -3.43572252435243
 1 -13.71841859535954 -1.16059515431543 -3.21642918521852
 1 -10.01107765656566 -4.63764308410841 -0.01459376137614
 1 -9.78707268616862 -4.26997494349435 -1.86871376957696
 1 -8.71496667136714 -5.64027229422942 -0.81062901840184
 1 -3.90170202160216 -3.38747503770377 -0.56366771537154
 1 -1.87768816181618 -6.30261535723572  2.39298263236324
 1 -2.17128557495750 -4.84099758365837  3.10819526212621
 1 -3.40790380678068 -5.82478757035704  3.18218509410941
 1  2.55943985148515 -2.55305294879488 -1.36225739273927
 1  2.34550944544454 -0.81030861166117 -1.95759352655266
 1  4.39678244994499 -1.36313862816282  0.30557846084608
 1  4.83848567776778  1.76807931693169 -2.48964368416842
 1  5.67936455365537  0.24424038653865 -3.33751515311531
 1  3.70097021522152  0.38170935773577 -3.11862268736874
 1  6.29780779697970  1.37778390339034 -0.45579577067707
 1  6.09447749244925  0.09809992039204  0.55388309570957
 1  7.48961574647465 -1.45790251485148 -1.42150290989099
 1  7.88991853435344  0.20099211981198 -2.21016584558456
 1  8.66321180858086  0.90920976227623 -0.07625747744774
 1  8.67187024982498 -0.55018917041704  0.92070488288829
 1  10.22997566616662 -0.25012245554555 -1.69494406940694
 1  9.13854417061706 -2.73177187038704 -1.02870141794179
 1  11.06429146024602 -2.34293589338934 -1.30313091799180
 1  9.98722374247425 -2.55465715131513  0.36695842654265
 1  11.24080937833783  1.12552133223322  0.19780836603660
 1  11.11190715421542 -0.58986422292229  1.22471240144014
 1  12.80903561416142 -1.74929650085008 -0.22927614061406
 1  12.76553470567057 -0.35679575857586 -1.36347788148815
 1  13.67261841674167  1.26163587438744  0.35145805670567
 1  13.75748997599760  0.01123469566957  1.63578042394239
 1  14.92911525572557  0.13045425152515 -1.23037505080508
 1  14.75704125702570 -2.18280086188619 -0.57624695789579
 1  16.45116899039904 -1.89039307590759 -0.73728951285129
 1  15.56459173797380 -1.92805793839384  1.09597886928693
 1  15.97306757995800  1.90164673497350  0.42644310331033
 1  16.39385404220422  0.47169779307931  1.77835125772577
 1  18.15603682538254 -0.00827503800380 -0.06995686348635
 1  17.45794037963796  0.98017990629063 -1.23385181768177
 1  18.09310399989999  2.63588998489849  0.63872926262626
 1  18.79296155035504  1.09327513701370  1.73777092709271
 1  20.41514784718472  0.65673363436344  0.07044820102010
 1  19.60622797939794  3.29703797389739 -1.40775267766777
 1  21.08270551425143  2.27941601130113 -1.64923803040304
 1  19.75845081808181  1.51480710241024 -2.11388356985699
 1  20.80338557505751  2.34492596059606  2.07316835343534
 1  21.90072292949295  2.71267129452945  0.73974813191319
 1  20.60146977637764  3.78249144874487  0.95602434033403
 1 -6.97246908000800  1.86516538973897  0.25401724782478
 1 -7.32072362076208 -0.14245442144214 -0.13360348794879

