%nproc=3
%Mem=2GB
# td=(NStates=1) B3LYP/SVP 

TD

0 1
 6 -5.15847354545455 -1.97383362546255  0.44527940384038
 6 -4.59661998099810  2.65096154785479  1.46404279017902
 6 -9.14839474917492  3.50689148834883 -0.49493796169617
 6 -9.79867792229223 -1.34138494189419 -1.00585313871387
 7 -5.13617277957796  0.38394001690169  0.88473691069107
 6 -4.54996361246125 -0.83734045504550  0.80219366276628
 6 -3.05160484698470 -0.69573600830083  1.28845384118412
 6 -3.08059302470247  0.72679157145715  1.94374348014801
 6 -4.35314450755075  1.34978479637964  1.35907950495050
 6 -2.96458502700270  0.62506001830183  3.44116197879788
 6 -2.00501257195720 -0.86500646234623  0.04510245584558
 6 -0.59281249344935 -1.05079329592959  0.62231468416842
 6  0.43573723512351 -1.45045191809181 -0.33435499309931
 8  0.15957772537254 -1.76514888148815 -1.50782439393939
 8  1.66338653575358 -1.22276905000500 -0.00773321602160
 7 -6.92551714631463  2.78281555335534  0.42271178037804
 6 -5.75941751715172  3.27624204250425  1.04027488438844
 6 -6.06724991069107  4.75947238673867  1.04338083088309
 6 -7.25894499129913  4.85538437393739  0.52856938433843
 6 -7.84653559945995  3.69635812951295  0.05345550095010
 6 -5.02599311581158  5.74367988308831  1.71837310331033
 6 -7.95557283998400  6.24465847744774  0.31737023832383
 6 -8.69725762396240  6.75932565446545 -0.68252073087309
 7 -9.13392159275928  0.99980721372137 -0.51175364376438
 6 -9.70311417431743  2.22259475817582 -0.55540480968097
 6 -11.11286515301530  2.04839840084008 -1.10182401630163
 6 -11.39982393289329  0.69341668176818 -1.26172112681268
 6 -10.11113333903390  0.00303035133513 -0.84839808230823
 6 -12.01617011791179  3.14282278387839 -1.23102619291929
 6 -12.61429916941694  0.02229975047505 -1.79297025672567
 6 -12.47026715741574 -0.25219848424842 -3.32799097039704
 7 -7.54598355595560 -1.14511619681968 -0.34871339983998
 6 -8.60842242974297 -1.88194692149215 -0.69334269666967
 6 -8.31981442044204 -3.31249813201320 -0.51055362266227
 6 -6.97699260836084 -3.35408223652365 -0.29429705360536
 6 -6.48532963636364 -2.05485830443044 -0.07252217601760
 6 -9.24361711931193 -4.36357710721072 -0.83445243964396
 6 -5.89743668886889 -4.29469450455046  0.14298524412441
 8 -5.83062255245525 -5.51447097719772  0.04291702580258
 6 -4.64800242884288 -3.37472823442344  0.50195925802580
 6 -4.11525532343234 -3.96324041754175  1.78991551725172
 8 -4.30502557605761 -3.39172710661066  2.84709277737774
 8 -3.49393808140814 -5.01807678057806  1.56566699459946
 6 -3.08184288808881 -5.65815526162616  2.74885702530253
 6  2.70655282388239 -1.30054395199520 -1.10186421222122
 6  3.93221646844684 -0.94657515991599 -0.47915001510151
 6  4.91994425102510 -0.15159410451045 -1.00456441304130
 6  4.71106030173017  0.63532426412641 -2.28254537133713
 6  6.15723746894689  0.04343208240824 -0.23681259545955
 6  7.48967020742074 -0.49591577447745 -0.95472233913391
 6  8.68878047914792 -0.25704969006901 -0.12882122962296
 6  10.00436136183618 -0.90954528112811 -0.68698605340534
 6  10.02131817041704 -2.35901970487049 -0.87399668456846
 6  11.32307615781578 -0.31243555825583  0.06102554685469
 6  12.58903057725773 -0.57833315051505 -0.61356587968797
 6  13.88613720312031  0.06628940274027  0.11994404990499
 6  15.24416332813281  0.02428154665467 -0.54129768766877
 6  15.75850542234223 -1.37534640004000 -0.75177394569457
 6  16.21239198349835  0.87926244354435  0.32853187548755
 6  17.71080596939694  1.05994891259126 -0.31186508790879
 6  18.61057198149815  1.93798812771277  0.53506432263226
 6  20.06796869846985  2.00963876847685  0.10928265576558
 6  20.14599529842984  2.56450302640264 -1.31485956375638
 6  20.96452897419742  2.85263660246025  0.98220000820082
 1 -3.79733739403940  3.18528976097610  2.03680856175618
 1 -9.66973482658266  4.48304554665467 -0.71925324802480
 1 -10.61239549594959 -2.00055721122112 -1.19462893599360
 1 -2.87079940694069 -1.31318055325533  1.97953882958296
 1 -2.15491680618062  1.14959518271827  1.52451536373637
 1 -1.97324758275828  0.41558792719272  3.94302340634063
 1 -2.92410790269027  1.63258830853085  4.07040723592359
 1 -3.75852544944494  0.06175135963596  3.83472864906491
 1 -2.35750125852585 -1.73940867396740 -0.64233868106811
 1 -2.13191653105310  0.26084227522752 -0.59075576977698
 1 -0.02831865166517 -0.31525767216722  1.47975833713371
 1 -0.63373371267127 -2.23857581618162  1.17104461286129
 1 -3.97457227372737  5.65338970707071  1.30074287408741
 1 -5.33180838723872  6.84299921462146  1.64818411301130
 1 -4.91239932673267  5.48234627862786  2.70315444944494
 1 -7.79024403380338  6.97084695919592  1.27960951485149
 1 -8.84742009390939  6.15135529602960 -1.65818740484048
 1 -9.15730047664766  7.70765949344934 -0.80804102700270
 1 -12.12404676667667  3.78236742394239 -0.35173298639864
 1 -11.91045489378938  3.91039499689969 -2.02837215401540
 1 -13.06685770857086  2.72127996369637 -1.56565092049205
 1 -12.67524989818982 -0.88172709940994 -1.22771752285229
 1 -13.63475049954995  0.56804095879588 -1.71529388818882
 1 -12.29271490139014  0.73516032913291 -3.77598494279428
 1 -11.66661162916292 -0.87478505210521 -3.81249020112011
 1 -13.64921167466747 -0.59389848464846 -3.82738028032803
 1 -10.42605915471547 -4.28267758755876 -0.48050035203520
 1 -9.09291327022702 -4.73797174317432 -2.03788068626863
 1 -8.93175835053505 -5.53669193619362 -0.15202315781578
 1 -3.77843969536954 -3.46011230143014 -0.11879322792279
 1 -2.26932732573257 -6.53107820352035  2.55805914001400
 1 -2.46424487088709 -4.87101058495850  3.12328677127713
 1 -3.79312232863286 -5.97454254585459  3.37426430203020
 1  2.72933684118412 -2.47720536403640 -1.33362452945295
 1  2.28010290479048 -0.81604918571857 -2.02544031123112
 1  4.07354012571257 -1.46713902820282  0.52674057705771
 1  4.90945277447745  1.68306081508151 -1.99541426122612
 1  5.32435905310531  0.05971193369337 -3.15862726432643
 1  3.79790990919092  0.51136232303230 -2.51852267736774
 1  6.34230224642464  1.22950907590759 -0.29938012911291
 1  5.97366541124112 -0.23937382698270  0.65256296369637
 1  7.30510729562956 -1.65884260886089 -1.16624738433843
 1  7.50829037153715 -0.07113509290929 -1.88515334433443
 1  8.93462895029503  0.77055589688969  0.04872502080208
 1  8.57558062086209 -0.49069322082208  0.97440025242524
 1  10.14438710731073 -0.51287873117312 -1.75589016401640
 1  9.12198251445144 -2.70638933213321 -1.71137968576858
 1  10.96314134523452 -2.72193379317932 -1.33072367726773
 1  9.69377439753976 -2.86956864246425  0.04525625632563
 1  11.03422872027203  0.74074285438544  0.51921050625063
 1  11.25384134763476 -0.87368260476048  1.03692362256226
 1  12.97096180678068 -1.47640921212121 -0.85787900090009
 1  12.48456660886089  0.04228414941494 -1.67063859755976
 1  13.43603475837584  1.11060077087709  0.61388429932993
 1  14.23016724372437 -0.59824625242524  0.92361920782078
 1  15.01311365556556  0.32278348444844 -1.52768478177818
 1  15.24697024992499 -2.13010559235924 -1.50163949714971
 1  16.80461433493349 -1.45975001160116 -1.37855363926393
 1  15.57832311111111 -2.23702883548355  0.15727499889989
 1  15.77966824002400  1.84176074637464  0.39796025502550
 1  16.25077973477348  0.34916553985399  1.32103552615262
 1  18.10606182788279  0.02515830533053 -0.46860672847285
 1  17.30737532313231  1.68648053635364 -1.35167359985999
 1  18.40128481798180  2.90931732763276  0.78986437613761
 1  18.46713896809681  1.49529533903390  1.75690284028403
 1  20.40465679807981  0.92698065906591 -0.07988683248325
 1  19.60814817141714  3.49423769386939 -1.29590149254925
 1  21.19357660136014  2.61395946564656 -1.69924303090309
 1  19.44279925292529  1.81675729742974 -1.98169035053505
 1  20.92569780628063  2.61543301130113  2.03619465606561
 1  21.99573243044305  3.03783381078108  0.74048820592059
 1  20.43698332773277  3.73751695129513  1.09537827572757
 1 -7.16926875997600  1.89525839903990  0.52612445854585
 1 -7.71283283168317 -0.16198637463746 -0.15643577117712

