%nproc=3
%Mem=2GB
# td=(NStates=1) B3LYP/SVP 

TD

0 1
 6 -5.07133483158316 -1.95091133323332  0.53604848074807
 6 -4.77831815081508  2.81020747244725  1.41524791069107
 6 -9.32000190989099  3.45507630683068 -0.24353282118212
 6 -9.80222827732773 -1.44308511191119 -0.84055660906091
 7 -5.11100026232623  0.41480310321032  0.80722915991599
 6 -4.43787240334033 -0.79478619961996  0.85596904030403
 6 -3.06219590609061 -0.57807424212421  1.29921491729173
 6 -3.04891985738574  0.87454634693469  1.91947105290529
 6 -4.33853304640464  1.41552137003700  1.34232782978298
 6 -3.04767333583358  0.97575508780878  3.50007787038704
 6 -2.07723979467947 -0.81198115981598  0.09432737833783
 6 -0.59610282248225 -0.74214243084308  0.62201465416542
 6  0.32390605200520 -1.17147402030203 -0.57755931353135
 8 -0.03754198659866 -1.69823218981898 -1.66568017951795
 8  1.63006320342034 -0.80739751285129 -0.31258370107011
 7 -7.03177777237724  2.74760203200320  0.45209471867187
 6 -5.94038561396140  3.32835725402540  1.01851270817082
 6 -6.19972315801580  4.77128356785679  1.03032952575258
 6 -7.38560765756576  4.96940577607761  0.42548907630763
 6 -7.99870081598160  3.64689318301830  0.18543869926993
 6 -5.16092660916092  5.78984449954996  1.40499176517652
 6 -8.03805108780878  6.27397140874087  0.20617911921192
 6 -8.80780867906791  6.78682840474047 -0.72863534233423
 7 -9.25960416101610  0.89993722672267 -0.38963143154315
 6 -9.88736259915992  2.13406590529053 -0.44836410561056
 6 -11.26418028452845  1.94457801880188 -0.97593142704270
 6 -11.46489043954395  0.58853619371937 -1.11991694639464
 6 -10.18514073977398 -0.02457240894089 -0.85155839833983
 6 -12.38110661156116  2.99385788738874 -1.11825491579158
 6 -12.68640638013801 -0.19939241874187 -1.58982994269427
 6 -12.67967809850985 -0.58320158455846 -3.01812998429843
 7 -7.43724268186819 -1.26567825302530 -0.15269379787979
 6 -8.60548213571357 -2.02582130893089 -0.47562092449245
 6 -8.18654109310931 -3.26925380758076 -0.54506707400740
 6 -6.87658256735674 -3.39744657295730 -0.17868549244924
 6 -6.43804490789079 -2.09061187978798  0.12070714691469
 6 -9.06378913651365 -4.52279302880288 -0.91964095849585
 6 -5.76830377557756 -4.21107614271427  0.16531747734773
 8 -5.75311480168017 -5.45202473257326  0.18902163626363
 6 -4.61901953055306 -3.38583934553455  0.44521358345835
 6 -3.89066286418642 -3.95208930243024  1.72418894459446
 8 -4.22096717021702 -3.66263419731973  2.82695076317632
 8 -2.91563025062506 -4.88729370227023  1.44518494639464
 6 -2.21796650045005 -5.40972041814181  2.62758489808981
 6  2.63498566716672 -1.08831272887289 -1.36929095489549
 6  3.85016826362636 -0.79295979837984 -0.84017611771177
 6  4.86471872847285 -0.02157110221022 -1.21453541014101
 6  4.85010420612061  0.69636036773677 -2.72625974277428
 6  6.18188993419342  0.04111185038504 -0.48244715891589
 6  7.50270151055105 -0.43381956485649 -1.27092395929593
 6  8.79760136123612 -0.17664164926493 -0.39881822932293
 6  10.06547747344734 -0.64298862546255 -1.05071242604260
 6  10.05088112671267 -2.11974577747775 -1.49444872977298
 6  11.27771162136214 -0.26024033873387 -0.20391094679468
 6  12.64344601880188 -0.50924624182418 -0.74469899299930
 6  13.65973456285629  0.03155592939294  0.24864692019202
 6  15.16048496029603 -0.16670755225523 -0.27573113101310
 6  15.62264183598360 -1.59976884228423 -0.24515328362836
 6  16.22916366066607  0.71663618091809  0.47158618091809
 6  17.69135402420242  0.77618053575358 -0.03208711011101
 6  18.57432835713571  1.64801913081308  0.82255307150715
 6  20.12441434303430  1.73751155575558  0.41317304480448
 6  20.22512321122112  2.31649822592259 -0.96539461726173
 6  21.06093861516152  2.36101744054405  1.41758354655465
 1 -4.13639129942994  3.63891512351235  1.90709559045905
 1 -10.06874472757276  4.25149239133913 -0.40958228092809
 1 -10.85809006540654 -2.05389254475448 -1.35308478157816
 1 -2.66914924192419 -1.22705194039404  1.97167804350435
 1 -2.24415573007301  1.49693991719172  1.76754966716672
 1 -2.24853511151115  0.60153652205221  4.02726183018302
 1 -3.18932442434243  1.89191424112411  3.72988318351835
 1 -3.86665626252625  0.35638082258226  3.99619479567957
 1 -2.21401691009101 -1.84124885798580 -0.39629407660766
 1 -2.50984432383238 -0.07126093509351 -0.70334702890289
 1 -0.19914573437344  0.16680053365337  0.99564992629263
 1 -0.49628996829683 -1.74366632523252  1.17764527292729
 1 -4.31923674017402  5.70503487158716  0.55322812261226
 1 -5.46747195359536  6.79655457015702  1.30501979657966
 1 -4.63175126192619  5.81718976297630  2.50626476047605
 1 -7.69739474887489  6.96064593909391  1.02702425632563
 1 -9.17687303920392  6.15464562506251 -1.36600818691869
 1 -9.25989073567357  7.77983671117112 -0.66705692859286
 1 -12.60126448844884  3.47075626282628 -0.13549136223622
 1 -12.14563841214122  3.79722367976798 -1.95138445524552
 1 -13.27939896269627  2.46980481618162 -1.58719307470747
 1 -12.68933130633063 -1.12802172887289 -0.98404315541554
 1 -13.55784280878088  0.35846000070007 -1.28453081188119
 1 -12.51304693459346  0.30425723882388 -3.68719606390639
 1 -11.75303027102710 -1.28147572117212 -3.35543449554956
 1 -13.56646339983998 -1.10410950575057 -3.37432497479748
 1 -9.83007955675568 -4.69900922072207  0.01944964296430
 1 -9.39044302320232 -4.51470941694169 -1.94026092429243
 1 -8.38611378607861 -5.49353762076208 -0.85109306480648
 1 -3.90702255365537 -3.61684797499750 -0.42169351795180
 1 -1.33094348734874 -5.86791188688869  2.11984531863186
 1 -1.95912435883588 -4.66443992789279  3.25269971257126
 1 -2.84377739413941 -6.27584267586759  3.05245212081208
 1  2.41666557405741 -2.19870751425143 -1.81378254525453
 1  2.32739763426343 -0.54690227102710 -2.33997176437644
 1  4.08279105080508 -1.41868418271827  0.00497840084008
 1  5.16382821202120  1.76432894189419 -2.52982770257026
 1  5.64932154935494  0.17835379787979 -3.36734813641364
 1  3.91110122832283  0.61026221302130 -3.04454527962796
 1  6.44237225342534  1.25201132613261  0.01744155305531
 1  6.14357240194019 -0.55558544814481  0.51924963236324
 1  7.24338112301230 -1.57832455705571 -1.36847760736074
 1  7.64753429592959  0.09473149374938 -2.12204703370337
 1  8.76697218461846  0.95334417571757 -0.25988584028403
 1  8.77213027582758 -0.62075622712271  0.72802561496150
 1  10.16486915551555 -0.14013145644564 -1.95905048004800
 1  9.30403071927193 -2.29207790099010 -2.23169171697170
 1  11.18401343244324 -2.42171377117712 -1.82421302620262
 1  9.72267728782878 -2.64535622122212 -0.54946321562156
 1  11.07322261966197  0.86040482058206 -0.13495491029103
 1  11.10407637113711 -0.78111334783478  0.68521845204520
 1  12.62704741534153 -1.77927949914991 -0.71611482448245
 1  12.83037118931893 -0.10048012701270 -1.61984351805181
 1  13.54054520942094  1.05177488828883  0.48847175807581
 1  13.73190741774177 -0.68105453325332  1.10049689558956
 1  15.20882322652265  0.02815402150215 -1.36074808810881
 1  15.07658321122112 -2.41152373417342 -0.71728106130613
 1  16.83105697919792 -1.84753879047905 -0.51586737063706
 1  15.63248852765276 -1.79279441204120  1.06253552495250
 1  15.91018129132913  1.83896046634664  0.24800525952595
 1  16.35294995179518  0.61685230853085  1.73633705630563
 1  18.05112633433343 -0.27876208670867 -0.20927079487949
 1  17.70636522212221  1.13492538083808 -1.14314274677468
 1  18.12211690119012  2.68045444134413  0.94864025372537
 1  18.40198245244525  1.14077988748875  1.82181933193319
 1  20.31841817421742  0.65561352235224  0.30358151435144
 1  19.83653100970097  3.16527479757976 -1.19775167756776
 1  21.13953119681968  2.24171224092409 -1.39721282788279
 1  19.78091306430643  1.70776639833983 -1.73460564206421
 1  21.15833106960696  1.60692216021602  2.41552258885889
 1  21.98289114631463  2.40495052245224  1.05391954905491
 1  20.74287391679168  3.35298849844984  1.67243598149815
 1 -7.13673550665067  1.77073594679468  0.51910375647565
 1 -7.64793634203420 -0.13391356735674  0.07300717311731

