%nproc=3
%Mem=2GB
# td=(NStates=1) B3LYP/SVP 

TD

0 1
 6 -5.10801849995000 -1.88857509960996  0.43378825472547
 6 -4.76475679467947  2.70924737643764  1.41611799769977
 6 -9.35638554825482  3.34143494269427 -0.21428989688969
 6 -9.71955000950095 -1.36269707310731 -1.25247780118012
 7 -5.20550971327133  0.38820044294429  0.88410684768477
 6 -4.59971858795880 -0.67630435143514  0.82471591499150
 6 -3.15423511001100 -0.55882231693169  1.30769576537654
 6 -3.16216118151815  0.84984387668767  2.05473457925793
 6 -4.50947014011401  1.36830664856486  1.45898949594959
 6 -3.19191776027603  0.72115962826283  3.57391525412541
 6 -2.04117618831883 -0.72870283198320  0.24054199979998
 6 -0.67698091029103 -0.75489370597060  0.85897835053505
 6  0.38859252065207 -1.06699357225723 -0.36605816341634
 8  0.12820458805881 -1.38961132773277 -1.40687429892989
 8  1.67415761286129 -0.82002877597760  0.02148970627063
 7 -7.08224281888189  2.75431270307031  0.56834634383438
 6 -6.03110468586859  3.34485890419042  1.14874573147315
 6 -6.31310449614961  4.73068950845084  1.20661715451545
 6 -7.54491358815882  4.88136697219722  0.55517204460446
 6 -8.01030197609761  3.65589408310831  0.28064822022202
 6 -5.25385590209021  5.80855637073707  1.51799306530653
 6 -8.27512479517952  6.20967497909791  0.45161366266627
 6 -9.00524842304230  6.69598932083208 -0.50586306510651
 7 -9.09138733933393  0.91032826582658 -0.63786625502550
 6 -9.81667553045305  2.08078057675768 -0.58594786398640
 6 -11.22868673517352  1.87484104510451 -1.06008984288429
 6 -11.38246219671967  0.50633797389739 -1.38109306400640
 6 -9.97624985068507 -0.03157310901090 -1.10136337883788
 6 -12.19891839273927  2.99999850145015 -1.20447353765377
 6 -12.46170390989099 -0.19584206370637 -1.94797575727573
 6 -12.51862199289929 -0.39922318671867 -3.57344551585158
 7 -7.42408136573657 -1.26856854205421 -0.30968949744975
 6 -8.51078266576658 -2.02794152095210 -0.81220458285829
 6 -8.03187562656266 -3.40146702890289 -0.83907647494749
 6 -6.79603451255126 -3.38313514181418 -0.34866249014901
 6 -6.39125022842284 -2.03742656125613  0.05035011121112
 6 -9.04854761236124 -4.46294704420442 -1.32632162656266
 6 -5.75489243444344 -4.27003203830383 -0.06699575397540
 8 -5.66418590879088 -5.45837536763676 -0.12628989488949
 6 -4.55431305990599 -3.32897365896590  0.51120018211821
 6 -4.04997879577958 -3.75967006050605  1.84365089078908
 8 -4.18987406090609 -3.15717365126513  2.93644171227123
 8 -3.37706639423942 -4.86563153605361  1.80015044294429
 6 -2.75096980078008 -5.42226167226723  2.90720285988599
 6  2.71617378597860 -1.33772767036704 -0.90967499329933
 6  3.97585083188319 -0.91488199059906 -0.38734083418342
 6  4.95498775537554 -0.15259420452045 -0.93489744634463
 6  4.88280747644764  0.37869860156016 -2.32450956775678
 6  6.20670241544154  0.09425716491649 -0.19216813101310
 6  7.50474171457146 -0.34746092899290 -0.84595146204620
 6  8.74136573767377 -0.28329231433143 -0.09596794429443
 6  10.10505143084309 -0.62271659825983 -0.68821617641764
 6  10.07692373097310 -2.27283108600860 -0.91104038893889
 6  11.42121597179718 -0.21195551025103  0.06240568486849
 6  12.73066474067407 -0.54234955215522 -0.61568609170917
 6  13.87700629002900  0.14810758455846  0.16400845634563
 6  15.24438335013501 -0.09208008950895 -0.45446900480048
 6  15.52151172297230 -1.63491235663566 -0.69752852115212
 6  16.35649639393939  0.51470598789879  0.41135015731573
 6  17.72106699549955  0.91759467716772 -0.25151905330533
 6  18.69294021832183  1.73424775367537  0.39641045724572
 6  20.13649555115511  1.68122592719272 -0.08142641514151
 6  20.16340703960396  2.26647322342234 -1.60003808160816
 6  20.89373189448945  2.58838017681768  0.77709949814982
 1 -3.98783644394439  3.31820305230523  2.00631551245124
 1 -9.90013786688669  4.32530977307731 -0.19733105580558
 1 -10.34233849024902 -1.96214336983698 -1.94271374447445
 1 -3.03488581558156 -1.48654788998900  2.07342821852185
 1 -2.22314362886289  1.20805102830283  1.80830374257426
 1 -2.00499075707571  0.22815918431843  3.71262036603660
 1 -3.27932342424242  1.72044709440944  3.94935513071307
 1 -3.86535613251325  0.03716890139014  4.04365954215422
 1 -2.26368187658766 -1.61453618671867 -0.31599604680468
 1 -2.08173151255125  0.12041823282328 -0.49773646784679
 1 -0.11760758055806 -0.02295844224422  1.62878323962396
 1 -0.68241858115812 -1.70095205380538  1.38075558395840
 1 -4.42661747824782  5.58210257835784  0.84374717451745
 1 -5.73068827522752  6.79570448514851  1.67908720332033
 1 -4.75936402320232  5.76366441044104  2.48204233823382
 1 -8.00133514291429  6.83581345584558  1.23141469536954
 1 -9.27215256715671  6.05232539303930 -1.21838342444244
 1 -9.37721246784678  7.60765949344935 -0.45495571847185
 1 -11.89764412641264  3.69588877607761 -0.35437325042504
 1 -12.12521636993699  3.53819777717772 -2.27619693649365
 1 -13.36023704650465  2.67097493319332 -1.19874422982298
 1 -12.54784715791579 -1.02656158285829 -1.57923267436744
 1 -13.46024304880488  0.15451960666067 -1.52506486528653
 1 -12.76593222312231  0.60711752485249 -4.19638698299830
 1 -11.39526449444945 -0.63641121472147 -3.81801075317532
 1 -13.23383013651365 -1.09766886168617 -3.74525206750675
 1 -9.97651420022002 -4.18871819161916 -0.81269357135714
 1 -9.51835581448145 -4.36055400140014 -2.49321621982198
 1 -8.70887606230623 -5.56849511651165 -1.12420037553755
 1 -3.73138498989899 -3.51121741194119 -0.27809915851585
 1 -2.53119351235124 -6.56343143884388  2.65119845394539
 1 -1.80694914131413 -4.81256474037404  3.30822526512651
 1 -3.50469348574857 -5.58374346594660  3.86594346994699
 1  2.67173108060806 -2.43326096959696 -0.90088125512551
 1  2.26150104460446 -1.03828140894089 -2.06614438163816
 1  4.09482225392539 -1.29365167946795  0.47468537153715
 1  5.35453728292829  1.47756026502650 -2.29535425522552
 1  5.62714933213321 -0.32925696319632 -2.99672107370737
 1  3.87887800600060  0.42552373917392 -2.66319714481448
 1  6.37689570577058  1.17392351735174 -0.08791898299830
 1  6.29540758545855 -0.30231012061206  0.84470217761776
 1  7.48136492139214 -1.42147887248725 -1.22682344194419
 1  7.70874041654165  0.38262028262826 -1.75891072007201
 1  9.15332081948195  0.92868170947095  0.22476262456246
 1  8.63131619441944 -0.75356950845084  0.82750556295630
 1  10.14593726232623 -0.19720716401640 -1.73464803980398
 1  9.21145146134613 -2.61919061226123 -1.45052360016002
 1  10.94078911001100 -2.59082068186819 -1.32725333023302
 1  10.03367838793879 -2.82141382698270  0.22187391809181
 1  11.24413971137114  0.87018579867987  0.09317790299030
 1  11.29273523702370 -0.71787702420242  1.00234016421642
 1  12.60056476707671 -1.77651922312231 -0.71874508750875
 1  12.55899405160516 -0.29227930693069 -1.58632016571657
 1  13.50172132703270  1.17933764456446  0.41796470737074
 1  14.05744997199720 -0.38244467226723  1.06417326322632
 1  15.33817616181618  0.34248545464546 -1.37725973927393
 1  14.96977253015301 -2.29556213801380 -1.33001233443344
 1  16.56464033753375 -1.63858789538954 -1.11804758865887
 1  15.52395767456746 -2.12565769836984  0.34991426282628
 1  15.98396867006701  1.66823339363936  0.72568302730273
 1  16.35103976077608 -0.14133351005101  1.40232365496550
 1  18.17391861356136 -0.20187439793979 -0.64855472327233
 1  17.36701128672867  1.29772166046605 -1.46988542104210
 1  18.06191088058806  2.83398979487949  0.50089547924792
 1  18.79451170537054  1.15686149564956  1.51119826982698
 1  20.54483081548155  0.58206616761676 -0.05900474427443
 1  20.04187154375438  3.40468873897390 -1.62184408680868
 1  21.32199944364437  1.96870494019402 -2.00013311991199
 1  19.49224419741974  1.61172679437944 -2.21142332383238
 1  20.73717895439544  2.32238370637064  1.77445848244824
 1  21.98934179137914  2.83105313271327  0.60081423852385
 1  20.47925755515552  3.59079227882788  0.42789152705270
 1 -7.28077991109111  1.80066894009401  0.63433527962796
 1 -7.48724027242724 -0.16146632263226  0.09752962536254

