%nproc=3
%Mem=2GB
# td=(NStates=1) B3LYP/SVP 

TD

0 1
 6 -5.05358305640564 -1.90675691779178  0.41176605250525
 6 -4.80704102310231  2.80230668236824  1.44944133003300
 6 -9.20758066776678  3.35664646384638 -0.34547301520152
 6 -9.80276833133313 -1.46987779117912 -0.96662921632163
 7 -5.17219638193819  0.43885550845085  0.84754319131913
 6 -4.52442105820582 -0.74829155015502  0.81420486388639
 6 -3.13563324982498 -0.48924535923592  1.33363835963596
 6 -3.13816878227823  0.83309220152015  1.94842394819482
 6 -4.49813900700070  1.39157897579758  1.38524212121212
 6 -3.19831840034003  0.75572308460846  3.48144600720072
 6 -2.06353842454245 -0.69799976167617  0.23545149074908
 6 -0.55404861706171 -0.83352156875688  0.70806325902590
 6  0.39645330673067 -1.00577745064506 -0.55615717331733
 8  0.08656042364236 -1.34750711731173 -1.67049066056606
 8  1.73023322042204 -0.84468124122412 -0.14889733243324
 7 -7.06120071467147  2.79260653245325  0.43520302950295
 6 -5.93298487388739  3.40510492879288  0.93662451935193
 6 -6.26206939263926  4.77464390389039  1.04663115591559
 6 -7.53105220202020  4.97647648314832  0.46248277567757
 6 -8.05318626452645  3.68341683538354  0.12289244464446
 6 -5.30318083458346  5.83928944404440  1.45856712271227
 6 -8.22301958465846  6.18765277687769  0.36133463476348
 6 -9.22334023222322  6.50642036393639 -0.52619509830983
 7 -9.05474367496750  0.85608284128413 -0.53610607900790
 6 -9.74769863276328  2.07943044174417 -0.61280054925493
 6 -11.19088295479548  1.80075363636364 -1.03646748064806
 6 -11.36121007150715  0.50125746584658 -1.16383133783378
 6 -10.11909413511351 -0.11048099979998 -0.82198544104410
 6 -12.24944344524453  2.89263776537654 -1.01212430273027
 6 -12.56681442094209 -0.25659813931393 -1.55151611131113
 6 -12.65702583328333 -0.65267853225323 -3.07068523982398
 7 -7.46759571717172 -1.22908459365937 -0.14974350285028
 6 -8.52786437393739 -1.98356708350835 -0.68756211861186
 6 -8.16701914091409 -3.34699158135814 -0.70838340564056
 6 -6.82452736183618 -3.33006983528353 -0.19153677757776
 6 -6.44232533593359 -1.99528234683468  0.02074715091509
 6 -9.01688444604460 -4.54207495699570 -0.95834482888289
 6 -5.58336528172817 -4.28184321942194  0.10063100870087
 8 -5.52804229442944 -5.46849637973797 -0.03822108800880
 6 -4.53087071567157 -3.29637039863986  0.43119218131813
 6 -3.95811960986099 -3.77794188768877  1.74568109380938
 8 -4.09946502000200 -3.28908684258426  2.79239730783078
 8 -3.05511419901990 -4.81745671857186  1.51513194109411
 6 -2.58274297809781 -5.45272471857186  2.66750889048905
 6  2.67313948254825 -0.94564846244624 -1.20807483328333
 6  3.90993424022402 -0.52469297169717 -0.63858595869587
 6  4.94745700230023  0.08497955285529 -1.16925088168817
 6  4.93849304500450  0.77848858055806 -2.58265538233823
 6  6.26763850905091  0.35590332953295 -0.51405031923192
 6  7.52595383578358 -0.36984316721672 -1.17269413631363
 6  8.72874447554756 -0.27134111921192 -0.28473682118212
 6  10.01114203990399 -0.79087341394139 -0.87674502930293
 6  9.97018305690569 -2.29072287518752 -0.90612989788979
 6  11.23727757795780 -0.29533384808481 -0.00568112381238
 6  12.73084475867587 -0.57894321152115 -0.56882140524052
 6  13.83775236463646 -0.13113033923392  0.30127218271827
 6  15.21784069586959 -0.27118800030003 -0.35017857575758
 6  15.56540611241124 -1.78324719011901 -0.50618938723872
 6  16.21144188848885  0.37752226952695  0.51522054435444
 6  17.74183907270727  0.58122103980398 -0.08909281068107
 6  18.56467739203920  1.62335666456646  0.64447526372637
 6  19.99744164576457  1.76007381198120  0.16038776627663
 6  20.17863856275628  2.22091866796680 -1.32490056785679
 6  20.88229075037504  2.60660199899990  1.13897568576858
 1 -4.05769342964296  3.50825205720572  1.93336821772177
 1 -10.03925177827783  4.18027526962696 -0.39912123482348
 1 -10.47533178957896 -2.24480163566357 -1.13121259435944
 1 -2.87110943794379 -1.27602683788379  2.15809668536854
 1 -2.37889920442044  1.40861108430843  1.57635054725473
 1 -2.23778403640364  0.55967233563356  3.97965706970697
 1 -3.42830832273227  1.79068411811181  3.87048724392439
 1 -4.03086268316832  0.17188237273727  3.79017419361936
 1 -2.32130763916392 -1.55837057015702 -0.51308575577558
 1 -2.03048638803880  0.13628981998200 -0.43688038223822
 1 -0.17128294809481  0.13244709830983  1.25407576887689
 1 -0.34447478677868 -1.79667162576258  1.41676918531853
 1 -4.71993681018102  6.25928029612961  0.45894869466947
 1 -5.98811401780178  6.69346426112611  1.96895619021902
 1 -4.53143122992299  5.38223626762676  2.27976211021102
 1 -7.98812382178218  6.97866774127413  1.03406496039604
 1 -9.46487183908391  5.74472463296330 -1.43714530063006
 1 -9.58359310591059  7.48599732723272 -0.41755197809781
 1 -12.64370873287329  3.29243843104310  0.13385557245725
 1 -12.16943079137914  3.95161911931193 -1.30174949174918
 1 -13.23045406820682  2.42083991969197 -1.40463481888189
 1 -12.60502287548755 -1.20323925062506 -1.02865761686169
 1 -13.49244626912691  0.37500165486549 -1.48708106690669
 1 -12.58761439133913  0.23393020612061 -3.67146449074908
 1 -11.73480844884488 -1.15889346294630 -3.46143509560956
 1 -13.46487324082408 -1.13567266206621 -3.36217375967597
 1 -9.73531007980798 -4.83328264806481 -0.14023632563256
 1 -9.85031901080108 -4.22495044104410 -1.96544344254425
 1 -8.35892106680668 -5.35008327532753 -1.19137709320932
 1 -3.67818967036704 -3.54556084628463 -0.30307165576558
 1 -1.94531492449245 -6.20968606430643  2.28764209830983
 1 -1.74377282368237 -4.77319080298030  3.25915035763576
 1 -3.39941295769577 -5.86781187278728  3.34791166676668
 1  2.75062897039704 -2.01266891039104 -1.78196936393639
 1  2.17185207970797 -0.29337691849185 -2.01644941214121
 1  4.24121689338934 -0.87265958025803  0.37099500250025
 1  5.62655448464846  1.71267377637764 -2.53135785558556
 1  5.38761537873787  0.10483644614461 -3.51472287388739
 1  3.87728784698470  0.80668185498550 -2.78544937003700
 1  6.41306932313231  1.38204432943294 -0.39064925602560
 1  6.20854889958996  0.11128123852385  0.50938864626463
 1  6.99524630953095 -1.50532725732573 -1.06821758135814
 1  7.63005254775478 -0.07274525392539 -2.33851868086809
 1  9.01164665206521  0.79801864316432 -0.21657150885089
 1  8.76145920872087 -0.49193334483448  0.68618143054305
 1  10.40708337693769 -0.28371581488149 -1.98473304830483
 1  9.03181349754976 -2.69467816101610 -1.26861540934093
 1  10.75547057815782 -2.84544614441444 -1.40243084798480
 1  10.06833185328533 -2.95348703430343  0.14528625932593
 1  11.14480977837784  0.84004278437844  0.15104368956896
 1  11.41366733023303 -0.70970620712071  1.01406133633363
 1  12.65735044564457 -1.61433300450045 -0.84857807080708
 1  12.91910006220622 -0.12095217421742 -1.68320985468547
 1  13.60993214811481  1.02315202600260  0.63506641754175
 1  13.88997322432243 -0.66058248604860  1.21983882978298
 1  15.34740708490849  0.30833203930393 -1.20983299659966
 1  14.56368192109211 -2.33434601640164 -0.94167350055005
 1  16.55332920642064 -2.12332636923692 -1.07911369526953
 1  15.63953923272327 -2.33660879347935  0.39132840424042
 1  15.88042831603160  1.48084465476548  0.79385984498450
 1  16.42030668746875 -0.11997137383738  1.54377780038004
 1  18.28654987668767 -0.27293150365036  0.04364449664966
 1  17.43733831943194  1.11686357465747 -1.05408384088409
 1  18.18517320682068  2.60102649854985  0.54922031173117
 1  18.59630188438844  1.22758856835684  1.62198934893489
 1  20.27707403980398  0.82119008000800  0.30647180338034
 1  19.85037239383939  3.20086835693569 -1.42668457085709
 1  21.27985522922292  2.24491256095610 -1.45596870347035
 1  19.60548552155215  1.54625024672467 -2.02776495799580
 1  20.57472270877088  2.08426989498950  2.06522755935594
 1  21.98487134433443  2.35782580998100  0.89076323342334
 1  20.65773540294029  3.82348554815482  1.25823456135614
 1 -7.32639447254726  1.82140101330133  0.17624947104710
 1 -7.64460600900090 -0.11758193419342 -0.10883101070107

