%nproc=3
%Mem=2GB
# td=(NStates=1) B3LYP/SVP 

TD

0 1
 6 -5.10949864796480 -1.89965620772077  0.45364023992399
 6 -4.65309562856286  2.76715316701670  1.42549893579358
 6 -9.20551046074607  3.37487828702870 -0.32622109000900
 6 -9.84923297779778 -1.44636543994399 -0.91801435483548
 7 -5.13133229552955  0.43920554345435  0.78776721372137
 6 -4.50110872697270 -0.74438115911591  0.86273971737174
 6 -3.02435212171217 -0.57910434513451  1.21579657545755
 6 -3.02218718411841  0.81141003330333  1.86925603140314
 6 -4.31949114221422  1.40459027692769  1.34364796179618
 6 -2.98983755225523  0.86792430473047  3.39023688628863
 6 -2.02183425412541 -0.90913087478748  0.10524847044704
 6 -0.55126833903390 -0.87369558615862  0.54461691439144
 6  0.42172583398340 -1.20514738763876 -0.57478903650365
 8  0.21179294689469 -1.52711507810781 -1.65179879137914
 8  1.72820301740174 -0.91182795589559 -0.10266270897090
 7 -6.96939153375338  2.74724199599960  0.54835434463446
 6 -5.92410398579858  3.33222764106411  1.06306716361636
 6 -6.13787697339734  4.69726616611661  1.00586707950795
 6 -7.43912300910091  4.99078791429143  0.58270479787979
 6 -7.89232017791779  3.69966846054605  0.17472762816282
 6 -5.16711722822282  5.74376989208921  1.61699296529653
 6 -8.05570285298530  6.16259027062706  0.35015351665167
 6 -8.84057195539554  6.70528024992499 -0.65509798859886
 7 -9.18065626622662  0.85141237423742 -0.41824429282928
 6 -9.78431229412941  2.08668116681668 -0.53041231043104
 6 -11.20584445094510  1.93053661466147 -0.99646348024802
 6 -11.37074102460246  0.58572591269127 -1.21358631333133
 6 -10.15114734043404 -0.11051100280028 -0.91949519201920
 6 -12.17937643854385  2.97847634923492 -1.35237832813281
 6 -12.61396913641364 -0.12727520702070 -1.70512147184718
 6 -12.67632776347635 -0.25234849924992 -3.28795696699670
 7 -7.52898185578558 -1.28823050825082 -0.26917544604460
 6 -8.63670525802580 -2.01417014381438 -0.63541690409041
 6 -8.11347378637864 -3.40449733193319 -0.69769233653365
 6 -6.88075298439844 -3.39617644594459 -0.22035965986599
 6 -6.45299640304030 -2.04940775937594  0.08500357655766
 6 -8.89693245084508 -4.59150990049005 -1.04883387778778
 6 -5.69645659085909 -4.28943397849785 -0.10463951835184
 8 -5.58217770797080 -5.48923845394539 -0.15188245414541
 6 -4.54475210381038 -3.31793255485549  0.47420648274827
 6 -4.12060585848585 -3.76378047154715  1.73770029572957
 8 -4.35428050155015 -3.28539647354735  2.88105617371737
 8 -3.13734242184218 -4.80106507940794  1.61786221412141
 6 -2.48788349214922 -5.42443188928893  2.70400253985399
 6  2.71307347594759 -1.24123802140214 -1.03768779457946
 6  4.07325057185719 -0.79596009840984 -0.45888798889889
 6  4.98704096069607  0.03508456335634 -0.98464242084208
 6  4.83331252695270  0.88033876557656 -2.30962807960796
 6  6.23060480568057  0.22676041524152 -0.17454636883688
 6  7.45491673207321 -0.34799098199820 -0.88672553945395
 6  8.69358095919592 -0.29750373547355 -0.01922026952695
 6  9.95084601030103 -0.91642596919692 -0.64505185998600
 6  9.85866190479048 -2.29011281418142 -0.88185747064706
 6  11.16008985918592 -0.44798911361136  0.19877932223222
 6  12.52687436163616 -0.76780209740974 -0.44046856995700
 6  13.72540112951295  0.06704947874787  0.22572462796280
 6  15.11951086288629 -0.21391227272727 -0.35652921082108
 6  15.57280685248525 -1.58582744814481 -0.60050881918192
 6  16.08035878017802  0.70684520182018  0.42906192849285
 6  17.56456134493449  0.79232214991499 -0.19776367776778
 6  18.54875579987999  1.81593592249225  0.51285210141014
 6  19.91580348194820  1.79497730233023 -0.11228950145014
 6  20.13284398329833  2.60824740084008 -1.46744482228223
 6  20.90353287458746  2.43540487928793  0.81449323752375
 1 -3.89884754505451  3.46751798379838  1.81462634353435
 1 -9.76525437853785  4.31004824692469 -0.70237155985599
 1 -10.57034129052905 -2.09751690719072 -1.16318579167917
 1 -2.89985231223122 -1.34490372557256  2.03521439713971
 1 -2.22477379187919  1.19839006220622  1.35806871907191
 1 -2.05954621262126  0.36537290569057  3.66400550455045
 1 -2.93806929882988  1.99848489818982  3.62535273047305
 1 -3.90473006990699  0.38466365086509  3.80194537073707
 1 -2.35802131053105 -1.94563929702970 -0.37743219041904
 1 -1.91975531493149 -0.07175098409841 -0.84973166736674
 1 -0.24159997979798  0.04042789638964  0.97431779307931
 1 -0.35524586388639 -1.64874683328333  1.31101861026103
 1 -4.27330214671467  5.88899326742674  1.18767156695670
 1 -5.47001220762076  6.62416733143314  1.79489878447845
 1 -4.90241832863286  5.11652969696970  2.68934306830683
 1 -7.91813682308231  6.96805668016802  1.02773432733273
 1 -9.30709606150615  5.77206736723672 -1.41776336243624
 1 -9.05594034063406  7.75936466396640 -0.77764798769877
 1 -12.15277963996400  3.78137732493249 -0.52504031713171
 1 -11.95665951425143  3.35892985038504 -2.44617393419342
 1 -13.13789481228123  2.45123295899590 -1.31764612001200
 1 -12.29284165736574 -1.23011193789379 -1.29071382248225
 1 -13.49755678017802  0.26825097979798 -1.30549290809081
 1 -12.99880551045104  0.87176398949895 -3.72208955325533
 1 -11.71835680368037 -0.59152672627263 -3.83402235433543
 1 -13.56503325682568 -1.00255935073507 -3.83920146244624
 1 -9.92171872067207 -4.67594691449145 -0.76332863486349
 1 -9.25559953885389 -4.51395934193419 -2.17073397159716
 1 -8.43664883958396 -5.46651491849185 -0.78820677617762
 1 -3.74029588098810 -3.35219150935093 -0.33280462906291
 1 -1.80898129112911 -6.20045514121412  2.40124345844584
 1 -2.08421686808681 -4.69559304320432  3.54622906550655
 1 -3.20530354675468 -5.84942003360336  3.39965684128413
 1  2.78804271177118 -2.29369701320132 -1.26752791979198
 1  2.68584347884789 -0.61826940774077 -2.20462823002300
 1  4.26149892159216 -1.33175548984898  0.47252515551555
 1  5.12084391359136  2.04234674367437 -2.21546626642664
 1  5.46330294749475  0.62354831733173 -3.23165456705671
 1  3.75455557375738  0.74692587938794 -2.82694351945195
 1  6.55696371257126  1.35632175717572  0.19236904580458
 1  6.13429147384739 -0.20895078467847  0.72717042444244
 1  6.99707649254925 -1.36900362496250 -1.46700746034603
 1  7.59632917541754  0.04306632723272 -1.98207303630363
 1  8.90747623502350  0.85710455175518  0.23707385568557
 1  8.43834689748975 -0.85329948144814  0.86546935933593
 1  10.01439410801080 -0.45350279357936 -1.57804237923792
 1  8.94043435963596 -2.61068976217622 -1.44569311711171
 1  10.68494352545254 -2.77289888968897 -1.48901950685068
 1  9.86966198629863 -3.04508619421942  0.05889762046205
 1  11.21077637503751  0.74892367246725  0.24629321452145
 1  11.00628659215922 -0.89032426892689  1.29920985118512
 1  12.63724843544354 -1.86982855405541 -0.40344355735574
 1  12.53824197639764 -0.53208328732873 -1.45381691539154
 1  13.56607776267627  1.13958366916692  0.56039895079508
 1  13.67882210921092 -0.41618804660466  1.25042188808881
 1  15.01521386558656  0.23638484458446 -1.32619463276328
 1  15.13957951085108 -2.27557013881388 -1.48162749594959
 1  16.39853372687269 -1.63911794839484 -0.95721150505050
 1  15.52481776057606 -2.01010614321432  0.50797006840684
 1  15.78605887908791  1.62265883618362  0.63651411041104
 1  16.13099775657566  0.35490611391139  1.42585600820082
 1  17.97576879857986 -0.27466167666767 -0.06527639543954
 1  17.59707429302930  1.02994488278828 -1.30497893039304
 1  18.16765145464547  2.72081847774777  0.51594698439844
 1  18.53607586178618  1.42199800930093  1.60904805480548
 1  20.02608894129413  0.61719968096810 -0.37902674647465
 1  19.87247460406041  3.57559582968297 -1.42526442884288
 1  21.28381562526253  2.45697376707671 -1.70610371697170
 1  19.41855682868287  2.24971059275928 -2.40576275777578
 1  20.99370460696070  2.02564403240324  1.85752678927893
 1  22.05959881708171  2.53930395779578  0.47340149724972
 1  20.59895952535254  3.69135233483348  1.05894463236324
 1 -7.01486331943194  1.77324619781978  0.40745259135914
 1 -7.82772432083208 -0.23063323932393 -0.19029915751575

