%nproc=3
%Mem=2GB
# td=(NStates=1) B3LYP/SVP 

TD

0 1
 6 -5.16224392249225 -1.91666790889089  0.43995887178718
 6 -4.67761808080808  2.72607905960596  1.24015040094009
 6 -9.31713162286229  3.34621542074207 -0.27567603550355
 6 -9.89559761426143 -1.45438624202420 -0.84187674107411
 7 -5.22899206150615  0.43506512941294  0.81563000000000
 6 -4.48670728682868 -0.74462118311831  0.73033647704770
 6 -3.02050173667367 -0.57613404810481  1.08949394519452
 6 -3.13982894829483  0.90775966826683  1.84898400420042
 6 -4.40986017911791  1.39978979687969  1.36351994899490
 6 -2.91675024352435  0.91829934223422  3.25798366096610
 6 -2.06761883258326 -0.79815977767777 -0.05144719911991
 6 -0.65520873307331 -0.67335555215522  0.43964641734173
 6  0.38530219161916 -1.11869874277428 -0.52361391899190
 8  0.21420318791879 -1.55771813841384 -1.66281989348935
 8  1.73251344844484 -0.78565533863386 -0.11461390409041
 7 -7.01449604420442  2.73612088388839  0.27372688188819
 6 -5.95598717411741  3.40941535983598  0.92594345124512
 6 -6.31046423212321  4.79815625512551  1.09854634743474
 6 -7.59493859065907  4.98472730823082  0.53250977837784
 6 -8.06373731963196  3.66318481218122  0.15079523492349
 6 -5.31413192969297  5.87176269136914  1.54469573557356
 6 -8.23008029072907  6.32182619421942  0.57486598789879
 6 -9.09141703990399  6.56522624452445 -0.46530900970097
 7 -9.20173837443744  0.89513674667467 -0.55229769816982
 6 -9.83748761166117  2.08058055675568 -0.63001227042704
 6 -11.23891775827583  1.87488104910491 -0.91858569246925
 6 -11.42383633413341  0.57350469056906 -1.06409136383638
 6 -10.12461468716872 -0.03532348404840 -0.83805704820482
 6 -12.33555205610561  2.93852235383538 -1.05870896119612
 6 -12.69680742024202 -0.15478795829583 -1.57084804450445
 6 -12.79460959165917 -0.40293355775578 -3.07516568786879
 7 -7.48867782538254 -1.17663934913491 -0.23117164566457
 6 -8.60669225672567 -1.96186491329133 -0.62881624402440
 6 -8.22628506750675 -3.30796767896790 -0.59259182648265
 6 -6.94054896399640 -3.45303213151315 -0.19092671657166
 6 -6.48719982338234 -2.08861167976798 -0.03447837163716
 6 -8.88195095269527 -4.67693844334433 -0.88442743714371
 6 -5.74026097129713 -4.32271730683068  0.01089203480348
 8 -5.56665615581558 -5.51369089918992 -0.04943220912091
 6 -4.54036166476648 -3.33387414901490  0.37376643874387
 6 -3.81683548144814 -3.88737283078308  1.68327485318532
 8 -4.20827590109011 -3.54054198809881  2.75940400850085
 8 -2.91416010361036 -4.84577955085509  1.44599502740274
 6 -2.44565926972697 -5.63244269036904  2.49487162676268
 6  2.70676284488449 -1.17833173077308 -1.05404943074307
 6  4.01801504830483 -0.64524502690269 -0.37142924302430
 6  4.97232948954895  0.06364741964196 -1.03443740034003
 6  4.91971116681668  0.48282901460146 -2.59182629942994
 6  6.35573731893189  0.44491223042304 -0.34345325952595
 6  7.52868410881088 -0.40913709660966 -0.95641250815082
 6  8.83079468056806  0.06195221012101 -0.22017036453645
 6  10.13774470017002 -0.81158548514851 -0.68775613041304
 6  9.97375341394140 -2.30940474337434 -0.58213749864986
 6  11.26627047724773 -0.17969228392839  0.06223566786679
 6  12.69771144534453 -0.47478279547955 -0.41342586568657
 6  13.80478906830683  0.12160493429343  0.25374743024302
 6  15.19479839163916 -0.21431231273127 -0.24161771967197
 6  15.47580715251525 -1.80416928232823 -0.33638240654065
 6  16.25716646094610  0.73659817711771  0.46329535183518
 6  17.66556144494449  0.65704862256226 -0.25174907630763
 6  18.61462238653865  1.57037136603660  0.47647846404640
 6  20.06566846844684  1.61339914451445 -0.01812008450845
 6  20.26610730963096  2.07468404450445 -1.36972505030503
 6  20.82912543384339  2.45717705650565  0.98881066926693
 1 -4.05151281158116  3.47692892489249  1.90031491239124
 1 -10.06930478357836  4.18047528962896 -0.20190151285129
 1 -10.65781003740374 -2.14680183568357 -1.15225469856986
 1 -2.84108643564356 -1.16269550475047  2.09241011671167
 1 -2.48315963046305  1.60017024022402  1.23190610281028
 1 -2.07947820582058  0.43087945634564  3.72012111611161
 1 -2.93795928782878  1.91954700440044  3.54957515271527
 1 -3.66913651055106  0.30903608810881  3.84949012521252
 1 -2.19114462286229 -1.51079581268127 -0.65537998519852
 1 -2.15276861626163  0.34793098409841 -0.49247594179418
 1 -0.33591941174117  0.13369722332233  0.73984434573457
 1 -0.43728406770677 -1.29056101470147  1.31336884528453
 1 -4.58208302480248  6.06256062416242  0.60055285508551
 1 -6.00716592299230  6.90189510421042  1.68016731133113
 1 -4.71427951475147  5.65783382738274  2.39266340034003
 1 -7.90497550695070  6.92708258275828  1.31340289418942
 1 -9.27370272217222  5.84876503700370 -1.27028861496150
 1 -9.54855960256026  7.54534326182618 -0.68540876377638
 1 -12.50514487648765  3.71136032323232 -0.11644945804580
 1 -12.02901674997500  3.69548350575058 -1.93909322612261
 1 -13.29401042384238  2.33172100780078 -1.21207556295630
 1 -12.91440381358136 -1.10384931163116 -1.15867061816182
 1 -13.49094611911191  0.52055621032103 -1.27932029082908
 1 -12.91259688958896  0.56065287838784 -3.61392873717372
 1 -12.00093506150615 -0.85807338093809 -3.53966291839184
 1 -13.73037979147915 -1.13996309110911 -3.32502004430443
 1 -9.88552510131013 -4.98703802360236 -0.24272657465747
 1 -9.59969394829483 -4.51264921092109 -2.02153905210521
 1 -8.27387256195619 -5.40152841984198 -0.72371032653265
 1 -3.77930978237824 -3.34812110231023 -0.42536388498850
 1 -1.76765715871587 -6.38940403610361  2.21659499359936
 1 -2.03709215561556 -5.01080456435644  3.27646208880888
 1 -3.23345636203620 -6.18570366196620  2.87462433803380
 1  2.68821272877288 -2.09561720522052 -1.37013818081808
 1  2.32107700220022 -0.68627620842084 -1.93208097529753
 1  4.11177394909491 -1.38746106040604  0.54811271427143
 1  5.48305013421342  1.40550305930593 -2.82127684748475
 1  5.45216183338334 -0.18436247374738 -3.30403180478048
 1  3.81877199539954  0.71827301410141 -2.89434025912591
 1  6.56866488268827  1.83042916791679 -0.44406459755976
 1  6.23240128482848  0.08938904930493  0.61723943134313
 1  7.26137292219222 -1.56763348794879 -0.59136989658966
 1  7.54389393189319 -0.25726370577058 -1.97219204820482
 1  8.91562705010501  1.18846768806881 -0.40063991569157
 1  8.98052111491149  0.00273612211221  0.83672648504850
 1  10.30106277487749 -0.42081952525253 -1.89589416441644
 1  9.19609992619262 -2.68182687588759 -1.15275382318232
 1  10.88615364646465 -2.89855145494549 -0.98330893579358
 1  9.60616563666367 -2.73409509510951  0.39067079777978
 1  11.38763406080608  0.95009378947895  0.18067665286529
 1  10.86905286878688 -0.42157739423942  1.20119004920492
 1  12.86445115571557 -1.78614018521852 -0.55210842384238
 1  12.66971512371237 -0.31163124212421 -1.52381391509151
 1  13.75380653555355  1.20297000780078  0.36236914781478
 1  13.75346957395740 -0.08074450225022  1.30411725762576
 1  15.02263460766077  0.27933914001400 -1.21506351965197
 1  14.78388394129413 -2.46311889368937 -0.70861019421942
 1  16.37470134363436 -2.00897493409341 -0.79450523442344
 1  15.91621690049005 -2.18229336193619  0.59959923132313
 1  15.72906317951795  1.76158272857286  0.53516397539754
 1  16.58223288008801  0.24831545484548  1.61213463606361
 1  18.05101632333233 -0.40097430793079 -0.36940680848085
 1  17.43161774737474  1.21879376767677 -1.25269370187019
 1  18.13391808130813  2.54100049594959  0.44792018171817
 1  18.69144139833983  1.40010582008201  1.55859300930093
 1  20.48192452485248  0.62741070207021 -0.11212005580558
 1  20.00546790339034  3.28606687678768 -1.48907080948095
 1  21.22918016171617  2.11382945264526 -1.68908201480148
 1  19.89097407040704  1.55794141584158 -2.04749693119312
 1  21.03117835433543  1.99355082308231  2.02419345594559
 1  21.74358721592159  2.79652968036804  0.74953911101110
 1  20.35659528892889  3.39853305290529  1.21397013491349
 1 -7.23305513861386  1.75122399559956 -0.06748490239024
 1 -7.71581312971297 -0.02658283428343 -0.12438256585659

