%nproc=3
%Mem=2GB
# td=(NStates=1) B3LYP/SVP 

TD

0 1
 6 -5.10424812291229 -1.89028527062706  0.38573344924492
 6 -4.81872219121912  2.76760321202120  1.24671105700570
 6 -9.42153206290629  3.30505130433043 -0.10543901180118
 6 -9.87823587808781 -1.50343114651465 -0.83391594499450
 7 -5.18975813811381  0.49757138003800  0.72662109910991
 6 -4.49003761986199 -0.68643536453645  0.74537798119812
 6 -3.04243392989299 -0.57669410411041  1.07747274307431
 6 -3.02992795819582  0.94409330163016  1.56966607240724
 6 -4.41558075117512  1.53054287218722  1.15323892089209
 6 -2.78884745324532  1.12583009530953  3.11110897349735
 6 -2.06779885058506 -0.78826878857886  0.01429937553755
 6 -0.57556076827683 -0.81648986558656  0.40644309700970
 6  0.30065372677268 -0.94463133603360 -0.71428298589859
 8  0.01392315991599 -1.15449781638164 -1.89360297179718
 8  1.60479067616762 -0.66488326142614 -0.35396783948395
 7 -7.12083667826783  2.70888816061606  0.51910141934193
 6 -6.00364193959396  3.37426184448445  0.92005286218622
 6 -6.37557074277428  4.76058249774978  1.00684717751775
 6 -7.65132422922292  4.99310814631463  0.53276980438044
 6 -8.16787773367337  3.70499899359936  0.27204736013601
 6 -5.37054757125713  5.78528404350435  1.45149641564156
 6 -8.24946222892289  6.22974698629863  0.37023552485249
 6 -9.33331122932293  6.54362408430843 -0.54836731553155
 7 -9.24113231383138  0.87800503350335 -0.43491595999600
 6 -10.02972683558356  2.02740523922392 -0.48960823002300
 6 -11.32346621312131  1.78306186718672 -0.83348718261826
 6 -11.43349730023002  0.45611295139514 -1.10872582728273
 6 -10.08577080278028 -0.06057600930093 -0.78842208470847
 6 -12.37001550245025  2.78636713831383 -0.84527761806181
 6 -12.62045978547855 -0.45641812131213 -1.45456641634163
 6 -12.82204233493349 -0.71773503790379 -2.93033120442044
 7 -7.57529648724872 -1.32284396959696 -0.15652418091809
 6 -8.65480706820682 -2.07968669546955 -0.63711707410741
 6 -8.23020545954595 -3.52564944714471 -0.57474004130413
 6 -6.86241115021502 -3.46381320962096 -0.16781440534053
 6 -6.47402850625063 -2.14132695129513  0.05129020522052
 6 -8.95112787038704 -4.74479522902290 -0.85414440884088
 6 -5.73966091129113 -4.29797483258326  0.12558350395039
 8 -5.71318080828083 -5.59416894699470  0.15386812091209
 6 -4.45501312991299 -3.29754051565156  0.39416847894789
 6 -3.83651744964496 -3.77510160366037  1.72400892659266
 8 -4.01541661516152 -3.36867480138014  2.79432750085008
 8 -2.90575926352635 -4.77731270417042  1.47090751865187
 6 -2.13247795159516 -5.26250569666967  2.69241138073807
 6  2.70409257785779 -0.78258215581558 -1.34434846064606
 6  4.00315356215622 -0.62546304870487 -0.66874897499750
 6  4.99808206480648  0.15993704860486 -1.15623958055806
 6  4.96971616731673  1.06266699839984 -2.45692280908091
 6  6.26280802600260  0.37938567776778 -0.35114402860286
 6  7.56038727912791 -0.32628881178118 -1.01866873377338
 6  8.87071867296730  0.12118813371337 -0.23732207970797
 6  10.00364128982898 -0.56531085768577 -0.90577793259326
 6  9.94420045864586 -2.13072687558756 -0.95364464936494
 6  11.29571342154216 -0.18774308900890 -0.02996355205521
 6  12.65679735393539 -0.39877519471947 -0.73136765986599
 6  13.78522711211121 -0.04541176737674  0.28379043454345
 6  15.22876178797880 -0.17977885938594 -0.34248780668067
 6  15.64434400620062 -1.73641250665066 -0.51063983228323
 6  16.30767151145115  0.44309882718272  0.57121614391439
 6  17.80351524032403  0.43854677237724 -0.00425432683268
 6  18.70232115641564  1.39395372427243  0.78775959215922
 6  20.15928783038304  1.37220502510251  0.34304603210321
 6  20.45190588948895  1.73961053715372 -1.11101917971797
 6  21.03382590389039  2.23269460826083  1.32607439563956
 1 -3.94664232453245  3.36536776877688  1.62055693659366
 1 -10.16505435853585  4.09196643874387 -0.40706202890289
 1 -10.95698995539554 -2.07084423992399 -1.18541801490149
 1 -2.89755208220822 -1.41244047924793  2.11840271597160
 1 -2.22048336283628  1.46266648984899  1.02884579677968
 1 -1.74724498249825  0.77482385078508  3.49704880888089
 1 -3.14065955785579  2.00347539723972  3.27798799399940
 1 -3.51294089098910  0.44920010451045  3.71148632483248
 1 -2.21211672007201 -1.93423815691569 -0.51720616781678
 1 -2.15703904330433 -0.11340514951495 -0.84388108230823
 1 -0.16679249904991  0.06255010861086  0.93062342364236
 1 -0.33873421272127 -1.59683164176418  1.24222173057306
 1 -4.59905472197220  6.16064043214321  0.48158095789579
 1 -5.96893209960996  6.71996691139114  1.65589488408841
 1 -4.75592367916792  5.64746279027903  2.29353348734873
 1 -7.90083509290929  7.11581145564556  0.95735728962896
 1 -9.66307165906591  5.76491665216522 -1.33198478457846
 1 -9.54192893949395  7.75606433393339 -0.55746596949695
 1 -12.76346070807081  3.23663285048505  0.13712589948995
 1 -12.10401424972497  3.62818677607761 -1.64394371117112
 1 -13.26091711451145  2.46527436313631 -1.59528388378838
 1 -12.57766013921392 -1.40411933863386 -0.92046679777978
 1 -13.36248327282728  0.04463861856186 -1.23816617541754
 1 -12.98040367026702  0.16269308240824 -3.73927127142714
 1 -11.90318528652865 -1.15175274887489 -3.55830478257826
 1 -13.95966271977198 -1.27074616941694 -3.10081762406241
 1 -9.62994954375438 -5.06812613241324 -0.02659496149615
 1 -9.75496947584758 -4.73291123712371 -1.80150704890489
 1 -8.38046322102210 -5.65452371937194 -0.95535349084909
 1 -3.73638548994899 -3.35901219141914 -0.43405475407541
 1 -1.46286667966797 -5.99529462516252  2.31233456755676
 1 -1.51550999739974 -4.59591307520752  3.05644008660866
 1 -2.89149216561656 -5.65686077767777  3.61417829342934
 1  2.58706261376138 -1.82486012951295 -1.82281344834483
 1  2.44398929342934 -0.06878445924592 -2.22818058525853
 1  4.22549532123212 -1.04585689999000  0.27075497849785
 1  5.18169999919992  2.15646815581558 -2.17458217801780
 1  5.55031164836484  0.72611857435743 -3.31408280988099
 1  3.88361848004801  1.16854804160416 -2.86100692579258
 1  6.45949396559656  1.45214133913391 -0.24697488858886
 1  5.88522656735674  0.22567267766777  0.64605231263126
 1  7.39041582648265 -1.51849857445745 -0.68859961956196
 1  7.51639118161816  0.01509352995300 -2.13569839883988
 1  9.19757524492449  1.19217805910591 -0.28270812251225
 1  8.72375543834383 -0.14909906140614  0.84946775917592
 1  10.26705937453745  0.17778033473347 -1.89976455145515
 1  9.24680499669967 -2.38255694889489 -1.76607515531553
 1  10.82348737983798 -2.61232283208321 -1.40793139803980
 1  9.55350037013701 -2.48697038263826  0.07410914161416
 1  11.22630792819282  0.99526830693069  0.26911549674967
 1  11.28794475797580 -0.75634087058706  0.90393032323232
 1  12.85509021962196 -1.50034160536054 -1.06628984198420
 1  12.73547169936994  0.43471339233923 -1.57046858055806
 1  13.72811396629663  1.06804651545155  0.68517142804280
 1  13.55970019701970 -0.81087751555155  1.26813365926593
 1  15.19930227442744  0.21372257835784 -1.43018503180318
 1  14.89792534543454 -2.28208078987899 -1.04372370557056
 1  16.53762763626363 -1.76442047864786 -1.17246303020302
 1  16.00107538633863 -2.36061119371937  0.44342361376138
 1  16.00742101530153  1.47547411771177  0.68646910591059
 1  16.41049570637064  0.16161678497850  1.69830325292529
 1  18.71412263396340 -0.42849706020602  0.08664879707971
 1  17.88456304190419  0.53636552485249 -0.97518595109511
 1  18.33378806830683  2.47686408230823  0.70547593729373
 1  18.50664291849185  1.22256806630663  1.89830698069807
 1  20.53868020042004  0.41396935793579  0.65055621182118
 1  20.05086244284428  2.80799907000700 -1.39061096349635
 1  21.39752699639964  1.58532660236024 -1.47851095769577
 1  19.67882285528553  0.97271289298930 -1.70831301280128
 1  20.82928816531653  1.92046351435143  2.50627166376638
 1  22.04909776697670  2.06182621002100  1.01902605970597
 1  20.77916754615462  3.30463366296630  1.12863160106011
 1 -7.05063689678968  1.80347922112211  0.10948279437944
 1 -7.74449599799980 -0.22191236723672  0.01747161956196

