%nproc=3
%Mem=2GB
# td=(NStates=1) B3LYP/SVP 

TD

0 1
 6 -5.03910160826083 -1.87338358045805  0.54123899979998
 6 -4.79409972897290  2.87494394609461  1.52709909580958
 6 -9.28812872257226  3.27845864506451 -0.27743621152115
 6 -9.78024607910791 -1.47101790519052 -0.89978253165317
 7 -5.25277443974398  0.54615623852385  1.06980541754175
 6 -4.50984960106011 -0.64600132113211  0.91444488788879
 6 -3.02599228572857 -0.52975941064106  1.39367436323632
 6 -3.06811177657766  0.99039793209321  1.81410051585159
 6 -4.40734992809281  1.54034385228523  1.44842843984398
 6 -2.97667623612361  0.96771428372837  3.38860672327233
 6 -2.06474854555456 -0.70891085278528  0.29279722532253
 6 -0.54553776597660 -0.71978019461946  0.59930238293829
 6  0.32420608200820 -0.95739261216122 -0.60549210681068
 8  0.03501526912691 -1.26725909250925 -1.73402701420142
 8  1.62081227832783 -0.83077985108511 -0.17848029072907
 7 -7.07092168676868  2.77890516231623  0.46989649884988
 6 -6.01477305270527  3.46303072137214  1.10007086398640
 6 -6.37158034373437  4.87530396989699  1.12582907570757
 6 -7.64436353315332  4.96095493099310  0.43997052445245
 6 -8.10463140904091  3.69404789848985  0.22530268566857
 6 -5.53348386488649  5.87627314241424  1.55607687368737
 6 -8.24260154285428  6.26324033563356  0.17926642794279
 6 -9.04209210741074  6.58011773367337 -0.71545402420242
 7 -9.15632383298330  0.83701093409341 -0.55246771517152
 6 -9.84167803070307  1.98559105780578 -0.59329859905991
 6 -11.30806467296730  1.84542810381038 -1.10585441934193
 6 -11.42914686518652  0.47929526962696 -1.22334728942894
 6 -10.11726395209521 -0.11827177887789 -0.89490273277328
 6 -12.31040954185419  2.80075857745775 -1.30783387368737
 6 -12.55674341384139 -0.33000548004800 -1.73349430913091
 6 -12.61801193189319 -0.48222148654866 -3.26460463176318
 7 -7.50645960356036 -1.19446113131313 -0.09506803530353
 6 -8.56680826832683 -2.00817954475448 -0.61614497689769
 6 -8.09621206020602 -3.42668955115512 -0.51837440474047
 6 -6.72691760086009 -3.38543537183718 -0.19711733563356
 6 -6.38622972637264 -2.02687550615062  0.07432250845084
 6 -8.82187494509451 -4.62024277377738 -1.09453844824482
 6 -5.56307325252525 -4.23231826692669  0.09185013061306
 8 -5.47341683188319 -5.44689421952195 -0.02456972287229
 6 -4.46558418701870 -3.27941870347035  0.46418548064806
 6 -3.81063486138614 -3.81595568906891  1.68013453915392
 8 -4.17926299979998 -3.50091802570257  2.90405847394740
 8 -2.90307899549955 -4.71593656655666  1.57830825872587
 6 -2.29394409820982 -5.35227467356736  2.80944308390839
 6  2.64346651525153 -1.03178707630763 -1.24244827062706
 6  3.91429467626763 -0.71687218961896 -0.49217131723172
 6  4.93148540514051  0.02190324522452 -1.06407036363636
 6  4.90525972167217  0.58723945564556 -2.36965408220822
 6  6.31183292849285  0.25431317051705 -0.34321323552355
 6  7.42263350375038 -0.49762594549455 -0.97057392429243
 6  8.76453805490549 -0.42809679477948 -0.10891923942394
 6  10.07880880658066 -0.81694602120212 -0.80974832963296
 6  10.05098113671367 -2.26284008690869 -1.13880316521652
 6  11.24621847204721 -0.36431074577458 -0.00940149584958
 6  12.64784645884589 -0.46939225642564 -0.60321484458446
 6  13.82898148754876 -0.20901812801280  0.26924898039804
 6  15.18314722652265 -0.16532741424142 -0.55647920582058
 6  15.56908648044804 -1.62244110951095 -1.25252402070207
 6  16.32753349764977  0.34046856415642  0.49432845514551
 6  17.63887877667767  0.80744366206621 -0.21429533093309
 6  18.61247217151715  1.26194052295230  0.77510832703270
 6  19.97073897549755  1.57014481908191  0.19506123362336
 6  19.87364806370637  2.71060763686369 -1.01408948674867
 6  20.85301782308231  2.23411475027503  1.21542333053305
 1 -4.15675333563356  3.63497472947295  2.12351723262326
 1 -10.04721257435744  3.93987122922292 -0.43956527922792
 1 -10.64732898929893 -2.13400055555556 -1.05992546564657
 1 -2.81117344434443 -1.22000123532353  2.05167604330433
 1 -2.32602391689169  1.59477970117012  1.27446035823582
 1 -1.84197445544554  0.69363573197320  3.82669177317732
 1 -3.00975646754675  1.91639668936894  3.65135533073307
 1 -3.83673327022702  0.31179636413641  3.66960213641364
 1 -2.50135564396440 -1.70444517761776 -0.25019946714672
 1 -2.32213555295530  0.09922611361136 -0.55012170637064
 1 -0.10143596339634  0.30388424202420  0.96045640694069
 1 -0.35590592989299 -1.40110206880688  1.62496000440044
 1 -4.56818163466347  6.05441981008101  1.06977977777778
 1 -5.87972317871787  7.06076099079908  1.56794608920892
 1 -5.03670175697570  5.59362740674067  2.47379151315132
 1 -7.79506451585159  7.07559743424342  0.85924747864786
 1 -9.42384773667367  5.82336249674967 -1.31638322442244
 1 -9.45011975857586  7.56578530603060 -0.79755997889789
 1 -12.21775613761376  3.59044823202320 -0.49522733583358
 1 -12.23487733603360  3.47251120852085 -2.31428074487449
 1 -13.27556857965797  2.31051888758876 -1.23237759315932
 1 -12.46975934913491 -1.38962788948895 -1.18160291139114
 1 -13.44297132163216  0.34517867256726 -1.56885924472447
 1 -12.29346497639764  0.40167698079808 -3.56186353065307
 1 -11.83797876587659 -1.14213178677868 -3.76838579067907
 1 -13.56005275877588 -0.68684777957796 -3.59035657795780
 1 -10.07477402620262 -4.64950427022702 -0.85654795679568
 1 -8.82731671057106 -4.57385533153315 -2.37655455365537
 1 -8.37947312201220 -5.75127339433943 -0.60166812231223
 1 -3.72610446184618 -3.35867215741574 -0.41254260286029
 1 -1.88959935293529 -6.37035213091309  2.41041437553755
 1 -1.49021746814682 -4.54442792669267  3.12407685028503
 1 -3.35292830923092 -5.27415250685068  3.58154503010301
 1  2.68959286678668 -2.15325296879688 -1.48804997199720
 1  2.38070296479648 -0.32424000480048 -2.19618738593859
 1  4.19889266096610 -1.11867418171817  0.54310221322132
 1  5.48461029022902  1.58478098709871 -2.46509122892289
 1  5.39664628182818  0.37214317681768 -3.46685808740874
 1  3.85866598479848  0.62534372117212 -3.05341616671667
 1  6.52304032023202  1.42481860686069 -0.44590478157816
 1  6.02466051075108 -0.09104899449945  0.80949865726573
 1  7.41308809370937 -1.59777650225023 -1.07043780338034
 1  7.75906544904490 -0.09422740214021 -1.87265209420942
 1  8.77199268666867  0.65640448174817  0.12383253155316
 1  8.72588565136514 -1.00698484998500  0.85562837523752
 1  10.17386005460546 -0.37385482878288 -1.93888846384638
 1  9.16144646084608 -2.55469416261626 -1.43911245904590
 1  10.90559559065906 -2.73816541634163 -1.79702030693069
 1  10.02890791089109 -2.70071175677568 -0.04074234353435
 1  11.19338463586359  0.64029280938094  0.53386197139714
 1  11.38553451695170 -1.18605384188419  0.83268319851985
 1  12.70105481608161 -1.78424999619962 -0.74798801180118
 1  12.71484963716372 -0.14506458545855 -1.65646718041804
 1  13.61989314421442  0.82135184598460  0.98740165106511
 1  14.02317654465446 -1.01008743654365  1.08048489438944
 1  14.88233057725772  0.71905311141114 -1.35547756105610
 1  14.90248580148015 -1.94354693649365 -1.97707704090409
 1  16.63231710521052 -1.69378341494149 -1.54619040294029
 1  15.48740401920192 -2.35294042664266 -0.46459718831883
 1  15.81435170837084  1.36382295259526  1.02693315231523
 1  16.45164982178218 -0.57597697439744  1.36324974757476
 1  18.14711593329333 -0.21138534903490 -1.03354322212221
 1  17.17832241784178  1.75019690799080 -1.29632806530653
 1  18.16881157065707  2.51558795469547  1.26336172587259
 1  18.64901715591559  0.76187199669967  1.72203935393539
 1  20.43422975537554  0.58266622762276 -0.19848869266927
 1  19.40905826242624  3.75316358645865 -0.66620852325233
 1  20.95397264096410  3.07275534523452 -1.61830493709371
 1  19.48594356735673  2.27154277597760 -1.83481566306631
 1  21.06672190869087  1.65759722772277  2.24112514911491
 1  21.89677253445345  2.50903093049305  0.74352850995099
 1  20.47917754715472  3.24331753135314  1.46724546244624
 1 -7.09374120722072  1.63361223442344  0.55230707680768
 1 -7.39932148054805 -0.19017919391939 -0.09541966956696

