%nproc=3
%Mem=2GB
# td=(NStates=1) B3LYP/SVP 

TD

0 1
 6 -5.13692139023902 -1.95823206530653  0.61345622152215
 6 -4.79724004300430  2.71266771847185  1.49913629952995
 6 -9.37171708140814  3.26344714391439 -0.20863933183318
 6 -9.86557461196120 -1.52907371077108 -0.78925147854785
 7 -5.19634879717972  0.41397302020202  0.84947338433843
 6 -4.50362897899790 -0.76147286828683  0.83430687408741
 6 -3.07241692819282 -0.46629306400640  1.22676767256726
 6 -3.07153211861186  0.87945683798380  1.75733483928393
 6 -4.36739593269327  1.33892371027103  1.28886248324832
 6 -2.95531409990999  0.90167768006801  3.29078694129413
 6 -2.03255532623262 -0.64777473917392  0.06692463806381
 6 -0.60854406660666 -0.69066728332833  0.47094954765477
 6  0.35124878627863 -0.95060193309331 -0.68933049064906
 8  0.00068183578358 -1.36609897649765 -1.71671528302830
 8  1.67711790889089 -0.63255002810281 -0.37611005370537
 7 -7.02380697529753  2.65506277807781  0.37388689788979
 6 -5.90909248464846  3.31921633993399  0.93254411131113
 6 -6.19936312201220  4.79190563006301  0.96114260706071
 6 -7.51350044684468  4.97623645914591  0.54467099449945
 6 -8.05484643054305  3.59211770547055  0.22324247964796
 6 -5.25380589708971  5.88880439553955  1.57833909990999
 6 -8.20313759645964  6.13799781138114  0.40886938823882
 6 -9.01106900510051  6.66645636753675 -0.62536501530153
 7 -9.20808900950095  0.81053828682868 -0.50151261966197
 6 -9.93595745864586  1.95220771947195 -0.56817608680868
 6 -11.22003587008701  1.79487304830483 -0.96179001290129
 6 -11.45900985148515  0.47187452755275 -1.10489544424442
 6 -10.17951017671767 -0.14104405610561 -0.79636287878788
 6 -12.30250875177518  2.90015851745175 -1.09853294359436
 6 -12.71996973647365 -0.31324380388039 -1.47244820452045
 6 -12.76422655335534 -0.62283554795480 -2.97543571487149
 7 -7.56169512711271 -1.27573925912591  0.00792226372637
 6 -8.65570715821582 -2.09284801160116 -0.43885724812481
 6 -8.16815925492549 -3.46418330053005 -0.54696726402640
 6 -6.82829773887389 -3.40105693399340 -0.07838546244624
 6 -6.48180928432843 -2.04219703830383  0.09032410861086
 6 -8.97128988658866 -4.62224297379738 -1.06074506890689
 6 -5.78375532073207 -4.25818085318532  0.07750869646965
 8 -5.62934242444245 -5.43756328642864 -0.16114338023802
 6 -4.51822945154515 -3.31962272387239  0.44644370647065
 6 -3.86058985688569 -3.76208030153015  1.73333985968597
 8 -4.05980105360536 -3.20285821972197  2.86358442654265
 8 -2.90154884248425 -4.72917789068907  1.54343477137714
 6 -2.17370207400740 -5.11224067016702  2.59763190279028
 6  2.74742691129113 -1.05170906850685 -1.39448347414741
 6  4.06190943774377 -0.77505800820082 -0.90488258835884
 6  4.94659691629163  0.21988304320432 -1.41109506610661
 6  4.78084728042804  0.95716644834483 -2.77284440124012
 6  6.22462420762076  0.29053679287929 -0.59142805700570
 6  7.50032127252725 -0.48963514641464 -1.07547441434143
 6  8.73318491959196 -0.17459144424442 -0.20051839933993
 6  10.03717464316432 -0.79447377397740 -0.85298265306531
 6  9.98757479607961 -2.32305610851085 -0.92046133103310
 6  11.23125697589759 -0.23928824352435 -0.09780033573357
 6  12.73532520672067 -0.47558287548755 -0.65674019711971
 6  13.85482407180718 -0.00496772297230  0.13236529202920
 6  15.23580249204920 -0.25322620412041 -0.38224178207821
 6  15.59881945374537 -1.69801866726673 -0.44262303060306
 6  16.28662940724072  0.52042655995600  0.54653367566757
 6  17.72413730253025  0.60691360906091  0.06432253085309
 6  18.64797572187219  1.45513984288429  0.94243505970597
 6  20.01656355795580  1.61448925352535  0.37226895439544
 6  20.20437113601360  2.06966354245425 -1.05689376717672
 6  20.97219974127413  2.46697803660366  1.29080086828683
 1 -4.04251191149115  3.43876510851085  1.98056293719372
 1 -9.98134598769877  4.22424966706671 -0.26228755145515
 1 -10.71905616201620 -2.16938409390939 -1.11462093519352
 1 -2.72154448144815 -1.24460369556956  1.81949282498250
 1 -2.39968128262826  1.60749097229723  1.30433334553455
 1 -2.23962422042204  0.55966233463346  3.74507361136114
 1 -3.28396388828883  1.97595264496450  3.56945714091409
 1 -3.80771036793679  0.42726791129113  3.88228340454045
 1 -2.49263477187719 -1.59758449154916 -0.58021246844684
 1 -2.28499183858386  0.16935312631263 -0.68942563676368
 1 -0.39890571037104  0.27943179677968  0.89655001630163
 1 -0.43959429872987 -1.37914987358736  1.10047755615562
 1 -4.09450426692669  5.85289965806581  1.31205400520052
 1 -5.57604281068107  6.99540445514551  1.22808210281028
 1 -5.39545763256326  5.87416546054605  2.74377851185119
 1 -8.00913592299230  6.80324019851985  1.08737029092909
 1 -9.32872822472247  6.11956211671167 -1.41286287238724
 1 -9.17585233183318  7.92581130863086 -0.40089031193119
 1 -12.30702506450645  3.53766295349535 -0.04206201930193
 1 -12.03622747104711  3.57031098849885 -1.80717003380338
 1 -13.30684170697070  2.67377521322132 -1.20368472387239
 1 -12.69310168336834 -1.40393932063206 -0.83521827292729
 1 -13.63045006950695  0.12999715441544 -1.00438279707971
 1 -12.93933956385638  0.21128794189419 -3.66017336163616
 1 -11.69182415041504 -0.99085665926593 -3.31287023912391
 1 -13.66443319681968 -1.44963405820582 -3.18608615091509
 1 -9.98171472027203 -4.98151747154716 -0.57034933693369
 1 -9.18910288918892 -4.44772271827183 -2.19197609580958
 1 -8.47157233193319 -5.61714998199820 -0.96892484798480
 1 -3.84264611601160 -3.43087937813781 -0.44880622922292
 1 -1.85091548454846 -5.99915501120112  2.26716005010501
 1 -1.34377282368237 -4.34071755565557  2.98612305490549
 1 -2.85625864226423 -5.41592668426843  3.55868274387439
 1  2.51094500200020 -1.99970761426143 -1.64887605460546
 1  2.37672256675668 -0.58485606640664 -2.28068583578358
 1  4.04412718441844 -1.23157547184718  0.10832873587359
 1  4.91156298549855  2.00865337433743 -2.90125484528453
 1  5.48088470567057  0.48917487998800 -3.45260666226623
 1  3.97058717691769  0.88414960176018 -3.44711553665367
 1  6.59091710791079  1.14370049504950 -0.46299649074907
 1  6.08085613031303 -0.24172406200620  0.39813752115212
 1  7.16874365926593 -1.57440416501650 -0.89940069966997
 1  7.71820136263626 -0.18918689808981 -2.09852468146815
 1  8.73230871827183  0.86541538283828 -0.09450930263026
 1  8.66300936373637 -0.53240739223922  0.70854366676668
 1  10.23020568916892 -0.50375781908191 -1.81109568456846
 1  9.27734805100510 -2.62106079927993 -1.64896344414441
 1  11.02596762786279 -2.62279387918792 -1.24117472237224
 1  9.68415343544354 -2.66346803240324  0.17694942564256
 1  11.11946724412441  0.86096487658766  0.18739732493249
 1  11.46771273477348 -0.74066930343034  1.00176010621062
 1  12.69463417401740 -1.58124969616962 -0.88128134113411
 1  12.76958511071107 -0.02927300630063 -1.76613814751475
 1  13.71710286518652  1.07461717251725  0.00401331223122
 1  13.65833006000600 -0.43147957575758  1.13460030593059
 1  15.15662800700070  0.09757096319632 -1.32401441474147
 1  14.81873742664266 -2.41120370217022 -0.98784811801180
 1  16.50569444294429 -2.03409744634463 -1.00241602550255
 1  15.93792907170717 -2.22723785638564  0.64345361676168
 1  16.04252452565257  1.49818638893889  0.64225468446845
 1  16.40898555535554  0.11300192349235  1.50427384998500
 1  18.35144636633663 -0.46937114761476  0.01457158935894
 1  17.57305189078908  1.15817770607061 -0.93000143264326
 1  18.22752744224422  2.48136453235323  1.02767815751575
 1  18.83697595179518  1.04778058755876  1.96325347534754
 1  20.50429676207621  0.60605856685669  0.49408056425642
 1  19.85586294289429  3.03785205530553 -1.31350325272527
 1  21.38164540824082  2.04399246894689 -1.25090819741974
 1  19.67814278727873  1.44163978567857 -2.01724390589059
 1  20.98692392889289  1.97959942794279  2.43165420202020
 1  21.95151800900090  2.56789681708171  0.78914307140714
 1  20.50288991839184  3.39692289188919  1.44990372827283
 1 -7.23385521862186  1.57315618881888  0.47637948404840
 1 -7.63641518991899 -0.17512768876888  0.02280215261526

