%nproc=3
%Mem=2GB
# td=(NStates=1) B3LYP/SVP 

TD

0 1
 6 -5.04911260936094 -1.96107234933493  0.42140701660166
 6 -4.91770208920892  2.70905735743574  1.35250163606361
 6 -9.39071898159816  3.33006380558056 -0.19303777167717
 6 -9.81861991649165 -1.51093189658966 -0.94606716011601
 7 -5.23821298359836  0.35058668156816  0.84921335833583
 6 -4.43174179027903 -0.73488020902090  0.76071951535154
 6 -3.06624631113111 -0.47430386508651  1.07271226702670
 6 -3.12208717411741  0.94111300360036  1.82467157295730
 6 -4.48127732083208  1.36996681458146  1.31440503750375
 6 -3.04747331583158  0.90570808310831  3.38294615721572
 6 -1.95028709940994 -0.67092705440544  0.05692363796380
 6 -0.55948916111611 -0.59124734133413  0.50690314301430
 6  0.37450111151115 -1.06063293619362 -0.59961151875188
 8  0.18411017861786 -1.62788515511551 -1.60449406090609
 8  1.58969916701670 -0.62726950005000 -0.16773921662166
 7 -7.16178077267727  2.80367763956396  0.50511002020202
 6 -6.06262783818382  3.42033645194519  0.97192804970497
 6 -6.33227641334133  4.82200864036404  1.11911840464046
 6 -7.62335143194319  4.88856769226923  0.56303283068307
 6 -8.16952789868987  3.64361285498550  0.24219437483748
 6 -5.42033254975498  5.86855237033703  1.70557182318232
 6 -8.33921120382038  6.22240625222522  0.48532703400340
 6 -9.14696259445945  6.49193891579158 -0.60405288408841
 7 -9.23008120872087  0.88939617261726 -0.56160862926293
 6 -9.91350521342134  2.01668416711671 -0.51048031723172
 6 -11.32569643614361  1.77335089608961 -0.98641247514751
 6 -11.43699765026503  0.47418475857586 -1.22606756145615
 6 -10.01665389108911 -0.13266321802180 -0.92819606210621
 6 -12.26958545944595  2.84187268886889 -1.10959404970497
 6 -12.65433317281728 -0.30516299579958 -1.77417837753775
 6 -12.54112424312431 -0.56306957135714 -3.25919409070907
 7 -7.43078203580358 -1.21434311951195 -0.21490001850185
 6 -8.53030461796180 -1.94724345114511 -0.69789315171517
 6 -8.22056449544955 -3.29280616281628 -0.68291085838584
 6 -6.80961587068707 -3.38148497679768 -0.19731735563556
 6 -6.39699080248025 -2.02663548214821  0.05054013021302
 6 -9.03204596219622 -4.59316006550655 -0.99302829722972
 6 -5.73527047224723 -4.27126216131613  0.14441538713871
 8 -5.67404689488949 -5.44586411651165  0.12204493859386
 6 -4.49134676327633 -3.32018277987799  0.51413047514751
 6 -3.91215501340134 -3.73001709520952  1.79804633033303
 8 -4.13716879037904 -3.34749268316832  2.88233630173017
 8 -2.97369605720572 -4.68920389328933  1.59678010591059
 6 -2.32459716351635 -5.31109055515552  2.69077121672167
 6  2.72979514811481 -1.03127702530253 -1.13296732253225
 6  4.05383863066307 -0.65655615801580 -0.46738883898390
 6  5.00450270687069  0.15062611751175 -1.04315827242724
 6  4.99827902360236  0.69226995869587 -2.49339645644564
 6  6.25329707490749  0.25204294349435 -0.30846976117612
 6  7.51469270967097 -0.38818500140014 -0.97078394529453
 6  8.73948554965497 -0.22906689178918 -0.16195454295430
 6  9.99468039373937 -0.67180150675068 -0.91098845364536
 6  10.05636167476748 -2.19554335723572 -1.07655694059406
 6  11.27345119531953 -0.21705602030203 -0.18847940364036
 6  12.63885555975598 -0.61267658485849 -0.66492101520152
 6  13.83320190959096  0.05594836863686  0.08019007450745
 6  15.32019093089309 -0.25735661716172 -0.40620417831783
 6  15.65110468226823 -1.64244310971097 -0.52264103240324
 6  16.24900564486449  0.53084760206021  0.42428145044504
 6  17.69326421522152  0.67263018071807 -0.12157605900590
 6  18.59666059035904  1.40011434033403  0.79181999819982
 6  20.09046094769477  1.51318912351235  0.09672139963996
 6  20.16892759165917  2.36453302940294 -1.19474755255526
 6  21.05329785108511  2.14701604040404  1.18612040024002
 1 -3.94851251155116  3.29479071107111  1.91326620752075
 1 -10.14627248034803  4.04095133723372 -0.28454977767777
 1 -10.46365062146215 -2.15122227772777 -1.36744621772177
 1 -2.70713304030403 -1.13769300450045  2.07002787848785
 1 -2.33930524502450  1.47222744594459  1.47818073027303
 1 -2.07645790379038  0.59329569796980  3.81156026002600
 1 -3.01747723962396  1.93711876157616  3.98964916011601
 1 -3.64597419431943  0.19291447594759  4.09809498569857
 1 -1.95408091649165 -1.72286701980198 -0.39267371457146
 1 -2.08856219561956 -0.01488529752975 -0.80370706490649
 1 -0.19819563936394  0.53611746534653  0.81539190049005
 1 -0.37166750605060 -1.02446440504050  1.46634414281428
 1 -4.29535435193519  5.97969233733373  1.19212201200120
 1 -5.84192939933993  6.98662357705771  1.61035032963296
 1 -5.29757784458446  5.82148019201920  2.60895502950295
 1 -8.21686669606961  6.99290916541654  1.19153070697070
 1 -9.41809716161616  5.91129128962896 -1.40870245634563
 1 -9.63864861146114  7.46143487098710 -0.71526174907491
 1 -12.60563492549255  3.44401358855886 -0.27525533863386
 1 -12.07272112041204  3.73619757715772 -1.94508382518252
 1 -13.18871989478948  2.48783661936194 -1.59373372877288
 1 -12.77694006720672 -1.24445337203720 -1.33850860196020
 1 -13.58023504800480  0.41951610631063 -1.52476483528353
 1 -12.49044467436743  0.33535034813481 -3.89662700700070
 1 -11.55368033603360 -1.01406898049805 -3.33548250035004
 1 -13.32696945044504 -1.31180027482748 -3.66669421172117
 1 -9.97554410321032 -4.62112143194319 -0.21290359235924
 1 -9.25459943884388 -4.71891983798380 -2.11935883408341
 1 -8.35693086778678 -5.40004827182718 -0.86611456695670
 1 -3.68719057045705 -3.52451874207421 -0.27452880148015
 1 -1.45572596559656 -5.89944504020402  2.28780211431143
 1 -1.81332977937794 -4.61705518941894  3.23365780838084
 1 -2.99491250765077 -5.79761485308531  3.40006688228823
 1  2.74933884138414 -2.27598524202420 -1.40342150915092
 1  2.58104299879988 -0.44717229802980 -1.90855862306231
 1  4.30710348204820 -1.15319763406341  0.59354725772577
 1  5.45650747994799  1.60176268526853 -2.51935665546555
 1  5.31189780698070 -0.22626666416642 -3.23228463006301
 1  3.81752187038704  0.91899308610861 -2.91636246134613
 1  6.47252526872687  1.35811193619362 -0.10358054915492
 1  5.98844688938894 -0.07476736633663  0.58049575697570
 1  7.23738052295229 -1.42941966656666 -1.01551231083108
 1  7.53016255875588 -0.25552353175318 -2.06246107510751
 1  9.19748523592359  0.86222506380638  0.14815496379638
 1  8.81722478527853 -0.77366151765176  0.78500131253125
 1  10.00139280788079 -0.39999744304430 -2.10197477247725
 1  9.09227954415442 -2.82755144834483 -1.47893644144414
 1  11.02798782988299 -2.52824442424242 -1.43690429532953
 1  10.20439545964597 -2.61504318991899 -0.11118938823882
 1  11.32258755615562  0.89964874497450 -0.05097651245124
 1  10.88153411691169 -0.72846808330833  0.94060399059906
 1  12.97689239983998 -1.58980055125513 -0.68470168316832
 1  12.76949510171017 -0.32203228222822 -1.70025155885588
 1  13.91064221912191  1.17155686648665  0.09209212011201
 1  13.97970219721972 -0.44599102690269  1.02269911581158
 1  15.28496084028403  0.16853805990599 -1.32124413771377
 1  14.90886643954395 -2.33749633143314 -0.99241857505751
 1  16.71314518801880 -1.94662869946995 -0.95257104100410
 1  15.77675295409541 -1.97144227682768  0.40348962036204
 1  15.64776504970497  1.51752832313231  0.44402486148615
 1  16.28564322112211  0.28140876417642  1.52235565816582
 1  17.93224444614462 -0.27726193669367 -0.43735360316032
 1  17.51142572817282  1.14047593589359 -1.22402083458346
 1  18.07671236073607  2.59121551745175  1.02387777747775
 1  18.58690094429443  0.83988979847985  1.71168831883188
 1  20.46626295869587  0.40006796779678 -0.09466831063106
 1  20.08779613621362  3.48912718281828 -0.82191409380938
 1  21.25387263096310  2.35028309800980 -1.57343044964496
 1  19.73023799679968  1.97519314101410 -2.15056723822382
 1  20.77435267176718  1.93300476847685  2.21222225882588
 1  22.18313117031703  1.96087611501150  0.89979413651365
 1  20.83267289668967  3.32771597119712  1.00049878777878
 1 -7.24031586468647  1.72830170337034  0.33838568466847
 1 -7.63117466586659 -0.25013518951895 -0.30324045164516

