%nproc=3
%Mem=2GB
# td=(NStates=1) B3LYP/SVP 

TD

0 1
 6 -4.98664636273627 -1.92146838893889  0.42954783068307
 6 -4.94590490949095  2.87063351505151  1.35350173607361
 6 -9.47388729842984  3.24622542174217 -0.22787125502550
 6 -9.84250230473047 -1.58715951935194 -0.83967652105210
 7 -5.13077223952395  0.48276989988999  0.73487192419242
 6 -4.35714433053305 -0.65857257825783  0.74015745914591
 6 -2.97035672217222 -0.56685312001200  1.19165416121612
 6 -2.95763072847285  1.02823171547155  1.73768287408741
 6 -4.38446763986399  1.49994981288129  1.23224682168217
 6 -2.92551111961196  1.14344185648565  3.12265012761276
 6 -2.08912098279828 -0.68255821752175  0.04012195779578
 6 -0.52180539273927 -0.46945516211621  0.37058951165117
 6  0.53435709710971 -0.97294416731673 -0.69379093669367
 8  0.15381714931493 -1.59124149074908 -1.64699831133113
 8  1.75390558765877 -0.45516228932893 -0.30703314601460
 7 -7.13395799039904  2.75596286808681  0.46374588378838
 6 -6.11792336773677  3.44243866216622  0.93863472037204
 6 -6.44611779747975  4.86437287678768  0.98512500530053
 6 -7.71579067586759  4.93866270177018  0.57730425782578
 6 -8.21949289518952  3.55102359605961  0.19613976937694
 6 -5.56616713321332  5.80293580868087  1.60702196819682
 6 -8.48015529822982  6.25323933553355  0.57889639093909
 6 -9.47834573277328  6.56439616151615 -0.38720119891989
 7 -9.24390259085908  0.79347658065807 -0.42281474987499
 6 -9.97545140804080  1.95541804050405 -0.46329559875988
 6 -11.45708957545755  1.61873543454345 -0.88458229212921
 6 -11.49385333583358  0.34208154825483 -1.10143509820982
 6 -10.10352257795780 -0.22083203490349 -0.84631787428743
 6 -12.54035253615361  2.66091459305931 -0.93365645594559
 6 -12.71424916441644 -0.49848232773277 -1.47189814951495
 6 -12.64841497219722 -0.56569983438344 -3.11196936823682
 7 -7.43356231383138 -1.22786447164716 -0.29221775027503
 6 -8.54564615211521 -2.06889561636164 -0.57708107050705
 6 -8.03679611861186 -3.41274815701570 -0.58126069336934
 6 -6.67077198629863 -3.33400022832283 -0.27201482538254
 6 -6.36159726312631 -2.04553737233723 -0.12295721952195
 6 -8.96015877347735 -4.55920667016702 -0.98207720212021
 6 -5.61935888108811 -4.29426446154615 -0.06683573797380
 8 -5.52115160536054 -5.46863639373937 -0.06699396529653
 6 -4.36046367496750 -3.30744150575057  0.41096015811581
 6 -3.87951174907491 -3.75479957345735  1.79288581428143
 8 -4.17664273777378 -3.23497143104310  2.83694176227623
 8 -2.98604729232923 -4.71366633953395  1.60073050095009
 6 -2.53451815561556 -5.40336978307831  2.82465460506051
 6  2.73922609120912 -0.82556645424542 -1.31797582338234
 6  4.04825807260726 -0.57603810621062 -0.70820292039204
 6  5.03527578417842  0.29947100200020 -1.12496645324532
 6  4.84766396209621  1.18928966066607 -2.45436255305531
 6  6.34256600180018  0.43827156635664 -0.40182909710971
 6  7.57706894729473 -0.29529571247125 -1.03900076697670
 6  8.79712131323132 -0.05993997909791 -0.20234858235824
 6  10.10138106380638 -0.79682400900090 -0.86109346414641
 6  9.90209624822482 -2.25462926582658 -0.93342262716272
 6  11.39311316151615 -0.25381969666967 -0.03581413711371
 6  12.73390506470647 -0.54483980118012 -0.73260778387839
 6  13.90589917931793 -0.15458268446845  0.22227428292829
 6  15.25016392819282 -0.41736261776178 -0.31321487938794
 6  15.74177374917492 -1.87529639503950 -0.11739050735073
 6  16.25897664196420  0.54396891419142  0.41561058335834
 6  17.75622051085109  0.46161907960796 -0.09554345574557
 6  18.61349227352735  1.56370069896990  0.70597141334133
 6  20.11943384498450  1.38151595619562  0.24370609810981
 6  20.41013171207121  1.68601517761776 -1.22758083588359
 6  20.91393391469147  2.31556289508951  1.20114190239024
 1 -4.14961262156216  3.47751898389839  1.77176205710571
 1 -10.10250810391039  4.02048929102910 -0.38432975567557
 1 -10.58501275767577 -2.37158431393139 -1.48170764386439
 1 -2.73481580858086 -1.11090032523252  2.13061393709371
 1 -2.16397771227123  1.69798002120212  1.32019493169317
 1 -2.09496975497550  0.71446781518152  3.33481258525853
 1 -2.79577506940694  2.16298134783478  3.69913010821082
 1 -3.81038063496350  0.64599978447845  3.83625880208021
 1 -2.10593610201020 -1.58657339043904 -0.68440288748875
 1 -2.28717205660566  0.06908309930993 -0.57910460466047
 1 -0.29829564936494  0.70116396999700  0.65238559985999
 1 -0.14722506180618 -1.11830378897890  1.29063657205721
 1 -4.55591040754075  6.01856622472247  1.08935173497350
 1 -6.18052325872587  6.86199111381138  1.42948224282428
 1 -5.13093117991799  5.67077512151215  2.62978711271127
 1 -8.30291530093009  7.02232210671067  1.39320087398740
 1 -9.63394874677468  5.71585174567457 -1.21585317141714
 1 -9.65372011861186  7.60179890739074 -0.59569979287929
 1 -12.80801516351635  3.05835502270227  0.02974516141614
 1 -12.25149899819982  3.45518947634763 -1.78009732653265
 1 -13.46675769856986  2.30552838853885 -1.21666602200220
 1 -12.76943931713171 -1.43991291799180 -1.13725847694769
 1 -13.53909093359336 -0.01030687598760 -1.06613897269727
 1 -12.53699932983298  0.55083189628963 -3.57032437673767
 1 -11.75677064506451 -1.25370294389439 -3.28426737883788
 1 -13.60384713821382 -0.97826692149215 -3.49845738803880
 1 -10.08700524932493 -4.45235455525553 -0.55706800880088
 1 -9.18399237813781 -4.81384933093309 -2.18277517571757
 1 -8.33871904660466 -5.41305957295730 -0.60887884338434
 1 -3.50640249164916 -3.42623891409141 -0.28770011861186
 1 -1.72425281828183 -6.14024912061206  2.52767610171017
 1 -2.20614906130613 -4.55558904280428  3.64410885348535
 1 -3.43978699509951 -6.12177726932693  3.14818169376938
 1  2.78559246674667 -2.05652329582958 -1.48997016401640
 1  2.54465936043604 -0.17626520732073 -2.33845161236124
 1  4.28421119281928 -1.03232554685469  0.11533943694369
 1  5.02520434963496  2.21776428542854 -2.64019873967397
 1  5.43642025922592  0.61053701620162 -3.24484588618862
 1  3.99243936213621  1.12390357715772 -3.22432325742574
 1  6.73986200240024  1.52597872287229 -0.24104429552955
 1  6.02020006470647 -0.08923881348135  0.48174588198820
 1  7.33864064896490 -1.33294001860186 -0.99654041364136
 1  7.71735127762776  0.09221124172417 -2.13011784078408
 1  9.11336682408241  0.99161800310031 -0.15644549624963
 1  8.60366342914291 -0.58263241474147  0.84210702310231
 1  10.04183685228523 -0.30788823212321 -1.93180775577558
 1  8.96447676387639 -2.79913860706071 -1.28450699849985
 1  10.73216824792479 -2.63471507130713 -1.64041464636464
 1  10.19683470357036 -2.81884356995700  0.02860459115912
 1  11.19082437983798  0.79162794289429  0.05337392259226
 1  11.36363232673267 -0.61599683618362  1.00698062826283
 1  12.79184389498950 -1.55270684188419 -0.81673488648865
 1  12.99787793999400 -0.16702678167817 -1.67686922062206
 1  13.66632778767877  1.01130084088409  0.31881479237924
 1  13.80207443444344 -0.49273570137014  1.31578842474247
 1  15.25212755695570 -0.03156195009501 -1.27307932123212
 1  15.07944349724972 -2.62330491229123 -0.71154048724872
 1  16.81323519701970 -2.10253429002900 -0.50690647454745
 1  15.68937421622162 -2.32080721332133  0.94924419581958
 1  15.89337961116112  1.65013158345835  0.11522198119812
 1  16.18192284908491  0.23232385568557  1.44793821642164
 1  18.23655487718772 -0.57635184568457  0.02806293849385
 1  17.78125271087109  0.57604949324933 -1.26168460096010
 1  18.10362505200520  2.59296569246925  0.62175756545655
 1  18.43753600780078  1.30005581508151  1.83135028502850
 1  20.14555088748875  0.41183914491449  0.46796795299530
 1  20.11224858145815  2.75398366846685 -1.50987288968897
 1  21.41014825852585  1.54741281098110 -1.60453355995600
 1  19.79105407840784  0.94568018971897 -1.74087626912691
 1  20.96354159065907  1.74613608160816  2.23192422902290
 1  21.92190504770477  2.49186921432143  0.65876003310331
 1  20.67322695209521  3.36989018861886  1.48181691959196
 1 -7.03328516161616  1.59088796199620  0.58447029312931
 1 -7.68303985238524 -0.23235341134113 -0.12892301990199

