%nproc=3
%Mem=2GB
# td=(NStates=1) B3LYP/SVP 

TD

0 1
 6 -5.13590128822882 -1.94875111721172  0.46275115101510
 6 -4.74113443244324  2.74030048174818  1.20974736063606
 6 -9.55220513021302  3.29054985418542  0.04511604370437
 6 -9.88826688118812 -1.56677748114811 -0.75684823822382
 7 -5.21018018031803  0.46395801870187  0.75766420342034
 6 -4.48815743184318 -0.68113483448345  0.70437388078808
 6 -3.01281096759676 -0.45263169786979  0.99747474327433
 6 -3.11367633303330  0.85156404870487  1.76677578337834
 6 -4.47786697979798  1.45274509240924  1.19798339533953
 6 -3.03869243774377  1.01241875417542  3.21015887848785
 6 -2.03454552525253 -0.62800276197620 -0.13512556695670
 6 -0.60553376557656 -0.62675089168917  0.33043549624962
 6  0.38376203760376 -0.93898077097710 -0.80658221582158
 8  0.01964373197320 -1.28839120572057 -1.90245385688569
 8  1.66900709780978 -0.73117989108911 -0.46399884258426
 7 -7.02946754135414  2.80707797959796  0.28618812801280
 6 -5.98995057045705  3.51740615891589  0.85194605150515
 6 -6.17470065576558  4.80917735723572  0.91887838063806
 6 -7.61168026482648  4.95601443694369  0.51090761816182
 6 -8.22128307420742  3.67436593029303  0.24272442784278
 6 -5.26588710521052  5.93196871197120  1.25430669666967
 6 -8.11102838553855  6.24305831743174  0.34509301060106
 6 -9.18779667786779  6.59181890379038 -0.44140661946195
 7 -9.29220742134213  0.82540977397740 -0.36090855925593
 6 -9.98543240614061  2.00045254395440 -0.40954022322232
 6 -11.33955782228223  1.82870643164316 -0.84924875877588
 6 -11.55185913641364  0.49578691879188 -0.97563251795180
 6 -10.22404463016302 -0.13106305800580 -0.78679192169217
 6 -12.43164166506651  2.87373587518752 -0.91668475877588
 6 -12.67613535303530 -0.40365284478448 -1.32603356305631
 6 -12.76386651735173 -0.62001526592659 -2.88240641194119
 7 -7.53563252085208 -1.24611629682968 -0.14124265276528
 6 -8.65976756425643 -2.06117484428443 -0.52751611401140
 6 -8.21731417041704 -3.42590947314731 -0.53247581488149
 6 -6.90669557865787 -3.36902373067307 -0.17605522942294
 6 -6.48186929032903 -2.03354617321732  0.01289636583658
 6 -8.94112687028703 -4.67686843634363 -0.94739373377338
 6 -5.78419536473647 -4.26289132423242  0.17724867046705
 8 -5.67787727792779 -5.41660119021902  0.17882061616162
 6 -4.49835746434643 -3.37222798439844  0.41727078917892
 6 -3.84000779867987 -3.76687078057806  1.72010853655366
 8 -4.03558863236324 -3.31888982288229  2.77865593369337
 8 -2.84117280488049 -4.71773674657466  1.51464189208921
 6 -2.19419412321232 -5.28909835593559  2.61981412101210
 6  2.62858502710271 -1.02563646124612 -1.36432045784578
 6  4.02993624042404 -0.88265876827683 -0.71633373347335
 6  4.99078133473347 -0.01516046114611 -1.07984194079408
 6  4.91872106780678  0.79348007970797 -2.39138625542554
 6  6.27566931213121  0.19501724092409 -0.34926384058406
 6  7.50933217361736 -0.44573075597560 -1.14538140504050
 6  8.83696529762976 -0.34121810691069 -0.24178252575258
 6  10.16605753145314 -0.79985431203120 -0.97867522232223
 6  10.18824486308631 -2.25559936283628 -1.38596788168817
 6  11.29891374157416 -0.33928824352435 -0.00781133683368
 6  12.61277295149515 -0.55210052725273 -0.72337686078608
 6  13.82723131253125 -0.14672189838984  0.25613766926693
 6  15.34944385618562 -0.27055793729373 -0.36558011591159
 6  15.70768033983398 -1.71506037143714 -0.44376314461446
 6  16.39094983928393  0.54698921622162  0.51246026832683
 6  17.79752464126413  0.54534745244524 -0.01472537393739
 6  18.69615053935393  1.43800812971297  0.91625244144414
 6  20.14945684728473  1.66277408200820  0.43124485198520
 6  20.31817251615162  2.39133570967097 -0.95326340414041
 6  20.93217573887389  2.48301964076408  1.46881867006701
 1 -3.99655731603160  3.46447767976798  1.43146802770277
 1 -10.13530138323832  4.20459770187019 -0.02672399509951
 1 -10.78836309270927 -2.00975813131313 -1.09815928902890
 1 -2.89148147514751 -1.28354758995900  1.70288116381638
 1 -2.36951826632663  1.34044426762676  1.39356226842684
 1 -2.11671192919292  0.63118948734873  3.57209631363136
 1 -3.05526101800180  2.10430548024802  3.53285348054805
 1 -3.92516211311131  0.63503868836884  3.93063824002400
 1 -2.21547705610561 -1.74462919601960 -0.63239768696870
 1 -2.40661400080008  0.15018120912091 -0.95278197239724
 1 -0.15813163296330  0.33575742934293  0.45384574587459
 1 -0.46789712901290 -1.30573253185319  1.41994950335034
 1 -4.49636445294529  6.21061542964296  0.45516831663166
 1 -5.81298650505050  6.83063797849785  1.20366966156616
 1 -5.17966605340534  5.72709075307531  2.41600573457346
 1 -7.90017502690269  7.05596547104710  0.97574912881288
 1 -9.37295264716472  6.08317847834783 -1.32297388348835
 1 -9.62510725732573  7.53635236273627 -0.42463268616862
 1 -12.70815517751775  3.28530771797180  0.09594178107811
 1 -12.17993184148415  3.80429438683868 -1.55243456025603
 1 -13.40848187098710  2.37690552625262 -1.24524888028803
 1 -12.56596897009701 -1.46991591829183 -0.85910066116612
 1 -13.73588061256125  0.03514766946695 -1.09796215501550
 1 -12.93579920982098  0.31549836293629 -3.35194253855386
 1 -11.77739270727073 -1.19859743334333 -3.17357630973097
 1 -13.64619137263726 -1.22447154195420 -3.12072961526153
 1 -9.51743829262926 -4.98693801360136  0.04289198719872
 1 -9.34979895879588 -4.34494244024402 -1.97218411661166
 1 -8.28784395909591 -5.58142640964096 -0.88566652215222
 1 -3.86823867526753 -3.64603089328933 -0.28930027862786
 1 -1.38274866786679 -6.03658875457546  2.29226256035604
 1 -1.65108355475547 -4.48196168006801  3.35891033363336
 1 -3.03158617501750 -5.62541763336334  3.17758463406341
 1  2.63861776927693 -2.16883452695270 -1.59005017201720
 1  2.53532842734274 -0.45595317611761 -2.33646141334133
 1  4.24817758945894 -1.51386370067007  0.24680258325833
 1  5.46844867406741  1.74477698669867 -2.15297001680168
 1  5.19584620182018  0.19404536703670 -3.45683708530853
 1  3.87562768096810  1.01303249004901 -2.72812363746375
 1  6.48287630383038  1.37463358835884 -0.37496768786879
 1  6.38434647934794 -0.08712860246025  0.73313102050205
 1  7.51016780168017 -1.49643636823682 -1.37631839143914
 1  7.83467300980098  0.17566958755876 -1.99076390539054
 1  8.85598108550855  0.79417825912591  0.06250639893989
 1  8.87330039283928 -0.82855700720072  0.73907672007201
 1  10.13369603820382 -0.17970541384138 -1.87517209220922
 1  9.50860117631763 -2.59505819901990 -2.19416796459646
 1  11.15451048214821 -2.58912051185119 -1.68370897579758
 1  10.12303732383238 -2.92731441704170 -0.34477274657466
 1  11.20144544194419  0.81643042314231  0.26616520172017
 1  11.17988395189519 -1.18267350385039  0.85988591879188
 1  12.63819853045305 -1.69354092529253 -1.08541175417542
 1  12.75562371457146 -0.17842792179218 -1.73679521322132
 1  13.65708686358636  0.87100681148115  0.50150306120612
 1  13.69416364336434 -0.67719414721472  1.17364421032103
 1  15.18056040024002  0.21874308040804 -1.24190620392039
 1  15.01097665056506 -2.27891047284729 -0.98916825002500
 1  16.83047692119212 -1.83106714331433 -0.80260604450445
 1  15.66597187598760 -1.94503963656366  0.58804807620762
 1  15.81077135033503  1.48485505580558  0.47416787578758
 1  16.53918857565757  0.15434605790579  1.65621904450445
 1  17.95646686838684 -0.49792400290029  0.09284941714171
 1  17.78281286688669  1.02134402270227 -1.07753618611861
 1  18.46172086158616  2.52515891179118  0.86209159885989
 1  18.71524377857786  0.98084389388939  1.92539968996900
 1  20.53854018641864  0.49952791379138  0.42707386358636
 1  19.78188554515452  3.36969523962396 -1.09064096649665
 1  21.44204144784479  2.16761483118312 -1.05906901350135
 1  19.81180615361536  1.82109773147315 -1.70057223872387
 1  20.89563479998000  2.03201466946695  2.52141317791779
 1  21.97374023122312  2.63732375977598  1.27984214131413
 1  20.49596922632263  3.58425162476248  1.53849258715872
 1 -7.14973680678068  1.81072994619462  0.09923176927693
 1 -7.63245479387939 -0.15989616561656  0.04608448084809

