%nproc=3
%Mem=2GB
# td=(NStates=1) B3LYP/SVP 

TD

0 1
 6 -5.06775447354735 -1.92176841894189  0.44097897379738
 6 -4.88186850585059  2.76018246994700  1.42846923282328
 6 -9.37689759945994  3.22142294149415 -0.21925039293929
 6 -9.79903795829583 -1.58936974037404 -1.03500605400540
 7 -5.18263742604260  0.41615323822382  0.81655009200920
 6 -4.48088670477048 -0.71250797179718  0.85416886028603
 6 -3.07399708620862 -0.49254568926893  1.38263325912591
 6 -3.25361032643264  0.92473136543654  2.16628573437344
 6 -4.43382257535754  1.43505332323232  1.33132672967297
 6 -3.54387295579558  0.82231974427443  3.72148001060106
 6 -2.07982005270527 -0.40414037573757  0.16978492409241
 6 -0.53125633783378 -0.53677189378938  0.60359281198120
 6  0.27942160356036 -0.69293616651665 -0.69489104670467
 8 -0.07628586098610 -0.91298366496650 -1.80300391189119
 8  1.55808600570057 -0.51829860296030 -0.26055849854986
 7 -7.08160275487549  2.61384865666567  0.51638114731473
 6 -6.03414498989899  3.31671608990899  1.03336419331933
 6 -6.32419560526053  4.69730617011701  1.09769626242624
 6 -7.58611770857086  4.94046288178818  0.48909543694369
 6 -7.97871881778178  3.59268776247625  0.10818097349735
 6 -5.47444796129613  5.76414192929293  1.67858912491249
 6 -8.30082736543654  6.10993500510051  0.46198469976998
 6 -9.12906080428043  6.50871059295930 -0.53443592239224
 7 -9.14350255085508  0.82757999099910 -0.50944341274127
 6 -9.84041790469047  1.95291779047905 -0.58268753795380
 6 -11.28653251975198  1.70315387638764 -0.99045287918792
 6 -11.38658260876088  0.38491583168317 -1.27779273397340
 6 -9.98460068576858 -0.27019697139714 -0.87451069356936
 6 -12.28690719161916  2.77854635623562 -1.33389647994799
 6 -12.50522826232623 -0.56416889638964 -1.82718367806781
 6 -12.58092822352235 -0.49714297869787 -3.30715888718872
 7 -7.43231218881888 -1.25894757995800 -0.35202373087309
 6 -8.46246783428343 -2.11392011881188 -0.80602396479648
 6 -8.00214265326533 -3.45068195039504 -0.76305887318732
 6 -6.72711762086209 -3.43517034533453 -0.26880450435043
 6 -6.36488759215922 -2.10125294389439  0.03992906910691
 6 -8.75202796039604 -4.70899164866487 -1.07061605600560
 6 -5.61243818901890 -4.34415945104510  0.09600054565457
 8 -5.56827631783178 -5.54597412751275  0.13234596869687
 6 -4.36519414801480 -3.30255101670167  0.49772883498350
 6 -3.86316011391139 -3.83807790129013  1.86066259195920
 8 -4.26869194269427 -3.40733866776678  2.93818188628863
 8 -2.97803649124912 -4.79751472437244  1.71898232613261
 6 -2.48362306610661 -5.35436488258826  2.94100624022402
 6  2.63780594919492 -0.80507440504050 -1.29404343014301
 6  3.92550579737974 -0.46164666706671 -0.62161426152615
 6  4.98357061366137  0.37571862676268 -1.13539749634963
 6  4.78373756945695  1.00123085478548 -2.43380049684968
 6  6.26354810001000  0.57534527372737 -0.39268818301830
 6  7.55242648304830  0.03749756685669 -1.10057692459246
 6  8.80176177727773  0.20347636253625 -0.30729907740774
 6  9.99510043574358 -0.52413674027403 -0.82417977277728
 6  9.87562360096010 -2.05131893479348 -0.96230551545154
 6  11.27836168636864 -0.20250456515652  0.24260370467047
 6  12.59186086028603 -0.50577589478948 -0.45907043014301
 6  13.77456604600460  0.00846362016202  0.34670672617262
 6  15.21411032283228 -0.18480936243624 -0.22599615751575
 6  15.42240181198120 -1.76164502990299 -0.40537930623062
 6  16.42664340864086  0.45892040934093  0.53587260956096
 6  17.70228511731173  0.38389130683068 -0.23836773817382
 6  18.75407633193319  1.30409473837384  0.50046086228623
 6  20.22308421002100  1.22074987958796 -0.02284055655566
 6  20.27601830073007  1.68778535463546 -1.45811388918892
 6  21.18251077237724  1.93366470527053  0.92549433763376
 1 -4.01777943824382  3.54485571757176  1.77735261616162
 1 -10.10985883898390  4.02209945204520 -0.24636595929593
 1 -10.41830608700870 -2.18001515701570 -1.56166563966397
 1 -2.62509483648365 -1.25098433363336  2.02268314401440
 1 -2.38328964346435  1.51827205040504  1.61675458765877
 1 -2.59635989398940  0.53110947934794  3.93641274527453
 1 -3.66760225212521  1.77243229292929  4.01201139633963
 1 -4.37475707260726  0.04888007250725  3.87936311251125
 1 -2.27192270067007 -1.38190292339234 -0.35312976017602
 1 -2.27981132053205  0.46686287728773 -0.51284797899790
 1 -0.20392621242124  0.40656451005100  0.95943630493049
 1 -0.88100844014401 -1.52582454105411  1.15910341874187
 1 -4.47242205870587  5.74684905300530  1.17380017981798
 1 -5.92168737513751  6.76992190689069  1.51499079367937
 1 -5.35803389018902  5.65103314731473  2.86752088608861
 1 -8.05720072947295  6.84390426492649  1.25981753565357
 1 -9.17186253815382  5.83573373387339 -1.53552513861386
 1 -9.54029877647765  7.48164689218922 -0.91355157805781
 1 -12.36905126712671  3.73329251645164 -0.47424523762376
 1 -12.20330417871787  3.21591554895490 -2.50897021382138
 1 -13.25098612141214  2.25532336803680 -1.44775913131313
 1 -12.32258463166317 -1.56951587828783 -1.32885763686369
 1 -13.41907893239324 -0.16366221152115 -1.43029538833883
 1 -12.92971860176018  0.48371518461846 -3.81268861316132
 1 -11.57186215421542 -0.81043861746175 -3.81371032313231
 1 -13.46246299979998 -1.28823791859186 -3.63696123842384
 1 -9.95422197099710 -4.60484980478048 -0.87360966296630
 1 -8.60436441534153 -4.94212215821582 -2.21530842904290
 1 -8.26815198989899 -5.68628689568957 -0.64687264276428
 1 -3.68586043744374 -3.57575386558656 -0.52469381798180
 1 -1.81761215421542 -6.37337243294329  2.86369970407041
 1 -1.78156660306031 -4.70661414531453  3.61086552915292
 1 -3.20746376277628 -5.75502059365937  3.63345022062206
 1  2.57207111461146 -1.75705334883488 -1.57684885188519
 1  2.38146304080408 -0.08214579537954 -2.03083085028503
 1  4.21360413211321 -0.87582989728973  0.31144904790479
 1  5.18024985418542  1.99601211021102 -2.15910062986299
 1  5.46331294849485  0.55708167066707 -3.08212961456146
 1  3.84483460166017  1.21076226302630 -2.96172699779978
 1  6.52903091929193  1.57614373937394 -0.05234542564256
 1  6.05532357705771 -0.02048193779378  0.62068977637764
 1  7.30751753665367 -1.01255798039804 -1.54292505210521
 1  7.61035057755776  0.60356237683768 -2.04078890789079
 1  9.15252073947395  1.17706654795480 -0.25440529222922
 1  8.40215327812781 -0.26210036153615  0.88593140554055
 1  10.39681234983498 -0.21762920622062 -1.88398297329733
 1  8.86199651585158 -2.34481317451745 -1.54406295409541
 1  10.72974800590059 -2.41928352815282 -1.63143374827483
 1  9.98299331943194 -2.63671535713571  0.02149388008801
 1  11.24312961036104  0.82520130023002  0.42239082428243
 1  11.38057402090209 -0.61259649614962  1.14232416261626
 1  12.67731244184418 -1.51987355855585 -0.53799701270127
 1  12.58792694489449 -0.26543662266227 -1.54497603130313
 1  13.55630678557856  1.25658536933693  0.43803671457146
 1  13.98373260026003 -0.61490791859186  1.40446729262926
 1  15.18518086228623  0.31802300840084 -1.21635364866487
 1  14.73617917081708 -2.10060264206421 -1.48130746394639
 1  16.43409728322832 -1.98297233383338 -0.85785156905691
 1  15.37081236003600 -2.32194732733273  0.65575484688469
 1  16.06596686988699  1.59030560086009  0.76035649464947
 1  16.54181883868387  0.07124774807481  1.49696311891189
 1  18.12867408910891 -0.58167237773777 -0.13844371217122
 1  17.63464805040504  0.91933382168217 -1.22256068856886
 1  18.26903159265927  2.36108250415041  0.56022141184118
 1  18.76269852405241  0.86202201170117  1.55105225522552
 1  20.71905823822382  0.18673663466347  0.06026718291829
 1  20.28286564316432  3.05497376747675 -1.51863376577658
 1  21.16673391709171  1.26054412411241 -1.94120722732273
 1  19.59827480048004  1.18539416111611 -2.06243842534253
 1  21.18110334683469  1.23384485248525  1.71839287588759
 1  22.07361021822182  1.88204823222322  0.49939409650965
 1  20.92864249364937  3.09575277487749  0.90978971687169
 1 -6.89159099219922  1.61876074927493  0.29659150525052
 1 -7.62535408380838 -0.33101327732773 -0.20306043364336

