%nproc=3
%Mem=2GB
# td=(NStates=1) B3LYP/SVP 

TD

0 1
 6 -5.03273097119712 -1.85229147124712  0.43541841774177
 6 -4.81414173317332  2.78484493619362  1.46312269816982
 6 -9.28927883758376  3.40220101930193 -0.24087255515552
 6 -9.87976603110311 -1.39462026542654 -0.87206976037604
 7 -5.10524968726873  0.44730635353535  0.77770620762076
 6 -4.39608822492249 -0.74314103510351  0.80730417381738
 6 -3.04034372087209 -0.60654708940894  1.25305030083008
 6 -3.02385735113511  0.93434232653265  1.80083918971897
 6 -4.39498869196920  1.42101191909191  1.33612720972097
 6 -2.98758732723272  0.87213472577258  3.39094695729573
 6 -2.02618468916892 -0.72993295499550  0.09691763736374
 6 -0.56860007220722 -0.77536575317532  0.49684213691369
 6  0.39753341474147 -1.13561043394339 -0.60918247584758
 8  0.05574734233423 -1.63928629522952 -1.64790840234023
 8  1.67579777687769 -0.86634340744074 -0.25229767246725
 7 -7.14752934753475  2.74850212201220  0.57721723092309
 6 -6.00159173457346  3.38628304660466  1.09349020592059
 6 -6.27126031173117  4.76490292979298  1.03333982678268
 6 -7.52578167496750  4.98874771027103  0.49337586498650
 6 -8.05733667956796  3.70606910061006  0.20753090849085
 6 -5.28542905940594  5.79965548064806  1.57460872687269
 6 -8.22241952465246  6.27861187278728  0.42686118741874
 6 -9.06611450965096  6.46015573747375 -0.68245072387239
 7 -9.26538473907391  0.89601683468347 -0.52758522692269
 6 -9.90839470237024  2.15441794049405 -0.55485475467547
 6 -11.29337320382038  1.82082564356436 -0.94977881178118
 6 -11.50989493999400  0.63574091419142 -1.14048900360036
 6 -10.14491671737174  0.00844089238924 -0.92585582808281
 6 -12.33190169106911  2.93045154675468 -1.10132322262226
 6 -12.71672941244124 -0.31472395189519 -1.59153011271127
 6 -12.85041517221722 -0.52621588598860 -3.07589576087609
 7 -7.44670362796280 -1.20163184838484 -0.23451197969797
 6 -8.55814740224022 -1.98875760256026 -0.67832119451945
 6 -8.16146858585859 -3.31005788798880 -0.73311587888789
 6 -6.83496840594059 -3.27205403370337 -0.34281190509051
 6 -6.37582868626863 -1.96062888148815  0.03711878807881
 6 -8.94504726232623 -4.39313006250625 -1.10873986838684
 6 -5.74150109530953 -4.25213024812481 -0.08026708110811
 8 -5.64117360756076 -5.45987551765176 -0.22452971887189
 6 -4.52902053065307 -3.18443920552055  0.28632769486949
 6 -3.95588938683868 -3.80961505500550  1.68354488018802
 8 -4.27327240074007 -3.56190412431243  2.89245731383138
 8 -3.06035472307231 -4.72670764366437  1.41117154505451
 6 -2.53863856765677 -5.37643708980898  2.58925106470647
 6  2.72175434403440 -1.09511340894089 -1.21444547034703
 6  4.02409565636564 -0.77329783218322 -0.48800090019002
 6  5.04422667926793 -0.09723866896690 -0.98539249584958
 6  5.01426062176218  0.68073880558056 -2.28282539933993
 6  6.20586233143314  0.25246298549855 -0.11591050525053
 6  7.48572981338134 -0.55368155105511 -0.79237610451045
 6  8.76859846094609 -0.48040202530253  0.11497314981498
 6  10.07494842054206 -0.93109743634363 -0.59869722452245
 6  10.10144618321832 -2.47995179807981 -0.72747203210321
 6  11.30743459365937 -0.40264457915792  0.21421086538654
 6  12.60320199439944 -0.68448376557656 -0.42251677477748
 6  13.80959954935494 -0.14449167536754  0.25722777827783
 6  15.32494140594059 -0.23730461196120 -0.33784734263426
 6  15.80758032983298 -1.68021688708871 -0.22832160046005
 6  16.23004374867487  0.69116363366337  0.30475949824982
 6  17.65423031183118  0.77936085378538 -0.30179408080808
 6  18.54835575987599  1.82008633753375  0.36805762196220
 6  20.02964486608661  1.87866567116712 -0.07399567206721
 6  20.36749744864487  2.35239181528153 -1.59005708350835
 6  20.97050957225723  2.74338567736774  0.89995178337834
 1 -3.99195685598560  3.38182941494149  1.70854573547355
 1 -10.10262811591159  4.27381462356236 -0.41242256495650
 1 -10.83517777417742 -1.91087824332433 -1.25136460956096
 1 -2.66364869186919 -1.07576681188119  2.02472334803480
 1 -2.07942925742574  1.42503272647265  1.50409332153215
 1 -1.92404266226623  0.77607397579758  3.71282038603860
 1 -3.07870336223622  1.96874192389239  3.63674386958696
 1 -3.77990758765877  0.53300848534854  3.84484966116612
 1 -2.12911842024202 -1.76802153525353 -0.37826227342734
 1 -2.30875421482148  0.24833102410241 -0.65422211641164
 1 -0.48313413321332  0.35146900050005  1.05309567086709
 1 -0.48281862116212 -1.45231719031903  1.41150865926593
 1 -4.30852566906691  5.62464683278328  0.78948174797480
 1 -5.61629683608361  6.69671458615862  1.56340563516352
 1 -4.93294138093809  5.52284032803280  2.41536567056706
 1 -7.79422443184319  7.10753062756276  1.08090964486449
 1 -9.22668802070207  5.56173633413341 -1.33762534863486
 1 -9.85247999459946  7.37383611111111 -0.92325254815482
 1 -12.48478284028403  3.44194338153815 -0.18521633473347
 1 -11.84477832613261  3.66892084948495 -1.78010732753275
 1 -13.21540256305630  2.42651048674868 -1.61191554695470
 1 -12.61513388658866 -1.25831475817582 -0.93979873097310
 1 -13.61113813831383  0.26899105380538 -1.16084844364436
 1 -12.79627525742574  0.52765957905791 -3.52691003530353
 1 -11.82090705870587 -0.81255882948295 -3.54229318141814
 1 -13.87911466496650 -1.05761485628563 -3.42057960026003
 1 -9.73519006780678 -4.88756807660766 -0.24258656065607
 1 -9.71106508540854 -4.15113305930593 -1.99129602780278
 1 -8.00123529822982 -5.22695096209621 -1.26409436493649
 1 -3.71603345474547 -3.31316760696070 -0.24932628122812
 1 -1.69302969596960 -6.09602469816982  2.34814814891489
 1 -2.09662810921092 -4.56943042694269  3.35905034763476
 1 -3.24011702810281 -6.10590568216822  3.09916679227923
 1  2.80196410391039 -2.25303294679468 -1.47155832283228
 1  2.45197009150915 -0.58143572437244 -2.07319508670867
 1  4.10102287398740 -1.61889420372037  0.35479338233823
 1  5.34213604280428  1.60421293029303 -2.19264398419842
 1  5.58040465766577  0.03772973547355 -3.08943034463446
 1  3.86267638583858  0.69789097589759 -2.54200502560256
 1  6.40793881008101  1.33957008200820  0.27854766366637
 1  5.89529757445745 -0.30238012761276  0.83357106450645
 1  7.21783856875688 -1.60672739733973 -0.93889464906491
 1  7.72946248874888 -0.30141812121212 -1.71623645264526
 1  8.81317680508051  0.49698854015402  0.26105625392539
 1  8.60898396119612 -0.85740989248925  1.04875768816882
 1  10.14948761736174 -0.29439688298830 -1.49540411541154
 1  9.39254957115712 -2.85211390459046 -1.37763631143114
 1  11.12623765486549 -2.66917851765177 -1.17353795869587
 1  9.92460748084808 -2.90213189878988  0.27869960066007
 1  11.11348664606461  0.68928770887089  0.26251483668367
 1  11.37918388188819 -0.53676891339134  1.31239116931693
 1  12.82548725932593 -1.77918949014901 -0.48636184918492
 1  12.69129728192819 -0.30269034803480 -1.47853938763876
 1  13.64853600850085  0.86889660046005  0.26906981788179
 1  13.74359858685868 -0.54143057085709  1.26382322822282
 1  15.28887123132313  0.05306651275127 -1.27257927122712
 1  14.94139969286929 -2.52832541434143 -0.50647998119812
 1  16.60005387888789 -1.76637067366737 -1.04346012991299
 1  16.38001328012801 -1.76437156975698  0.80072934433443
 1  15.89664993819382  1.67821439173917  0.14334479347935
 1  16.19843450025002  0.44765538883888  1.35875929852985
 1  17.98461968366837 -0.45415962646265  0.00948108030803
 1  17.51848643424342  0.91729361766177 -1.28841727422742
 1  18.00019470897090  2.84504089999000  0.28178356805680
 1  18.41040329452946  1.66807261676168  1.47546469646965
 1  20.63735006740674  0.96088404940494  0.09612076827683
 1  19.96084344094410  3.40462873297330 -1.57747965036504
 1  21.43446068976898  2.04776284598460 -1.89446255285529
 1  19.84192916591659  1.86679230093009 -2.29609179067907
 1  20.86272150865087  2.49932140014001  1.99370040664066
 1  22.07575043224323  2.86392642004200  0.78466262336234
 1  20.64220384978498  3.86961016061606  0.85713445134514
 1 -7.23789562266227  1.82271114431443  0.43028487458746
 1 -7.68880042844284 -0.23039321532153 -0.00181030863086

