%nproc=3
%Mem=2GB
# td=(NStates=1) B3LYP/SVP 

TD

0 1
 6 -5.05967366546655 -1.95528177027703  0.34735961186119
 6 -4.86476679567957  2.68966541824182  1.39593597949795
 6 -9.44280419011901  3.31548234743474 -0.32844131203120
 6 -9.91181923642364 -1.55613641704170 -0.88285083848385
 7 -5.23332249454945  0.42267389028903  0.79442787978798
 6 -4.52320093619362 -0.71749847084708  0.72209565296530
 6 -3.06181586808681 -0.46684311901190  1.24006900270027
 6 -3.08893385878588  0.96854574687469  1.70915002080208
 6 -4.49324851795179  1.42605242314231  1.27412100910091
 6 -3.01391996049605  1.04133164546455  3.26779464206421
 6 -2.06962903360336 -0.73388335003500  0.18307625322532
 6 -0.58533174537454 -0.63249146574657  0.60970342304230
 6  0.32580624202420 -0.88062493539354 -0.48887044464446
 8  0.02813458105811 -1.30014238083808 -1.66225983748375
 8  1.62487268436844 -0.68705547864786 -0.22079452215222
 7 -7.13755835043504  2.75362263406341  0.55011452065207
 6 -5.99376095149515  3.42718713701370  0.98705956285629
 6 -6.29326251195119  4.77424386388639  1.02279877267727
 6 -7.56261535833583  4.91091992749275  0.57140366776678
 6 -8.12040298619862  3.60260875457546  0.17516767216722
 6 -5.41791230773077  5.82941845694570  1.57290855685569
 6 -8.25727301000100  6.20920493209321  0.48524702600260
 6 -9.01569946814681  6.67615733763376 -0.46860933973397
 7 -9.17006520712071  0.81821905490549 -0.63057552595260
 6 -9.87481134403440  1.98333083178318 -0.62529179837984
 6 -11.19877374387439  1.79576313731373 -0.90462429632963
 6 -11.39961391189119  0.40355769586959 -1.15561051575158
 6 -10.15335756145615 -0.16560651235124 -0.86312955545555
 6 -12.34565306620662  2.84467296889689 -1.00660375067507
 6 -12.72941068056806 -0.28137061656166 -1.72109306900690
 6 -12.56589672037204 -0.55819908430843 -3.21671984328433
 7 -7.58708766636664 -1.31608329352935 -0.04267279577958
 6 -8.60369195669567 -2.06524525132513 -0.50320368276828
 6 -8.11957439643964 -3.47513439563956 -0.50674324162416
 6 -6.83351826092609 -3.35368219651965 -0.18518614251425
 6 -6.46627773117312 -2.09826264486449  0.09731480768077
 6 -8.88988174577458 -4.63557430693069 -1.10636963136314
 6 -5.74493143834383 -4.35160019511951  0.08332927852785
 8 -5.55141463166317 -5.53517304740474  0.09749248334834
 6 -4.44547217581758 -3.33909467106711  0.42161122322232
 6 -3.91907570547055 -3.78238233173317  1.74078060376038
 8 -4.09024409790979 -3.26962489638964  2.87678574667467
 8 -3.02307099469947 -4.73839881278128  1.60953138103810
 6 -2.35477018081808 -5.26210565666567  2.71057319691969
 6  2.63902607120712 -1.05191908950895 -1.20980500630063
 6  3.92685593239324 -0.53242374477448 -0.63300540064006
 6  4.92934519111911  0.09779083398340 -1.21581553815382
 6  4.87642683838384  0.67833856555656 -2.53126024282428
 6  6.29633137833783  0.34032177137714 -0.33603251745175
 6  7.44531577197720 -0.18922510541054 -1.13385025192519
 6  8.76642824392439 -0.13099708480848 -0.30049839733973
 6  10.10544146984699 -0.64756908350835 -0.95529288408841
 6  10.08610464906491 -2.16242004490449 -1.13555284018402
 6  11.28164201440144 -0.20124443914391 -0.13442399809981
 6  12.72914458865887 -0.61778709590959 -0.60478500160016
 6  13.94722331173117 -0.12959018521852  0.22999505500550
 6  15.31659057085709 -0.30564144564456 -0.48539209710971
 6  15.80087965976598 -1.70923978937894 -0.62928169646965
 6  16.31725246954695  0.53586810411041  0.48375739803980
 6  17.66909179797980  0.50803372107211  0.01832793139314
 6  18.53408433273327  1.48543287218722  0.82866368256826
 6  20.00156205780578  1.58382618721872  0.29533126062606
 6  20.24461516041604  1.93003958005801 -1.07233531133113
 6  21.05235775707571  2.43086442524252  1.17466925512551
 1 -3.91334899519952  3.19408064006401  1.78756363726373
 1 -10.20550840394039  4.17644488658866 -0.52918424112411
 1 -10.52893715011501 -2.44943209870987 -1.31018049114911
 1 -3.09594192119212 -1.19950918611861  1.95788666436644
 1 -2.34828614311431  1.66540676387639  1.23128604080408
 1 -1.92586284428443  0.58424479287929  3.76874597859786
 1 -3.51990748264826  2.27502255195519  3.64928512371237
 1 -3.62382197909791  0.21404658915892  3.82294747094709
 1 -2.25729123752375 -1.70229496259626 -0.24979942714271
 1 -2.07769110851085  0.13856004700470 -0.66889358355836
 1 -0.17016283608361  0.34894874847485  0.93032339363936
 1 -0.19657999729973 -1.36013797239724  1.40545805420542
 1 -4.29175399189919  6.07622199029903  1.01215401520152
 1 -5.92509771617162  6.81581649634964  1.60505980058006
 1 -5.27051513831383  5.49499754375438  2.59763389738974
 1 -7.82899790919092  6.99282915741574  1.30802235613561
 1 -9.48568392029203  6.26219638013801 -1.19245083118312
 1 -9.28461320792079  7.85826455395540 -0.55534575747575
 1 -12.49723408540854  3.23895308250825  0.15345753265327
 1 -12.03565741404140  3.68148210561056 -1.56901621842184
 1 -13.26984800760076  2.45408324402440 -1.47772212761276
 1 -12.77561993519352 -1.19208813551355 -1.25860061116112
 1 -13.69879690419042  0.42440659535954 -1.51227358615862
 1 -12.41934756465646  0.43925073817382 -3.77298464276428
 1 -11.65477044504451 -0.93659123272327 -3.63257220932093
 1 -13.42639939343934 -1.32691178597860 -3.44758230053005
 1 -9.58010455925593 -5.08926824662466 -0.35210751275128
 1 -9.67383136203620 -4.21260920692069 -1.97707460566057
 1 -8.23600877557756 -5.44570283728373 -1.60898885438544
 1 -3.70033188458846 -3.55393168336834 -0.46927827642764
 1 -1.99801019401940 -6.44114921062106  2.50669400350035
 1 -1.35978442484248 -4.50547403130313  3.19792423502350
 1 -3.11712472887289 -5.39683477507751  3.73294016961696
 1  2.63500740824083 -2.01129877337734 -1.57964913191319
 1  2.51759665416542 -0.33960154095410 -2.15332309950995
 1  4.12396516821682 -0.96847916221622  0.39299720272027
 1  5.39524135333533  1.67623013201320 -2.60710543034303
 1  5.48806542374237  0.09507547004701 -3.25994739633963
 1  3.83009312751275  0.74689587638764 -3.02615344044404
 1  6.38939695589559  1.44608073307331 -0.16000619171917
 1  6.10522856755676 -0.13117300690069  0.62609031643164
 1  7.03961074597460 -1.26006273087309 -1.25494625422542
 1  7.41607114961496  0.34496651725173 -2.08328315731573
 1  8.92574806220622  0.93933277457746 -0.00193004470447
 1  8.62286534933493 -0.50770492199220  0.97640045244524
 1  10.19631229982998 -0.12248969226923 -2.01313588858886
 1  9.16164648084808 -2.29181787498750 -1.71810035783578
 1  10.85014004510451 -2.55401700150015 -1.80518112301230
 1  10.20157517761776 -2.60005169076908 -0.19035730503050
 1  11.30517581498150  0.93559233933393 -0.18589000380038
 1  11.23091905540554 -0.58522375887589  0.99778970917092
 1  13.01029574017402 -1.74111568276828 -0.54745795879588
 1  12.62099025122512 -0.28324840384038 -1.71914344804480
 1  13.85117627252725  0.80632034283428  0.30508341924192
 1  13.92768699569957 -0.54492091989199  1.30625747164717
 1  15.50517286148615  0.23854506060606 -1.54257627092709
 1  15.39743529642964 -2.08619120092009 -1.77349668286829
 1  16.88406227972797 -1.98130216681668 -0.78210399429943
 1  15.44937021582158 -2.28491362396240  0.44301357275728
 1  15.89659993319332  1.40206677697770  0.69394985398540
 1  16.49129378617862 -0.00028940564056  1.45680910351035
 1  18.10040126182618 -0.37668187868787  0.09889002120212
 1  17.60075466106611  0.86468835713571 -0.93953238573857
 1  18.12115680518052  2.43626002190219  0.53313870357036
 1  18.58975122932294  1.23021883138314  1.85568271827183
 1  20.18606493889389  0.41427938893889  0.25463661986199
 1  20.05542289888989  3.02580085018502 -1.07028893129313
 1  21.37243448714872  1.99666773647365 -1.39906301290129
 1  19.69091406440644  1.49257487918792 -1.85821800330033
 1  21.07930316681668  2.13365483348335  2.25193623022302
 1  22.07659051625163  2.30436046344634  0.85179933703370
 1  20.70344997439744  3.32013521312131  1.23611234913491
 1 -7.12267410051005  1.80765963916392  0.29131097719772
 1 -7.51025257365737 -0.25415559155916 -0.12736286388639

