%nproc=3
%Mem=2GB
# td=(NStates=1) B3LYP/SVP 

TD

0 1
 6 -5.09672737083708 -1.88323456555656  0.45424029992999
 6 -4.82674299329933  2.89093554525453  1.51375776167617
 6 -9.45673558325833  3.21643244244424 -0.26153462136214
 6 -9.94672272677268 -1.60825162856286 -0.75062761616162
 7 -5.22602176447645  0.46398802170217  0.82302073907391
 6 -4.53563217931793 -0.67520424142414  0.79322276567657
 6 -3.03610329682968 -0.51727816251625  1.09443443924392
 6 -2.98406337173717  0.89769866216622  1.60551965776578
 6 -4.47401659475948  1.48562838073807  1.33046664366437
 6 -2.57191576007601  1.04217172947295  3.09004686728673
 6 -2.09872194289429 -0.66788675037504 -0.08135018941894
 6 -0.58343155535554 -0.55332354895490  0.35430788348835
 6  0.37057071847185 -0.89886675957596 -0.76799835743574
 8 -0.02792102450245 -1.20450281688169 -1.92902651415142
 8  1.61393159025903 -0.80058683178318 -0.46596903960396
 7 -7.12519711431143  2.71240851265126  0.59039854905491
 6 -6.07177875327533  3.45154957325733  1.11024188108811
 6 -6.41971515721572  4.79667610711071  1.09764625742574
 6 -7.70247934473447  4.96069490499050  0.63636016341634
 6 -8.12391333723372  3.62344083778378  0.22357251265127
 6 -5.44273478997900  5.91774728982898  1.39110037603760
 6 -8.37885516821682  6.24632864446445  0.28861736303630
 6 -9.12239013721372  6.61738146004600 -0.82982546134613
 7 -9.32691089168917  0.79236646964696 -0.38468093649365
 6 -9.93375723862386  2.05736823552355 -0.42642191139114
 6 -11.38473233973397  1.79830339133913 -0.84526836073607
 6 -11.52343629412941  0.47996533663366 -0.95176013071307
 6 -10.16150837653765 -0.17222717441744 -0.75979922242224
 6 -12.48614711561156  2.84236273787379 -0.83309639993999
 6 -12.73496123562356 -0.36549902940294 -1.48227918761876
 6 -12.71365149584959 -0.80323358775878 -2.91049922122212
 7 -7.52957191479148 -1.23931561676168 -0.25505403390339
 6 -8.62313390089009 -2.07415614241424 -0.49956331873187
 6 -8.20491293029303 -3.48353523572357 -0.40436300360036
 6 -6.79347425652565 -3.35409223752375 -0.17506513041304
 6 -6.43471457485749 -1.96679949854985  0.04482955915592
 6 -9.02060481808181 -4.65801655115512 -0.74696369076908
 6 -5.63348029322932 -4.23238827392739  0.04162510811081
 8 -5.53022251245125 -5.45089461956196  0.13613634773477
 6 -4.52806043464346 -3.25630639223922  0.42827188928893
 6 -3.89407320522052 -3.75341943544354  1.76688321402140
 8 -4.16748182168217 -3.32693062696270  2.87965603370337
 8 -2.84281296889689 -4.64226919981998  1.61030145804580
 6 -2.42500720452045 -5.20889033513351  2.76445858545855
 6  2.66492866146615 -0.99938383598360 -1.51281530733073
 6  4.02808605540554 -0.71409191159116 -0.94541664176418
 6  4.98150040664066 -0.02614155925593 -1.32650660726073
 6  5.03100229592959  0.85608634033403 -2.60474759155916
 6  6.27786953215322  0.07811555075508 -0.43421233543354
 6  7.52530377077708 -0.50920710361036 -1.19535640254025
 6  8.83547514861486 -0.43075706080608 -0.27070541804180
 6  10.09407033273327 -0.69140346694669 -1.07254460926093
 6  10.18896493509351 -2.21777558045805 -1.47278656355636
 6  11.31474532473247 -0.23621793649365 -0.17878843454345
 6  12.70578225242524 -0.64350966816682 -0.79594411751175
 6  13.84851344074407 -0.16390361656166  0.19402145764576
 6  15.27309622142214 -0.14252513401340 -0.47992155005501
 6  15.64078365016502 -1.62331119651965 -0.81222999129913
 6  16.32449319361936  0.58914343164316  0.51893091539154
 6  17.71853674247425  0.65327824552455  0.00980707930793
 6  18.67150807510751  1.48607293619362  0.99530034623462
 6  20.20486238783878  1.56433423802380  0.70864259175917
 6  20.61923262216222  2.07701427752775 -0.68347642544254
 6  20.91263378467847  2.32310364916492  1.76200798899890
 1 -4.13136079637964  3.58361959395940  1.91142602350235
 1 -10.10547840094010  4.12556979907991 -0.39654097679768
 1 -10.73942819921992 -2.30998815431543 -0.89129860296030
 1 -2.69690201720172 -1.12592182738274  1.90800167586759
 1 -2.34418573307331  1.50059028222822  1.16084899709971
 1 -1.57090734873487  0.60333670207021  3.23779288328833
 1 -2.78978447034703  2.11274632433243  3.58210840604060
 1 -3.40154975187519  0.50994617911791  3.78702387858786
 1 -2.43112862126213 -1.41575630873087 -0.58656310351035
 1 -2.36588992839284  0.15208139913991 -0.71486818101810
 1 -0.28085390519052  0.52911676527653  0.81031139243924
 1 -0.31257159645965 -1.21135309390939  1.17143465186519
 1 -4.82563738023802  5.87383175127513  0.36149894969497
 1 -6.10295550195019  6.86827174187419  1.75348464306431
 1 -4.57164525132513  5.51449949394939  2.26736087008701
 1 -8.20151516091609  7.13243311781178  0.91085263916392
 1 -9.26116146804680  6.14506466696670 -1.63008459455946
 1 -9.40296504310431  7.78248697619762 -0.94095431833183
 1 -12.50695505750575  3.38343753095310  0.11977416431643
 1 -12.37959180748075  3.39528348574857 -1.68072738953895
 1 -13.38857988078808  2.47546538223822 -1.22762711811181
 1 -12.82895526872687 -1.09553848054805 -0.68919367046705
 1 -13.66862388688869  0.14734888958896 -1.24327668646865
 1 -13.03746937683768  0.03798061116112 -3.56669401370137
 1 -11.60235520352035 -1.13278085168517 -3.27695664776478
 1 -13.41904865836584 -1.57317641244124 -3.04172171447145
 1 -9.74842139093909 -5.06522584238424  0.17696539453945
 1 -9.77300127902790 -4.43979192519252 -1.65373227142714
 1 -8.23903907860786 -5.55690395739574 -1.10023797929793
 1 -3.60858270967097 -3.16791308150815 -0.32758410701070
 1 -1.73704409740974 -5.97067216291629  2.48189152325233
 1 -1.82955140154015 -4.53046653055306  3.33926836943694
 1 -3.27170018641864 -5.66254134573457  3.51240811641164
 1  2.39678358585859 -2.08089573307331 -1.84078524552455
 1  2.41614650915092 -0.39097667846785 -2.47023479067907
 1  4.33093586528653 -1.20307262156216 -0.02324442144214
 1  5.35202703190319  1.91531404040404 -2.35564028382838
 1  5.90069668686869  0.44580054255426 -3.42067346894689
 1  4.16382650085009  0.74004519131913 -3.22759358445845
 1  6.43853186938694  1.18914503950395 -0.21450164126413
 1  5.96277432213221 -0.54418430803080  0.46378408580858
 1  7.44286107100710 -1.49847657225723 -1.40907166676668
 1  7.66926646914692 -0.06142412181218 -2.26216104510451
 1  8.83504899229923  0.63976281758176  0.13572372067207
 1  8.44611767456746 -0.95695984748475  0.55793860626063
 1  10.12369503810381  0.04756731343134 -1.96870144514451
 1  9.16306662286229 -2.45974466766677 -1.83503205100510
 1  10.98983401450145 -2.38482008180818 -2.29661026592659
 1  10.47778279837984 -2.77100878647865 -0.41162943224322
 1  11.42614791219122  0.93843262336234 -0.02698411321132
 1  11.43572953645365 -0.69410464696470  0.81759168936894
 1  12.78749345994600 -1.77553912511251 -0.74920813381338
 1  12.77091524372437 -0.41018109710971 -1.75128666236624
 1  13.61929308420842  0.76242595339534  0.67405031593159
 1  13.59846407340734 -0.70676710451045  1.08192503840384
 1  15.40182252645264  0.41656286238624 -1.42002401570157
 1  15.15495104800480 -2.16100868266827 -1.47908724192419
 1  16.70050392389239 -1.74109814641464 -1.24388017191719
 1  15.89831511031103 -2.34077921052105  0.31023029442944
 1  15.93554382758276  1.58191476177618  0.96699715871587
 1  16.25627028382838  0.09064968826883  1.55535895849585
 1  18.16298752045205 -0.40419462996300 -0.09667953575358
 1  17.80686527212721  0.81928381668167 -1.04740317281728
 1  18.30311500100010  2.63375977187719  0.79397478717872
 1  18.36581883608361  1.09052486198620  2.05251240124012
 1  20.81857819021902  0.49354731573157  0.52851400760076
 1  20.15254261086109  3.06407467756776 -0.98727062946295
 1  21.88334557825783  2.07268533823382 -0.69062216881688
 1  20.15403037603760  1.47886350805081 -1.59303148464847
 1  20.66661189768977  2.15246671467147  2.77990902750275
 1  22.02045490269027  2.33392341974197  1.51944610171017
 1  20.58936856625662  3.42339553915392  1.81663040094009
 1 -7.38182001510151  1.79347822102210  0.44396624272427
 1 -7.60662221062106 -0.26595677167717 -0.26353648124812

