%nproc=3
%Mem=2GB
# td=(NStates=1) B3LYP/SVP 

TD

0 1
 6 -5.07032473057306 -1.91975821792179  0.50606548244824
 6 -4.95412573157316  2.80639709140914  1.28652503840384
 6 -9.55959586928693  3.20772157135714 -0.23776224412441
 6 -9.80957901240124 -1.62160296369637 -0.87565011841184
 7 -5.26484564686469  0.54403602650265  0.85941437843784
 6 -4.47537615371537 -0.70932765376538  0.89460290369037
 6 -2.98890857735774 -0.47443387808781  1.19880487628763
 6 -3.04546951235123  1.02110100240024  1.77972707850785
 6 -4.42283147624762  1.45005482338234  1.25529912691269
 6 -2.91964053255326  1.19684719701970  3.34802266486649
 6 -2.02307437813781 -0.57630759245925  0.02123006860686
 6 -0.65063827602760 -0.58534675127513  0.42629508220822
 6  0.34367802920292 -0.71267814071407 -0.76050760836084
 8  0.13240500810081 -0.87209957655766 -1.97621123262326
 8  1.63324352145215 -0.47705447854785 -0.24910735343534
 7 -7.21713630823082  2.71702897469747  0.34969447864786
 6 -6.13779535493549  3.39112353065307  0.78805966286629
 6 -6.56048923462346  4.83644008350835  0.93608010081008
 6 -7.81316041284128  5.02345118061806  0.43967049444945
 6 -8.25632657855786  3.62116060976098  0.08964912031203
 6 -5.56482699919992  5.85688120322032  1.36482774877488
 6 -8.51336861956196  6.21256526812681  0.39622812411241
 6 -9.50921882008201  6.43533325522552 -0.54397687648765
 7 -9.31423962456246  0.82403963696370 -0.43975644404440
 6 -10.04631849474947  1.90397289598960 -0.58326759595960
 6 -11.48592245874588  1.58690225122512 -0.87580141404140
 6 -11.52268621912191  0.22423976407641 -0.99990494519452
 6 -10.20027225292529 -0.19701965366537 -0.81673491599160
 6 -12.44986348724873  2.68751725332533 -1.08961205150515
 6 -12.69043678317832 -0.53703618311831 -1.34972593229323
 6 -12.77483761446145 -0.68748201260126 -2.80156832813281
 7 -7.42530148774877 -1.30939262446245 -0.20328885738574
 6 -8.51659324682468 -2.06424515131513 -0.53139650205020
 6 -8.04592703170317 -3.46126300850085 -0.56109867716772
 6 -6.80440534963496 -3.49336616491649 -0.12121974587459
 6 -6.38593969736974 -2.12986580518052  0.05873094929493
 6 -8.89867262486248 -4.68110886038604 -0.79069806420642
 6 -5.54448139333933 -4.31476651175118 -0.00624967936794
 8 -5.40715020522052 -5.50971050115011  0.10363309740974
 6 -4.38123575217522 -3.25458622022202  0.36435549764977
 6 -3.66234003190319 -3.80521461496150  1.67925445114511
 8 -4.03124819831983 -3.37282521642164  2.75000306840684
 8 -2.74439312691269 -4.68011298419842  1.49985041294129
 6 -2.11151585538554 -5.17766721282128  2.65546768636864
 6  2.58105027362736 -0.53287718531853 -1.32380640644064
 6  3.96545979277928 -0.38890939333933 -0.74579667976798
 6  5.04720697729773  0.34796585148515 -1.19459341594159
 6  4.92259145484548  1.24550528222822 -2.36856397319732
 6  6.37477922312231  0.39645738493849 -0.25132404660466
 6  7.54060530093009 -0.20340652355236 -0.96267313421342
 6  8.78816041714171 -0.19167315241524 -0.12468081558156
 6  10.07279820552055 -0.74399872647265 -0.82143949874988
 6  10.11557759635964 -2.25446924982498 -1.07445673057306
 6  11.45308915911591 -0.24364867956796 -0.08007856355636
 6  12.77253892809281 -0.59379469666967 -0.74332885598560
 6  13.81102969236924 -0.19096632283228  0.23344540004000
 6  15.24263317511751 -0.31640252175218 -0.44309786768677
 6  15.70296986878688 -1.73536240164016 -0.86448521682168
 6  16.28099884418442  0.41290580788079  0.45165418771877
 6  17.79985487428743  0.37761067876788 -0.02114601600160
 6  18.68916984128413  1.13561789068907  0.87911872807281
 6  20.12154405600560  1.21297910251025  0.38357008450845
 6  20.47954865376538  1.73179975607561 -1.00983906170617
 6  21.06085860716072  1.99559089788979  1.44566635483548
 1 -4.42226988728873  3.72298353035304  1.84153903480348
 1 -10.18655650875088  4.06457369946995 -0.29222054475448
 1 -10.47186144254425 -2.48778593409341 -0.91671114421442
 1 -2.54976730373037 -0.89838907410741  1.98875975167517
 1 -2.26630794529453  1.62369259245925  1.37169008120812
 1 -2.07134739273927  0.57514388278828  3.74202330633063
 1 -3.09775526742674  2.24438948864887  3.60560075527553
 1 -3.70105970287029  0.71423660816082  3.87033220942094
 1 -2.14022953135314 -1.50507524062406 -0.32690713791379
 1 -2.07552089148915  0.22800899189919 -0.72722941714171
 1 -0.50258607840784  0.43828768236824  0.77434779607961
 1 -0.26518685798580 -1.42145410401040  1.02942045044504
 1 -4.71732654915492  5.99395376347635  0.55921872167217
 1 -6.22701790819082  6.82032694739474  1.50684997959796
 1 -4.91362944974497  5.78863690769077  2.36819095309531
 1 -8.28027303670367  6.95021489598960  1.10446200010001
 1 -9.80586593849385  5.70028018851885 -1.28495008110811
 1 -10.01643639023902  7.54352307980798 -0.63861408430843
 1 -12.47758212021202  3.16396558375838 -0.28388620172017
 1 -12.27358120642064  3.59497345474547 -1.87904722152215
 1 -13.57458848164817  2.28093592929293 -0.95206956235624
 1 -12.76929930313031 -1.43470239693969 -0.87664241534153
 1 -13.59557658215822 -0.16846269156916 -0.74352671147115
 1 -12.87212284218422  0.27217403050305 -3.25271261556156
 1 -11.90671563956396 -1.15082265586559 -3.28139709180918
 1 -13.67034378787879 -1.15976507130713 -3.18804634693469
 1 -9.73466001480148 -4.80398971877188  0.01395909390939
 1 -9.53508748764876 -4.59053699969997 -1.75363226142614
 1 -8.33037821252125 -5.60440870787079 -0.71498945444544
 1 -3.47183903530353 -3.26593288348835 -0.34760610921092
 1 -1.51356174917492 -6.09980507620762  2.45460879497950
 1 -1.23683212961296 -4.39757324122412  3.00403484608461
 1 -2.86641965836584 -5.30965605720572  3.32901977757776
 1  2.69526343384338 -1.48038568206821 -2.03529469646965
 1  2.35143003750375  0.52555497469747 -1.93002076927693
 1  4.12980575227523 -0.97109942424242  0.19907781078108
 1  5.44574640384038  2.16996950595059 -2.32248696849685
 1  5.53830044724473  0.82407837033703 -3.30975237683768
 1  3.93228334653465  1.75479666646665 -2.55987681278128
 1  6.49419743594359  1.44554067906791  0.22207201610161
 1  6.12916096079608 -0.21051094069407  0.65152285968597
 1  7.29247603250325 -1.22738946354635 -1.44712547214721
 1  7.46257580008001  0.51305332593259 -1.88515334433443
 1  9.02714820222022  0.98747758905891  0.21331147944794
 1  8.71925498829883 -0.71124527602760  0.78318113051305
 1  9.92599526812681 -0.16648409170917 -1.87070164516452
 1  9.08680899709971 -2.60632932613261 -1.53633218101810
 1  10.89553458455846 -2.43048464826483 -1.85472607750775
 1  10.16450147024702 -2.73790547614762 -0.07437570687069
 1  11.24265956335634  0.81900068016802 -0.04579599439944
 1  11.24673063656366 -0.65610084658466  1.04538446864686
 1  12.76720143074308 -1.70457202840284 -1.06594980798080
 1  12.83422157435744 -0.06819689868987 -1.68146968066807
 1  13.66586774167417  1.05159487028703  0.56246915781578
 1  13.78246247324732 -0.73460988878888  1.40808765466547
 1  15.09341168536854  0.09731093719372 -1.48098011131113
 1  14.88217377027703 -1.95117769956996 -1.67175650885088
 1  16.62788666216622 -1.79103313991399 -1.40814659855986
 1  15.74213949274927 -2.40845597819782 -0.05689641824182
 1  16.06114638783879  1.47104367466747  0.78029848884889
 1  16.21592624942494 -0.00905028172817  1.51039446204620
 1  18.01552277397739 -0.55473968446845 -0.19504937273727
 1  17.84584917051705  0.75690757905791 -1.12768120062006
 1  18.17650233973398  2.18393478937894  0.96421181088109
 1  18.68557081128113  0.79025483498350  1.78943609360936
 1  20.34519085148515  0.13832179317932  0.67596875307531
 1  19.84890224682468  2.71299957005701 -1.00566246864687
 1  21.38691593529353  1.72778084778478 -1.21385449204920
 1  20.25239021202120  1.20722634433443 -1.90363254475448
 1  21.18389362586259  1.51598306630663  2.59663069966997
 1  22.06878973617362  2.17916794419442  1.07106126322632
 1  20.68312794219422  2.83947714731473  1.67000573847385
 1 -7.40009184228423  1.84435330853085  0.22445429152915
 1 -7.58872042044204 -0.44605478147815 -0.04318444604460

