%nproc=3
%Mem=2GB
# td=(NStates=1) B3LYP/SVP 

TD

0 1
 6 -5.12834053215322 -1.95553179527953  0.50522539843984
 6 -4.73451377037704  2.67924437613761  1.41164755065507
 6 -9.30216012571257  3.33634443364336 -0.37530599849985
 6 -9.76889494399440 -1.37332813621362 -0.96593914731473
 7 -5.09565872817282  0.33179480238024  0.84544298129813
 6 -4.50741935803580 -0.76520324132413  0.87156059945995
 6 -3.03042272877288 -0.59096553125313  1.41687668346835
 6 -3.04821978737874  0.82905179747975  1.94800390619062
 6 -4.40946013911391  1.34924474237424  1.35291888888889
 6 -3.15793436193619  0.81298881118112  3.48357622022202
 6 -1.99735180588059 -0.93594355605561  0.38976692229223
 6 -0.59214242644264 -0.82725094169417  0.75448790149015
 6  0.38147180858086 -1.18575544844484 -0.50369192679268
 8  0.07781954955496 -1.45770813741374 -1.60562417391739
 8  1.66708690579058 -1.02478925202520 -0.04238668136814
 7 -6.98750334493449  2.75844311611161  0.46294580378038
 6 -5.82019359475948  3.38246266456646  1.01643250015001
 6 -6.07590077577758  4.73655009450945  0.98199469226923
 6 -7.42633172997300  4.95876471197120  0.55566209360936
 6 -8.02679362526253  3.67880637433743  0.20886104150415
 6 -5.20643115961596  5.88945446054605  1.51325259125913
 6 -8.14257153985398  6.24495850745074  0.41594009530953
 6 -8.85786368456846  6.62164188608861 -0.68138061686169
 7 -9.22601080168017  0.99044627762776 -0.51535400380038
 6 -9.86005986888689  2.09816231493149 -0.65858512771277
 6 -11.23646751325133  1.99201276227623 -1.01221505540554
 6 -11.38698264876488  0.60443778387839 -1.22216717141714
 6 -10.14510673637364  0.03856390469047 -0.94269751225123
 6 -12.13746224712471  3.16830533213321 -1.34645773607361
 6 -12.63006074557456 -0.15908838833883 -1.85533649334934
 6 -12.47512764346435 -0.43473673807381 -3.41560973227323
 7 -7.45159411701170 -1.28264995019502 -0.11835036353635
 6 -8.62632421992199 -1.98457718451845 -0.50340370277028
 6 -8.27649008800880 -3.39585646784678 -0.67513008030803
 6 -6.89579448854886 -3.40088691699170 -0.20286791069107
 6 -6.46201730513051 -2.09802262086209  0.14139921612161
 6 -9.10904366196620 -4.50713146264626 -1.06664565896590
 6 -5.72864981018102 -4.34783981908191  0.03829477507751
 8 -5.60661015121512 -5.51227075717572 -0.09576684258426
 6 -4.51387901650165 -3.26939770137014  0.45750481258126
 6 -3.94366816471647 -3.89594368786879  1.75224174987499
 8 -4.15887096059606 -3.45076301020102  2.85373344144414
 8 -3.06910559815982 -4.97321229412941  1.45232566046605
 6 -2.70566527032703 -5.59288873497350  2.65360750035004
 6  2.79015118371837 -1.38036193379338 -0.96611063686369
 6  4.10018326512651 -0.89881038343834 -0.37474957505751
 6  4.90197245384538  0.02458351325133 -0.92523648024802
 6  4.72998219391939  0.64963569526953 -2.26663378017802
 6  6.18331007620762  0.36908464766477 -0.25372428662866
 6  7.45619686008601 -0.29306548944894 -0.99308617551755
 6  8.76438803990399 -0.06163014811481 -0.22443079057906
 6  9.98891981768177 -0.63498782538254 -0.85449280408041
 6  10.09711575017502 -2.15906970987099 -0.89519880478048
 6  11.24135798599860 -0.10228454315432 -0.10221077677768
 6  12.54206588078808 -0.47728304550455 -0.67006152925293
 6  13.79436802620262 -0.03355058125813  0.15956801230123
 6  15.07766667846785 -0.07332821432143 -0.39484304220422
 6  15.59811938373837 -1.56098496389639 -0.48397716601660
 6  16.16602734703470  0.72174669196920  0.43636265856586
 6  17.48931382018202  0.83033595129513 -0.37002090349035
 6  18.60802172647265  1.66696102500250  0.47901871807181
 6  20.05190709230923  1.59693749834983  0.01644337183718
 6  20.26988768766877  2.12954953105310 -1.38632671047105
 6  20.86064858615862  2.44738607740774  1.00464225242524
 1 -3.88786644694469  3.38844007600760  1.84165904680468
 1 -9.94471232433243  4.20040728282828 -0.30460178287829
 1 -10.42623688008801 -2.07632478797880 -1.53112258535854
 1 -2.83494582158216 -1.14072330753075  2.37897877357736
 1 -2.40103141764176  1.40209043224322  1.46394930713071
 1 -2.15187544554455  0.24695106350635  3.76545564956496
 1 -3.32363785568557  1.85725077477748  3.79469966516652
 1 -3.85310490739074  0.25952113661366  3.88583375957596
 1 -2.28085359375938 -1.91888662176218 -0.08973342054205
 1 -2.03716705610561 -0.22293610261026 -0.52487918211821
 1 -0.36960278007801  0.29599345294529  0.92910327162716
 1 -0.28342868216822 -1.47249920852085  1.78512602100210
 1 -4.08094291079108  5.86722109020902  1.03629642944294
 1 -5.70437564396440  6.90973588828883  1.32203149774978
 1 -4.92756084288429  5.49089713371337  2.60586472047205
 1 -7.53218822822282  6.92629250375037  1.04719627352735
 1 -9.09669502140214  5.67620778127813 -1.34151573767377
 1 -9.34988973557356  7.59983871137114 -0.90705092799280
 1 -12.64953931593159  3.74106329352935 -0.56975478857886
 1 -11.85774962326233  3.86771072847285 -2.06342565936594
 1 -13.09582060486049  2.64143197889789 -1.76591094649465
 1 -12.76348872207221 -1.21637056375638 -1.37129188028803
 1 -13.45734275877588  0.43770792549255 -1.80903326212621
 1 -12.28276390629063  0.44817163026303 -3.92177952225223
 1 -11.63323829182918 -0.91711928552855 -3.54277322942294
 1 -13.35124187768777 -0.80771986678668 -3.87147468976898
 1 -10.15948249704971 -4.58760808060806 -0.45721802380238
 1 -9.38227220612061 -4.41962990899090 -2.25350224842484
 1 -8.67767294199420 -5.31853012001200 -0.66750470597060
 1 -3.76476832823282 -3.49737602780278 -0.32702405100510
 1 -2.08759915291529 -6.20050514621462  2.24612794689469
 1 -1.89433788018802 -5.03078656255626  3.20135457805781
 1 -3.65393841024102 -6.06302139373937  3.13146002160216
 1  2.63565747324733 -2.37201484498450 -1.22597376437644
 1  2.52396729122912 -0.80272785358536 -1.80766853405340
 1  4.31143391509151 -1.15540785508551  0.77191509450945
 1  4.47324915411541  1.86010851985199 -2.22155687548755
 1  5.63625024222422  0.56094205670567 -2.95319672127213
 1  3.80850096829683  0.48120930773077 -2.96545737083708
 1  6.41204922112211  1.46649277427743 -0.14633482458246
 1  6.18042608730873 -0.15136502610261  0.86405411281128
 1  7.22880966586659 -1.37381410601060 -1.12269302890289
 1  7.38821836433643  0.35537755835584 -2.01455628462846
 1  8.98430391779178  1.11788062936294  0.20272042034203
 1  8.67469053185319 -0.51747589908991  0.72254506690669
 1  10.25855852445244  0.03978653535354 -1.84786936193619
 1  9.23265358155816 -2.93733242644264 -1.27297584538454
 1  11.05189022012201 -2.70421202100210 -1.16574717961796
 1  10.25296031613161 -2.30616230183018  0.27962969366937
 1  11.31424672207221  0.90740952105211  0.00431901710171
 1  10.92880884438444 -0.25409064556456  1.04731466166617
 1  12.67151186178618 -1.57342891409141 -0.95585879887989
 1  12.49340749294930  0.09804972597260 -1.63498503220322
 1  13.72283343824382  1.05147485828583  0.64381729262926
 1  13.72321654865486 -0.78419484728473  1.10054690059006
 1  15.05819816401640  0.26917812391239 -1.46489850315031
 1  15.00972652555255 -2.25067764956496 -1.24423375657566
 1  16.72775664916492 -1.51091512811281 -0.71577736163616
 1  15.51474675347535 -1.99336446904691  0.31889116051605
 1  15.76149642284228  1.75491206150615  0.55724618361836
 1  16.25348000480048  0.13040366366637  1.43819724232423
 1  17.72110333203320 -0.10813502400240 -0.55540540834083
 1  17.43089767536754  1.50482237053705 -1.31942037453745
 1  18.50337502700270  2.87977437333733  0.30925631533153
 1  18.51202345654566  1.46549235873587  1.56422357235724
 1  20.40564689708971  0.54054201520152  0.19210036623662
 1  19.96158351495150  3.28535680578058 -1.33203510591059
 1  21.39146639033903  2.26618468816882 -1.42351545814581
 1  19.93635860886089  1.51596721842184 -2.16407858935894
 1  20.76035127162717  2.24705617361736  2.13298433503350
 1  22.06672953015302  2.37589761716172  0.99314347144714
 1  20.57474710411041  3.55964916451645  0.86449518741874
 1 -6.90718255135514  1.63266213941394  0.33577542364236
 1 -7.45546709510951 -0.23771394739474  0.10495036743674

