%nproc=3
%Mem=2GB
# td=(NStates=1) B3LYP/SVP 

TD

0 1
 6 -5.03882158025803 -1.86570281238124  0.55660053595360
 6 -4.86928724772477  2.83901035273527  1.61744813071307
 6 -9.34619452915291  3.27699849904990 -0.22163063096310
 6 -9.77956601110111 -1.54686548994900 -0.92218477187719
 7 -5.16530569286929  0.48219984288429  0.84370280728073
 6 -4.52133074917492 -0.62622934393439  0.89627307070707
 6 -3.08430811731173 -0.45905233993399  1.36811180698070
 6 -3.10489545494550  0.95329422172217  1.88190729652965
 6 -4.43747294039404  1.47339715761576  1.41689528652865
 6 -2.97272584108411  1.15918343064306  3.50831869446945
 6 -1.99398146884688 -0.82566252795280  0.17237518311831
 6 -0.59203241544154 -0.63051126772677  0.67815026772677
 6  0.31263492489249 -1.06775364826483 -0.58197975557556
 8 -0.07831606400640 -1.60804317091709 -1.61998561006101
 8  1.55491568866887 -0.57393416651665 -0.40706314901490
 7 -7.04819941454145  2.83507077887789  0.50233974317432
 6 -5.98569014441444  3.44677909620962  1.05732658955896
 6 -6.32468565426543  4.80214665416542  1.08966545934593
 6 -7.51343043984398  5.00194903040304  0.53658018541854
 6 -8.09290023592359  3.63389188288829  0.21322147754775
 6 -5.39335985248525  5.78707422252225  1.57755902190219
 6 -8.24123140584058  6.25760977257726  0.36833533483348
 6 -9.05090298849885  6.55083480538054 -0.60788326712671
 7 -9.25680388098810  0.82123935693569 -0.45695816421642
 6 -9.94734859775978  1.95924842354235 -0.46718598779878
 6 -11.30790465696570  1.82663622462246 -0.98300213411341
 6 -11.40615456595659  0.50272761286129 -1.19195415011501
 6 -10.08111033673367 -0.13712366406641 -0.88356159865987
 6 -12.39248774967497  2.96707520912091 -1.15079817011701
 6 -12.58028576807681 -0.35670815031503 -1.66744770447045
 6 -12.75645577627763 -0.45134839923992 -3.21463963526353
 7 -7.43432238983898 -1.25108679387939 -0.14137266576658
 6 -8.54461604910491 -2.05567429422942 -0.59742310471047
 6 -8.10342278127813 -3.42056893909391 -0.65692826012601
 6 -6.74650956005600 -3.38151497979798 -0.08372599649965
 6 -6.43478458185819 -2.10316313491349  0.17004208040804
 6 -8.85481823942394 -4.65713646314631 -0.95303429782978
 6 -5.56055300050005 -4.19314434953495  0.04190513611361
 8 -5.42540203040304 -5.40195972607261 -0.10245751165117
 6 -4.44706233483348 -3.22995375697570  0.52153121522152
 6 -3.82655645354535 -3.70051414491449  1.79261578727873
 8 -4.04350942444244 -3.39412734663466  2.91718978707871
 8 -2.85864455205521 -4.69300427332733  1.50969139703970
 6 -2.31409611341134 -5.32712215831583  2.67599973957396
 6  2.55154732333233 -1.05137903550355 -1.43121714751475
 6  3.97288053485349 -0.77608811121112 -0.81632373247325
 6  5.01098335493549  0.01260231513151 -1.29900385698570
 6  4.93734292999300  0.63421415311531 -2.71797891469147
 6  6.21872361756176  0.01815955515552 -0.61394030823082
 6  7.49655089548955 -0.55650183308331 -1.32267913481348
 6  8.82196379747975 -0.23335732083208 -0.48910725822582
 6  10.08338926462646 -0.78292261886189 -1.04223157795780
 6  10.04815085368537 -2.36887068996900 -1.19577886278628
 6  11.32206605680568 -0.27651196589659 -0.25648620432043
 6  12.75448712291229 -0.57931324852485 -0.85903042614261
 6  13.80008859825983 -0.03312053825383  0.10472252775278
 6  15.26069498129813 -0.21501238273827 -0.40255381328133
 6  15.60910048184818 -1.76469533493349 -0.27499626792679
 6  16.18944968926893  0.67065158245825  0.47621664396440
 6  17.55235012381238  0.70882380008001 -0.02464636603660
 6  18.47547847214721  1.61343567246725  0.73573438963896
 6  19.88640054165417  1.56812461706171  0.42415414291429
 6  20.32570326922692  2.27491406750675 -0.91266934473447
 6  20.75430795209521  2.27054839363936  1.56338812701270
 1 -4.25578323862386  3.74865609760976  1.83310819171917
 1 -9.94097195029503  4.11072831493149 -0.46767809050905
 1 -10.41959621602160 -2.33292044754475 -1.16544601770177
 1 -2.65681800880088 -1.01800103530353  2.25721659735974
 1 -2.29551086558656  1.50775099829983  1.41329424162416
 1 -1.92952321032103  0.83136950535053  3.80509961396140
 1 -2.92978847074707  2.34522957265727  3.67216741194119
 1 -3.79394899179918  0.54215940044004  4.25489066526653
 1 -2.30506601500150 -1.66344107720772 -0.04357880508051
 1 -2.29038237763776 -0.19138294729473 -0.69818651285129
 1 -0.19865568536854  0.40350420402040  0.95607596889689
 1 -0.45893623292329 -1.54635659425943  1.51900940934093
 1 -4.44226904340434  5.90667503560356  0.99151195099510
 1 -5.81562676907691  6.78178309300930  1.04353364796480
 1 -5.28570665746575  5.82925096909691  2.68905303930393
 1 -8.33272828222822  7.06372624712471  1.20637219111911
 1 -9.13850920282028  5.79297945844584 -1.56820840694069
 1 -9.68494324092409  7.54717344484448 -0.58566878977898
 1 -12.95237959996000  3.05950513771377 -0.09388720182018
 1 -11.97450129842984  4.03151710911091 -1.62511182798280
 1 -13.35182620542054  2.59188702440244 -1.90270462586259
 1 -12.44226659985999 -1.36175510221022 -0.90782553365337
 1 -13.55345236973697  0.03914806950695 -1.04135649444944
 1 -13.29941557145715  0.63666047914791 -3.76464380868087
 1 -11.74694966296630 -0.66333390699070 -3.75819477157716
 1 -13.44657141064106 -1.42925202000200 -3.33419096139614
 1 -9.54448099689969 -5.02103142294230 -0.23688599059906
 1 -9.43407738663866 -4.56051399739974 -1.94478137633763
 1 -8.21364653935393 -5.58934720172017 -1.07949590509051
 1 -3.87285913731373 -3.08682497269727 -0.31010235883588
 1 -1.56075646864687 -5.93978907460746  2.34417775187519
 1 -1.65886433283328 -4.58037152105210  3.09120356295630
 1 -2.87951096749675 -5.90829592119212  3.29255613121312
 1  2.49889379687969 -2.26734437793779 -1.45353652065206
 1  2.11625652015202 -0.71147872867287 -2.50316808400840
 1  4.10155292699270 -1.19245155945595  0.30247815081508
 1  5.13867569676968  1.71299380838084 -2.58367308710871
 1  5.55674229142914  0.07388335083508 -3.40443184478448
 1  3.77008712691269  0.73197438423842 -3.00073089818982
 1  6.50693871007101  1.08762488748875 -0.56845703680368
 1  5.73138118281828 -0.17615750535053  0.46787449484949
 1  7.53281006590659 -1.69560628522852 -1.60762152175218
 1  7.57393693619362 -0.04066204560456 -2.32661749074908
 1  8.92975846324632  0.97866670797080 -0.66420627232723
 1  8.68371143394339 -0.47066121762176  0.63224603700370
 1  10.13407607620762 -0.21717916121612 -2.00497507250725
 1  9.40219053525353 -2.61645033823382 -1.77170571837184
 1  11.12956798789879 -2.60563216301630 -1.50681128602860
 1  9.82351737183718 -3.16952863846385 -0.30929919921992
 1  11.08848414581458  0.78522730283028 -0.10700211501150
 1  11.19294525802580 -0.90309554605461  0.65597552775278
 1  12.97898260886089 -1.63001457265727 -1.10579379237924
 1  12.88827697989799 -0.26240631963196 -1.74972650635064
 1  13.49743089798980  1.09269898069807  0.30745365626563
 1  13.73813804080408 -0.49382581038104  1.20230707660766
 1  15.39298164236424 -0.09404819871987 -1.57003901720172
 1  14.85640119301930 -2.41552413421342 -0.99248858205821
 1  16.59778365186519 -2.02008604520452 -0.73939972387239
 1  15.46901218001800 -2.01322645524552  0.82253152455246
 1  15.66594686788679  1.63337990829083  0.84093455245525
 1  16.19913457025703  0.17601822512251  1.37579100170017
 1  17.87906912861286 -0.30808501900190  0.10059019121912
 1  17.68710329592959  0.95529741804180 -1.09691812431243
 1  18.21237592709271  2.70962735863586  0.66228161786179
 1  18.22308456265627  1.30936674617462  1.73940109010901
 1  20.18631496389639  0.44453241424142  0.24886604280428
 1  20.17295465206521  3.50963923402340 -0.90058196059606
 1  21.31071831553156  2.27407547724773 -1.27851095769577
 1  19.79695466846685  1.64238986068607 -1.66472865436544
 1  20.64084932143215  2.14240570857086  2.58445948254825
 1  21.78754161136114  2.34355438283828  1.56531068816882
 1  20.31148077747775  3.41256445604560  1.55048378627863
 1 -7.02096392949295  1.81862073527353  0.58448029412941
 1 -7.44830637903790 -0.14708488448845 -0.08155828342834

