%nproc=3
%Mem=2GB
# td=(NStates=1) B3LYP/SVP 

TD

0 1
 6 -5.16345404350435 -1.89077531963196  0.53318819471947
 6 -4.67931825082508  2.77788424012401  1.48461484738474
 6 -9.13914382408241  3.36599739893989 -0.34523299119912
 6 -9.76585463996400 -1.47456826022602 -1.05537809120912
 7 -5.14967412971297  0.50762238513851  0.88422685968597
 6 -4.57385600170017 -0.73516023702370  0.99732317571757
 6 -3.08076776327633 -0.55370180488049  1.50120511631163
 6 -3.13087805320532  0.81827071937194  2.00828993479348
 6 -4.41174036713671  1.40930074797480  1.40464406140614
 6 -3.16371493999400  0.83657116941694  3.57992585518552
 6 -2.11077314801480 -0.83382334403440  0.32019996559656
 6 -0.63089630183018 -0.78738695529553  0.72322477517752
 6  0.34417807920792 -1.10356722962296 -0.45341689928993
 8 -0.02974120652065 -1.30051241784178 -1.59480309180918
 8  1.62856305340534 -1.07129390249025 -0.00691313401340
 7 -6.94028862346235  2.77121439323932  0.49847935713571
 6 -5.79545112051205  3.37761217951795  0.98332918981898
 6 -6.17109029472947  4.79125556505651  1.13896038883888
 6 -7.36702579937994  5.05006384188419  0.62352888028803
 6 -7.91900284618462  3.72191068476848  0.23749390479048
 6 -5.27966848334833  5.83822933803380  1.62907417341734
 6 -8.04775205790579  6.25086909850985  0.33172167346735
 6 -8.89155705390539  6.65388511041104 -0.61992447124712
 7 -9.17289549014901  0.89395662866287 -0.48080054845485
 6 -9.78861272417242  2.11114361306131 -0.56747601680168
 6 -11.05269913641364  1.83900746174617 -1.05263909780978
 6 -11.30725467596760  0.53975131523152 -1.41034598929893
 6 -9.98972119781978 -0.05703565526553 -1.03659690219022
 6 -12.14862336323632  2.87038554015402 -1.37244033433343
 6 -12.51534927442744 -0.16792927242724 -1.94926588628863
 6 -12.31290142084208 -0.41863512791279 -3.53345151645164
 7 -7.48750770837084 -1.33219490469047 -0.23179170767077
 6 -8.42452403990399 -2.07520624742474 -0.80861422382238
 6 -8.10345278427843 -3.44653153535354 -0.83247581488149
 6 -6.82806771587159 -3.38780560886089 -0.33771139503950
 6 -6.49598070147015 -2.04645746434643  0.13979905610561
 6 -8.95089784738474 -4.61074182368237 -1.30470946534653
 6 -5.70762770797080 -4.30221525662566 -0.00814986938694
 8 -5.74592408260826 -5.49285881598160 -0.16764403030303
 6 -4.56522415101510 -3.34343510511051  0.56554561666167
 6 -4.05741953985399 -3.79853394689469  2.00229675537554
 8 -4.22650772427243 -3.33679161306131  3.02277034513451
 8 -3.20076876447645 -4.93881885478548  1.75707613551355
 6 -2.86795149894989 -5.52682212831283  2.91802394199420
 6  2.69651181978198 -1.37209110671067 -1.06479050485049
 6  3.92038528532853 -0.85417591999200 -0.44698679877988
 6  4.82709496609661 -0.04191313641364 -0.96111006760676
 6  4.56341553725373  0.69727045874587 -2.29766688348835
 6  6.17715946114611  0.13773151235124 -0.35153406760676
 6  7.48620986138614 -0.27303348624862 -1.01138800570057
 6  8.76317791889189 -0.03315730083008 -0.10945929342934
 6  9.97795872157216 -0.67080140674067 -0.71821917671767
 6  9.97777381598160 -2.14660846374637 -0.97900718561856
 6  11.33195704590459 -0.19632394709471  0.11726117041704
 6  12.59532120632063 -0.37776309350935 -0.64207873097310
 6  13.80634922432243  0.17499027282728  0.11978403390339
 6  15.19033794559456 -0.09918079957996 -0.50217377527753
 6  15.45693526532653 -1.66913577897790 -0.83391215951595
 6  16.25165590989099  0.65374989228923  0.41513053535354
 6  17.69779466826683  0.60170308800880 -0.34071797319732
 6  18.60792171647165  1.52902723162316  0.57215803200320
 6  20.10758265986599  1.62794059865987 -0.03588186068607
 6  20.08032873177318  2.52990956705671 -1.38383646144614
 6  21.00839336063607  2.44483582238224  0.94720650885089
 1 -4.04756241654165  3.34149538153815  1.90501538243824
 1 -9.90230808390839  4.10277751985199 -0.57650897359736
 1 -10.48742299869987 -2.14147130263026 -1.73562303540354
 1 -2.77518984598460 -1.21534076927693  2.38851972767277
 1 -2.24368568306831  1.51044126732673  1.72762567476748
 1 -2.20968122612261  0.38820518891889  3.93274237823782
 1 -3.34348984088409  1.95957100680068  3.77621781698170
 1 -4.01512110901090  0.11173635813581  3.79743491969197
 1 -2.30226573497350 -1.92072680578058 -0.09438388558856
 1 -2.25205854525453 -0.17332114111411 -0.51050774497450
 1 -0.35165098489849  0.16584043764376  1.09717007830783
 1 -0.41482182148215 -1.47769972857286  1.42416992539254
 1 -4.45436025252525  5.82577694579458  0.88717151695170
 1 -5.71655686208621  6.79239415411541  1.78562785738574
 1 -4.78273636043604  5.47281532553255  2.50862499649965
 1 -7.83507851725173  6.95285516001600  1.11700325422542
 1 -9.18282363426343  5.95118527902790 -1.53140472657266
 1 -9.63809855645565  7.51955068256826 -0.63556377927793
 1 -12.19225358735874  3.66779596679668 -0.55991380448045
 1 -11.79046289458946  3.74042800020002 -2.07474679147915
 1 -13.03468449124913  2.69511734743474 -1.66198055345535
 1 -12.77518989218922 -1.10931985868587 -1.37766251735173
 1 -13.37346437093709  0.57160131483148 -1.68047040584058
 1 -12.43033866376638  0.60674748784879 -3.97441478577858
 1 -11.15629059705971 -0.87308488208821 -3.49252820492049
 1 -13.09229598309831 -1.21933102790279 -4.01351889418942
 1 -10.28170471927193 -4.29883920372037 -1.05090739273927
 1 -9.09110308920892 -4.47783572957296 -2.36427332553255
 1 -8.42506768146815 -5.64828309530953 -1.00815877137714
 1 -3.66171802320232 -3.53648993919392 -0.11548289688969
 1 -2.34177457045705 -6.53409850555056  2.73472680678068
 1 -2.27436588298830 -4.90740422432243  3.70562500510051
 1 -3.59837285368537 -5.99740483208321  3.51955883148315
 1  2.55013892139214 -2.38637628112811 -1.08737990499050
 1  2.47134202870287 -0.75991357215722 -1.98022578977898
 1  4.08406117781778 -1.30959327362736  0.44040194319432
 1  4.98853068226823  1.88166067506751 -2.06272099189919
 1  5.34235085228523  0.22138810131013 -3.04271567316732
 1  3.55597571577158  0.68928011481148 -2.75117594269427
 1  6.04635265146515  1.23596972197220 -0.45301549264926
 1  6.05580362506251 -0.32786267586759  0.59841754915492
 1  7.25896268116812 -1.49150587518752 -1.14339509910991
 1  7.54511405390539 -0.07465544494449 -2.02082691169117
 1  9.01891737913791  1.05094393569357 -0.03079293099310
 1  8.44381744454445 -0.40029418091809  0.84693750615062
 1  9.97862053065306 -0.17173461676168 -1.55657023202320
 1  9.11406172237224 -2.53277197039704 -1.85990453825383
 1  10.88746377747775 -2.45965756555656 -1.43404400930093
 1  9.77016203630363 -2.81903358895890 -0.05985425472547
 1  11.13980927832783  0.74417319741974  0.26747533273327
 1  11.26272223572357 -0.78946418291829  1.03428335853585
 1  12.74419913051305 -1.32992456365637 -1.06246945994600
 1  12.66196434863486  0.47503742474247 -1.35810734443444
 1  13.77866902180218  1.43996370717072  0.19124203510351
 1  13.75380960796079 -0.41706813461346  1.16918376427643
 1  15.10352269646965  0.55673687978798 -1.43345535883588
 1  14.50299585248525 -2.26101868366837 -1.05953528672867
 1  16.25268914241424 -1.85463950055005 -1.39332511641164
 1  15.73158843764376 -1.96861199379938  0.31685095649565
 1  16.00278055125512  1.68148471877188  0.58315877487749
 1  16.37030168696870  0.26538716201620  1.32460588318832
 1  18.03381460316032 -0.48830304080408 -0.41750161796180
 1  17.75220980658066  1.12390427872787 -1.30242867536754
 1  17.94695938543855  2.62895929182918  0.50821621132113
 1  18.95124737893790  1.12181799129913  1.65346249624963
 1  20.43091942434243  0.52507046804680 -0.25872471627163
 1  19.57424478107811  3.63497176727673 -1.23974587698770
 1  21.12122936663667  2.61260933063306 -1.99179228582858
 1  19.38390336333633  1.96064168586859 -2.03668585008501
 1  21.12021725822582  1.61748321632163  1.93533457005701
 1  21.93825668286829  2.18529855725573  0.59471362846285
 1  20.74029365876588  3.41511471107111  1.17445618351835
 1 -7.03070490359036  1.66966583978398  0.25439728582858
 1 -7.63500504890489 -0.35876605260526  0.01457132953295

