%nproc=3
%Mem=2GB
# td=(NStates=1) B3LYP/SVP 

TD

0 1
 6 -5.04320201830183 -1.97513375547555  0.36609148504850
 6 -4.71031135013501  2.77808426012601  1.45081146704670
 6 -9.16444635433543  3.41290208940894 -0.22620108800880
 6 -9.73710176467647 -1.39055985938594 -0.94318687208721
 7 -5.18626778907891  0.43303492639264  0.73590202720272
 6 -4.49671828792879 -0.74199092009201  0.70779422282228
 6 -3.07556724322432 -0.63854028872887  1.29633462926293
 6 -3.10540550595059  0.74518341064106  1.88889799559956
 6 -4.41537073017302  1.35736555445545  1.27525112211221
 6 -3.15891445994599  0.71341885418542  3.42684054665467
 6 -2.10480255095510 -0.80819078077808  0.03571151675168
 6 -0.63420663286329 -0.76256447304730  0.46151860456046
 6  0.31502516391639 -0.94393126602660 -0.69765132273227
 8  0.04489625722572 -1.35478784538454 -1.82807641914191
 8  1.62161235833583 -0.73718049114911 -0.36410885358536
 7 -6.94845944054405  2.80401767356736  0.49432894209421
 6 -5.83645522092209  3.40903532183218  1.00352120902090
 6 -6.12442562826283  4.84174061356136  1.11265775857586
 6 -7.47143624042404  4.99587842334233  0.66595312271227
 6 -7.93975492139214  3.66470496419642  0.29944009940994
 6 -5.21742225872587  5.86912242734273  1.57915918191819
 6 -8.09971725442544  6.31044505610561  0.49848835013501
 6 -8.84552245044504  6.57356707860786 -0.56291877067707
 7 -9.12903110371037  0.95305253825383 -0.52766523492349
 6 -9.72648651155115  1.99657215591559 -0.48601787098710
 6 -11.23509737623762  1.87567112811281 -0.98344217811781
 6 -11.37804175467547  0.63183052315231 -1.29220417511751
 6 -10.06635886158616  0.01831187948795 -0.96006924942494
 6 -12.24148264916492  3.03985248684868 -1.21352444274427
 6 -12.53541128062806 -0.10284276377638 -1.81414237393739
 6 -12.64698482918292 -0.31631489588959 -3.30028820012001
 7 -7.49770872847285 -1.29656134133413 -0.12931145964596
 6 -8.60416200370037 -2.03785251205121 -0.53914727712771
 6 -8.18437087608761 -3.45518240044004 -0.64509707700770
 6 -6.85197010611061 -3.45311213951395 -0.21739936383638
 6 -6.42821392479248 -2.10033285188519 -0.00607553135314
 6 -9.07308006560656 -4.66068681818182 -0.95890488488849
 6 -5.80016696189619 -4.37703273837384  0.18917986358636
 8 -5.73039252945295 -5.58596812691269  0.22124485858586
 6 -4.57892552115212 -3.39671043264326  0.48682774487449
 6 -3.97246104400440 -3.79570366386639  1.83505003070307
 8 -4.05308038153815 -3.24820275417542  2.92595066316632
 8 -3.26199488708871 -5.03987896079608  1.66513694159416
 6 -2.80604530833083 -5.48706815291529  2.89771191079108
 6  2.58663083168317 -1.00956485408541 -1.37149117491749
 6  3.93143639043904 -0.73425392779278 -0.74093619371937
 6  4.95001725832583 -0.05279422452245 -1.24764872147215
 6  4.96006520222022  0.69944067576758 -2.49942705950595
 6  6.22315406060606 -0.05450771157116 -0.36295520972097
 6  7.47471871227123 -0.53086926982698 -1.10062692959296
 6  8.79000060116012 -0.37636162126213 -0.17291563906391
 6  10.15745667136714 -0.78243256985699 -0.85533288808881
 6  10.17103314191419 -2.28195199809981 -1.12041132603260
 6  11.29033288348835 -0.35288960366037  0.05102454675468
 6  12.62663433763376 -0.60943626082608 -0.60476499959996
 6  13.82545113451345 -0.05510273647365  0.34192624812481
 6  15.19970888268827 -0.24853573507351 -0.27136069396940
 6  15.75167473927393 -1.71095996139614 -0.37063583188319
 6  16.21762250655066  0.62980749804980  0.44790381268127
 6  17.65514040284028  0.86216913461346 -0.06163006440644
 6  18.53912483678368  1.78749307820782  0.73248406460646
 6  19.99620152175217  1.89861766636664  0.07916964446445
 6  20.07688838773877  2.42819939603960 -1.26560463826383
 6  20.87465998729873  2.69712105090509  0.99575136333633
 1 -3.94645230553055  3.33493472547255  1.79275415631563
 1 -9.96185403850385  4.17327456955696 -0.21772309500950
 1 -10.62055631203120 -2.19260641614161 -1.26341581468147
 1 -2.99106143314331 -1.19249848504850  2.03565444114411
 1 -2.37766908140814  1.20483070627063  1.55862877507751
 1 -2.20394065206521  0.35147151555156  3.96175527952795
 1 -3.41939743164316  1.84608965866587  3.77517771297130
 1 -4.02625222212221  0.05899108360836  3.84975015121512
 1 -2.14311982038204 -1.84323905700570 -0.36214066126613
 1 -2.36451979137914  0.00055624662466 -0.61128782298230
 1 -0.48396421622162  0.21054490809081  0.85835619691969
 1 -0.69784012331233 -1.60539249784978  1.17869537793779
 1 -4.61369618611861  5.88413278137814  0.73264606440644
 1 -5.93840904730473  6.82319723442344  1.79071836643664
 1 -4.90350843764376  5.53482152615261  2.59977411141114
 1 -7.72073708310831  6.98566844134414  1.18344989888989
 1 -8.91966731863186  5.87275743624362 -1.54186577267727
 1 -9.06250099669967  7.46311503900390 -0.73460368326833
 1 -12.50718508050805  3.71346053325332 -0.25814362746275
 1 -12.07679152745275  3.81497545494550 -1.83763308010801
 1 -13.17702872567257  2.22517035273527 -1.49385374077408
 1 -12.71425379857986 -1.04560348704871 -1.33993874497450
 1 -13.39061608610861  0.57605175987599 -1.39371172997300
 1 -12.70500613051305  0.75704251735174 -3.70405775007501
 1 -11.81266623462346 -0.72054962856286 -3.73852280438044
 1 -13.51835858935894 -0.97588668346835 -3.57141468376838
 1 -9.70091664046405 -4.96984630443044 -0.12324462646265
 1 -9.75586956585659 -4.37352529852985 -1.87348424662466
 1 -8.30266544124412 -5.48238650565056 -0.95866382188219
 1 -3.68075992739274 -3.77857414761476 -0.26577792639264
 1 -2.22448284128413 -6.44929002470247  2.57450078417842
 1 -2.30888933533353 -4.79564304820482  3.52943738633863
 1 -3.56209922632263 -5.71957704930493  3.70527740334033
 1  2.68757266476648 -2.16532417591759 -1.65652681968197
 1  2.21634652915292 -0.43416099689969 -2.29249701690169
 1  3.99316208790879 -1.31049336363636  0.33280118311831
 1  5.34877670687069  1.64315682468247 -2.53164788458846
 1  5.54131074827483  0.29437540004000 -3.16328773037304
 1  4.00286040424042  0.84914610141014 -2.96300712581258
 1  6.50320833703370  1.09440556555656  0.06179598849885
 1  6.27695574027403 -0.73753364296430  0.59723743114311
 1  7.31655844074407 -1.58029475407541 -1.39500025962596
 1  7.76827637013701 -0.16692467186719 -2.09136396539654
 1  8.77772325972597  0.80344918621862 -0.02965281698170
 1  8.73397646044604 -0.82993714521452  0.93450626302630
 1  10.19787245584558 -0.39335677897790 -1.85080965596560
 1  9.25415573177318 -2.69187788098810 -1.45080362816282
 1  10.95827085818582 -2.59540113991399 -1.83308391329133
 1  9.99786480658066 -2.89384106970697  0.12871460216022
 1  10.84327962536254  0.79604838493849  0.17521610681068
 1  11.06548251175118 -0.82800803730373  1.09848977917792
 1  12.90542525312531 -1.53166473767377 -0.94300751375137
 1  12.69207735993599  0.03545346634663 -1.54999653335334
 1  13.60874202910291  0.87891760256026  0.48480139103910
 1  13.91725595259526 -0.48407483528353  1.27027387328733
 1  15.30483282748275  0.04748595469547 -1.23432544584458
 1  14.93660921382138 -2.28957153895390 -1.09558889208921
 1  16.98559243274327 -1.62565660226023 -0.59927571147115
 1  15.73413869266927 -2.13508864146415  0.76928620002000
 1  15.70741101430143  1.61566813711371  0.53342380138014
 1  16.55040969776978  0.22850347364736  1.51645506810681
 1  18.11057227892789 -0.29076328682868 -0.29963983178318
 1  17.61665625122512  1.12027391569157 -1.29778821132113
 1  18.23490818031803  2.91879827572757  0.90668605830583
 1  18.54994724892489  1.71975778527853  1.80661781178118
 1  20.34252058445844  0.85725368636864  0.02454361056106
 1  20.02876023262326  3.50322859295930 -1.53154505690569
 1  21.12050929462946  2.33387145684568 -1.60379348594859
 1  19.40930590359036  1.80316593829383 -1.89499168066807
 1  21.03124836133614  2.42156362436244  2.16574761136114
 1  21.86811966916692  2.77389741714171  0.52488664576458
 1  20.51319094849485  3.76392959255926  0.99357809570957
 1 -7.19542137523752  1.76427530073007  0.31886373247325
 1 -7.57853940234023 -0.24386456245625 -0.00753088068807

