%nproc=3
%Mem=2GB
# td=(NStates=1) B3LYP/SVP 

TD

0 1
 6 -5.15996369446945 -1.93592983508351  0.37428230413041
 6 -4.66692701170117  2.83777022872287  1.44792117801780
 6 -9.25670558025802  3.42197299649965 -0.21701016891689
 6 -9.77426548104810 -1.25725652905291 -1.15811836523652
 7 -5.02135129742974  0.36650827372737  0.68023646064606
 6 -4.41232984908491 -0.81694841584158  0.77536097949795
 6 -3.02551223772377 -0.67231366606661  1.24678967476748
 6 -3.03070803620362  0.80920981328133  1.83065217101710
 6 -4.34856404950495  1.43898371627163  1.28070166716672
 6 -2.98568713721372  0.77909542184218  3.38203606620662
 6 -2.01223329402940 -0.83904386608661  0.17180512611261
 6 -0.55656886908691 -0.90986920352035  0.57640009270927
 6  0.38778243964396 -1.18444531743174 -0.55258681628163
 8  0.02566433403340 -1.63553592019202 -1.61430504200420
 8  1.74364456155616 -0.91431820492049 -0.24371681438144
 7 -6.97479207380738  2.70997826962696  0.51845135433543
 6 -5.87046862226223  3.38975339363936  1.03234409130913
 6 -6.12036522222222  4.68687512701270  1.11701819461946
 6 -7.46588568536854  4.91946078157816  0.61498802620262
 6 -7.89444038993900  3.64207270097010  0.28507866326633
 6 -5.10461097759776  5.78507402250225  1.47339860586059
 6 -8.21875915861586  6.12393640524052  0.46765526682668
 6 -8.90194809300930  6.58387810971097 -0.67780025882588
 7 -9.12675087568757  0.98442567556756 -0.64058652705271
 6 -9.84402826572657  2.14804730343034 -0.55266453565357
 6 -11.23369723622362  1.98390195119512 -0.91853568746875
 6 -11.37367131763176  0.62101944204420 -1.18240319501950
 6 -10.11024325002500  0.09672972127213 -0.98563180568057
 6 -12.34565306620662  3.04371287288729 -0.89691278157816
 6 -12.64190192969297 -0.12880536003600 -1.65794675437544
 6 -12.74575470617062 -0.44792805720572 -3.11385955725573
 7 -7.49824878247825 -1.23671535673567 -0.12649117761776
 6 -8.61663325082508 -1.91274000080008 -0.79697305970597
 6 -8.22272471147115 -3.32675955815582 -0.71749431673167
 6 -6.95373028212821 -3.35003183148315 -0.33229085298530
 6 -6.54051515491549 -2.04157697629763  0.04797987418742
 6 -9.08159091669167 -4.51564231373137 -1.28335733013301
 6 -5.86955390059006 -4.29205424052405  0.13629457505751
 8 -5.97447693789379 -5.51112064216422  0.06248898299830
 6 -4.66576420502050 -3.41794255585559  0.46384544664466
 6 -4.09844364226423 -3.88051214471447  1.91019754545455
 8 -4.54585965946595 -3.51548948284828  2.98530659875988
 8 -3.23547223482348 -4.89777475037504  1.73236366426643
 6 -2.92474717851785 -5.55295474157416  2.98640077967797
 6  2.75932810141014 -1.22668656625663 -1.20817484328433
 6  4.02928617541754 -0.68412891529153 -0.62989508960896
 6  5.05025728232823 -0.04256320142014 -1.14004796139614
 6  4.91385058075808  0.44634536623662 -2.58839595639564
 6  6.27436918211821  0.22279001820182 -0.43720263446345
 6  7.49602084248425 -0.49025520842084 -1.06108297519752
 6  8.83622522362236 -0.07522150725072 -0.23069141664166
 6  10.11518244394439 -0.78000232683268 -0.82032938773877
 6  10.03146918551855 -2.29666346924692 -0.81924120902090
 6  11.37260111031103 -0.22549686438644 -0.05333588928893
 6  12.70469214341434 -0.69253457065707 -0.62464698779878
 6  13.85767435683568  0.09724249804981  0.06453850935094
 6  15.24888380018002 -0.07226810831083 -0.48281183908391
 6  15.72132170397040 -1.62861172657266 -0.15876464476448
 6  16.29535027932793  0.81562607990799  0.26814583688369
 6  17.74136902570257  0.78403132083208 -0.24081798319832
 6  18.58118904320432  1.61696602550255  0.64729554575458
 6  20.13560546214621  1.83215101970197  0.08894062156216
 6  20.22828352725272  2.62897947404740 -1.18609668746875
 6  20.90041256255626  2.62355369416942  1.17418920712071
 1 -4.05095275557556  3.41856308830883  1.95279015991599
 1 -9.80249810291029  4.20136737883788 -0.22610393309331
 1 -10.60421467786779 -1.98698585408541 -1.31287076017602
 1 -2.88989131613161 -1.49404864006401  2.09178005370537
 1 -2.07252856735674  1.24954517771777  1.45571848404840
 1 -2.04320457845785  0.46497286568657  3.68629773377338
 1 -2.79533502540254  1.81397644734473  3.69135933113311
 1 -3.75924552145215  0.40465565006501  3.86906208240824
 1 -2.07245275367537 -1.64796953005301 -0.59489393659366
 1 -2.13136647604760 -0.19737354635464 -0.55558225242524
 1 -0.18006382618262  0.02020587418742  0.89408977027703
 1 -0.35593593289329 -1.70035199379938  1.43608111651165
 1 -4.21596641314131  5.90833520162016  0.84721752155215
 1 -5.66951215761576  6.71744665936594  1.30007930253025
 1 -4.93195128192819  5.66952499649965  2.49584371837184
 1 -8.18408341774177  6.81514138863886  1.36020757465747
 1 -9.22484783668367  6.15355551605160 -1.63063464956496
 1 -9.50751549814981  7.43918264576458 -0.65060528342834
 1 -12.39625398739874  3.72151133833383  0.00466265316532
 1 -12.33266711501150  3.53618757615762 -1.83436275307531
 1 -13.41129215201520  2.65213304900490 -0.84709906530653
 1 -12.84047642084208 -1.07802672937294 -1.23523827492749
 1 -13.50206723122312  0.64240839553955 -1.20698305710571
 1 -12.68159378927893  0.41328814191419 -3.73569091339134
 1 -11.85028999699970 -1.02945051865186 -3.45713466556656
 1 -13.56175292879288 -1.05181427622762 -3.43144068636864
 1 -10.32184873367337 -4.69458877867787 -0.96441874387439
 1 -9.00248422732273 -4.39022696869687 -2.56815371357136
 1 -8.29385456015602 -5.28676694369437 -1.27276523202320
 1 -3.99708155955596 -3.59264555475548 -0.24549589818982
 1 -2.23210360336034 -6.27455255095509  2.72207554165416
 1 -2.38609705610561 -4.99243272717272  3.59971441404140
 1 -3.86132914931493 -5.90484557615762  3.54191106670667
 1  2.66308021552155 -2.38950659415942 -1.51203237023702
 1  2.24954984948495 -0.62389997079708 -2.09691745894589
 1  4.26008878057806 -1.05007732203220  0.44907281028103
 1  5.10629245844584  1.62388489748975 -2.74841956175618
 1  5.71862848004800 -0.04929896739674 -3.19864126572657
 1  3.96638675687569  0.00210139693969 -2.89270009510951
 1  6.40506852305230  1.23300942594259 -0.54288447954795
 1  6.00585863056306 -0.07205709530953  0.47817552495250
 1  7.45940272517252 -1.47928465306531 -1.18380914051405
 1  7.81234077657766  0.13097511811181 -2.01358618761876
 1  9.06793228062806  1.11242008330833 -0.14239409110911
 1  8.53807687048705 -0.36025017651765  0.98092090449045
 1  9.96999966856686 -0.50861830513051 -1.91671624662466
 1  9.36142645884589 -2.45973466666667 -1.46862541034103
 1  10.87107213831383 -2.76987858765877 -1.28158876377638
 1  10.01218623872387 -2.79941162676268  0.30869259996000
 1  11.38389368676868  0.78835761586159 -0.13331474627463
 1  11.65925188868887 -0.67642287878788  0.97350728092809
 1  12.73559827042704 -1.77746931813181 -0.65098831183118
 1  12.65200335253525 -0.42660273927393 -1.78971050475047
 1  13.76377753265326  1.24819453025303 -0.07068415751575
 1  13.92700692769277 -0.26100252805281  1.23768061396140
 1  15.21476382058206 -0.00060885478548 -1.62118413171317
 1  14.95742129502950 -2.34763734553455 -0.48003733693369
 1  16.72045591909191 -2.01775581218122 -0.75782156605661
 1  15.65110038883888 -1.80329546214622  0.98464773617362
 1  15.93113338653865  1.90503707400740  0.27863832283228
 1  16.34441909870987  0.47228785208521  1.33548697129713
 1  18.12530375207521 -0.29873408390839 -0.17553742154215
 1  17.74887947354735  0.98742063036304 -1.26852528502850
 1  18.26012070157016  2.70261665756576  0.78241363106311
 1  18.83031528572857  1.13686949644965  1.65349249924993
 1  20.43231956435644  0.74344230523052 -0.13281212501250
 1  19.71772912951295  3.65245351545155 -1.08687058945895
 1  21.42164940864086  2.75778384808481 -1.68072117871787
 1  19.77902287528753  2.13706932863286 -2.34892707420742
 1  20.57594283078308  2.30854232223222  2.34596563316332
 1  22.05011786898690  2.59141916931693  0.99214337143714
 1  20.80754038343834  3.80374357395740  1.20028876677668
 1 -6.90268210131013  1.81074994819482  0.23755560166017
 1 -7.34883643204320 -0.12643281928193 -0.13532365996600

