%nproc=3
%Mem=2GB
# td=(NStates=1) B3LYP/SVP 

TD

0 1
 6 -5.21169886798680 -1.87839408150815  0.49425430133013
 6 -4.70726104510451  2.80543699539954  1.41700808670867
 6 -9.34698460816082  3.32386318551855 -0.26930539843984
 6 -9.84426248074807 -1.53566436983698 -0.94562711611161
 7 -5.21162032433243  0.50768239113911  0.78176661366137
 6 -4.58790740684068 -0.68362508350835  0.85790923432343
 6 -3.12099178567857 -0.54605103980398  1.23682867866787
 6 -3.10668563396340  0.80071896419642  1.93742284808481
 6 -4.44735392849285  1.38226804470447  1.32971656865687
 6 -3.21145971447145  0.79000651295130  3.50637850045005
 6 -2.00907297799780 -0.62525248694869  0.09170711631163
 6 -0.53906711891189 -0.81258947554755  0.52960541324132
 6  0.51357501890189 -0.92137901080108 -0.54448600620062
 8  0.15157692529253 -0.99905227182718 -1.80420403190319
 8  1.72630282738274 -1.05797257035704  0.02393995129513
 7 -7.06171076567657  2.81066833863386  0.43337284648465
 6 -5.92136371177118  3.47439185748575  1.04362521942194
 6 -6.21773495919592  4.85340177967797  1.06527302010201
 6 -7.55101419821982  4.98303713921392  0.50304683208321
 6 -8.06461740764077  3.65440393409341  0.27235739113911
 6 -5.39764028052805  5.93872938803880  1.60431169716972
 6 -8.29638692139214  6.31192520412041  0.37118561986199
 6 -9.10517841604160  6.55710543244324 -0.64349682848285
 7 -9.17417561816182  0.84562179517952 -0.44241671007101
 6 -9.80532439533953  2.09106160486049 -0.51525079427943
 6 -11.11990585708571  1.86995055605561 -0.96361019491949
 6 -11.30336428692869  0.48916625672567 -1.25070002470247
 6 -10.02886511221122 -0.09502945464546 -0.91210445294529
 6 -12.18833733463346  2.91425992759276 -1.25236832713271
 6 -12.56299403890389 -0.22305478497850 -1.61046200590059
 6 -12.59662979367937 -0.37361062546255 -3.23865203650365
 7 -7.53635259285929 -1.29505119031903 -0.23209173767377
 6 -8.56314790229023 -2.02698142494249 -0.72364572697270
 6 -8.21092353135314 -3.45348223042304 -0.75376794409441
 6 -6.87985289438944 -3.36048287658766 -0.26849447334733
 6 -6.46904800820082 -2.06250906950695  0.13757883408341
 6 -9.05981873947395 -4.56480723022302 -1.15905489988999
 6 -5.83451039623962 -4.35799083418342 -0.01579063346335
 8 -5.64924441464146 -5.54141367146715 -0.31713897979798
 6 -4.61009863846385 -3.34339510111011  0.44870393249325
 6 -4.10340413831383 -3.82219631313131  1.85310183588359
 8 -4.51988706220622 -3.34278221212121  2.92165023312331
 8 -3.18407709530953 -4.76283125602560  1.80243067096710
 6 -2.65789049284929 -5.35778522462246  2.98391053065307
 6  2.70096226482648 -1.12050594819482 -0.95479950575057
 6  4.09345259205921 -1.00225072747275 -0.45491759185919
 6  5.10055231183118 -0.13944288938894 -0.89866382298230
 6  4.89962915861586  0.68759949164916 -2.14880199699970
 6  6.42372411761176  0.05538327752775 -0.24384329852985
 6  7.62345358575858 -0.43559974287429 -1.10187705460546
 6  8.82795439653965 -0.37413139823982 -0.24898324582458
 6  10.09037996369637 -0.81982630923092 -1.04081143594359
 6  10.14118015661566 -2.31256505940594 -1.47594687958796
 6  11.29589343954395 -0.48669298399840 -0.09221977767777
 6  12.76157783198320 -0.51844716191619 -0.77114163726373
 6  13.87917650705070 -0.04045127132713  0.13455551105111
 6  15.32580149194919 -0.18115899739974 -0.30094365226523
 6  15.74521409320932 -1.73032189758976 -0.28223699199920
 6  16.22739348364837  0.65249976727673  0.46522554485449
 6  17.74672956175618  0.76237915561556 -0.07941184258426
 6  18.58558948324832  1.81674600350035  0.66104692089209
 6  20.08233013461346  1.74989279387939  0.12992471997200
 6  20.11311201010101  2.25672224832483 -1.35874395219522
 6  20.80633315461546  2.73260459925993  0.97459924812481
 1 -3.71830949124913  3.47963919591959  1.77814269516952
 1 -9.91232908600860  4.13022026412641 -0.42673399609961
 1 -10.68619287568757 -2.25930308580858 -1.29643911701170
 1 -2.81036336333633 -1.34709394459446  1.95368624432443
 1 -2.10816213071307  1.30609083228323  1.54956786898690
 1 -2.26610686868687  0.44070043844384  4.02571167516752
 1 -3.26765225712571  1.89698474817482  3.84235443064306
 1 -4.11034063096310  0.19534471897190  3.84170934713471
 1 -2.27864337273727 -1.52062679577958 -0.62236668386839
 1 -1.97499083848385  0.51483767476748 -0.48869556375638
 1  0.14811899209921 -0.10851699809981  1.26956731803180
 1 -0.59239957925793 -1.72170412901290  1.33488099649965
 1 -4.28850366686669  5.82467683578358  1.15848864866487
 1 -5.88906411281128  6.94901981668167  1.49086838143814
 1 -5.32453053985398  5.80335837983798  2.75531966596660
 1 -8.05965097449745  7.05712558705871  0.95322687658766
 1 -9.20081543344334  5.79798995949595 -1.31322290839084
 1 -9.74738948554855  7.47227595509551 -0.69568979187919
 1 -12.75592995499550  3.37292647984798 -0.13277109020902
 1 -11.88646249454946  3.86432038943894 -2.02639195599560
 1 -13.02726374917492  2.35629346504650 -1.96222057745775
 1 -12.35111748494849 -1.23739266596660 -1.09598434953495
 1 -13.45607263176318  0.22254640934093 -1.34551691049105
 1 -13.04479010891089  0.59735654875488 -3.67400474477448
 1 -11.46532150015002 -0.61558913251325 -3.65341429352935
 1 -13.24318107160716 -1.51381047584758 -3.46876441874187
 1 -9.54866141494150 -4.93819313911391 -0.07494979697970
 1 -9.71799577847785 -4.10256820282028 -1.94244114231423
 1 -8.15594076877688 -5.34684295129513 -1.54626258175818
 1 -3.56576842824282 -3.51384767496750 -0.16714806340634
 1 -1.85848624162416 -6.11796689238924  2.75670900500050
 1 -2.05892433883388 -4.64936842074207  3.62364680728073
 1 -3.46541955835584 -5.76340143174318  3.64212108770877
 1  2.83317722522252 -2.20951859535954 -1.65916708370837
 1  2.53961885638564 -0.19950753155316 -1.67110487768777
 1  4.57208998069807 -1.62311462576258  0.43452135513551
 1  5.05313714291429  1.65573808280828 -1.87799251905191
 1  5.64287090429043  0.28148411091109 -2.83495489708971
 1  3.99440955915592  0.50850203700370 -2.75281610671067
 1  6.43039105530553  1.24054017901790 -0.07692788388839
 1  6.51802984768477 -0.45958584818482  0.81566927432743
 1  7.57600438533853 -1.56073279787979 -1.56318707830783
 1  7.72745228772877  0.32093411401140 -2.12458728772877
 1  8.97113260066006  0.84406324762476  0.26008615691569
 1  8.79459252205221 -1.09569372087209  0.61094390679068
 1  10.25460812941294 -0.36450389368937 -2.10698527352735
 1  9.38434875107511 -2.76535522872287 -2.19527807560756
 1  11.14612964406441 -2.38245984578458 -2.09947055195520
 1  10.34610963106311 -3.08112979857986 -0.55838410771077
 1  11.31277657505751  0.61241002110211  0.22500108530853
 1  11.22966893039304 -1.12423766026603  0.84643457365737
 1  13.21053576417642 -1.58953052425243 -1.07496070907091
 1  12.78201635383538  0.02921284228423 -1.67795932963296
 1  13.61166232113211  1.10369007980798  0.19820273117312
 1  13.62880710771077 -0.67724415221522  1.10807765366537
 1  15.40477282148215  0.23240444654465 -1.36693870717072
 1  14.96742229512951 -2.41638422022202 -0.81064039723972
 1  16.82929680318032 -1.62601663826383 -0.79005478937894
 1  15.83123840264026 -2.12959809240924  0.74781405280528
 1  15.89802007520752  1.54340091039104  0.26064652365237
 1  16.45646030283028  0.29321994529453  1.52582600520052
 1  18.18218944064406 -0.32636684718472  0.15449558175818
 1  17.68732331793179  0.98971085938594 -1.28163659615962
 1  18.22274696419642  2.94408080398040  0.62306769646965
 1  18.48621087528753  1.61476728622862  1.65608275827583
 1  20.47680401280128  0.88052601360136  0.19887104330433
 1  19.59410676727673  3.20232850295030 -1.47743964636464
 1  21.15978322202220  2.44906297599760 -1.71288439503950
 1  19.63959893289329  1.42388801050105 -2.23396557805781
 1  20.58171340784078  2.44063553155316  1.92287332393239
 1  21.92582543974397  2.49883991139114  0.75100925802580
 1  20.68656828622862  3.87008020762076  0.66777551545155
 1 -7.26503833693369  1.75926479967997  0.23253509960996
 1 -7.56042759115912 -0.25572574857486  0.04348422082208

