%nproc=3
%Mem=2GB
# td=(NStates=1) B3LYP/SVP 

TD

0 1
 6 -5.13352105020502 -1.96788303040304  0.49086396229623
 6 -4.66573689268927  2.82361881358136  1.30299668556856
 6 -9.30303021272127  3.28665946514651 -0.17916638453845
 6 -9.88838689318932 -1.40982178557856 -0.90345289868987
 7 -5.21306046834684  0.48647026992699  0.66199463646365
 6 -4.53126174227423 -0.73408012901290  0.79536297969797
 6 -3.03913359985999 -0.54071050575057  1.19536453225323
 6 -3.05580054545455  0.95998489078908  1.72072117791779
 6 -4.42458165126513  1.42478229612961  1.19061265826583
 6 -2.74819338783878  1.17162467476748  3.22360022262226
 6 -2.15945801650165 -0.90913087478748  0.13431137673767
 6 -0.66702991519152 -0.99246746334633  0.44226667936794
 6  0.38989265066507 -1.22384925782578 -0.54727628522852
 8  0.12345411301130 -1.59205157175718 -1.72404601610161
 8  1.65334553165317 -1.01252802590259 -0.06518896159616
 7 -6.94323891849185  2.76381365316532  0.48680819001900
 6 -5.89321089648965  3.39793421172117  0.95576643354335
 6 -6.22774596029603  4.89972641214121  1.05728222102210
 6 -7.47353645044504  4.96796563206321  0.59297582498250
 6 -8.00677162306231  3.64406289999000  0.16306646204620
 6 -5.25811632813281  5.94897041214121  1.54082534853485
 6 -8.23844112681268  6.16040005160516  0.51714021532153
 6 -9.07840573877388  6.71495121702170 -0.41582406120612
 7 -9.20260846144614  0.84928216121612 -0.32486495489549
 6 -9.93438730163016  1.97751024972497 -0.41585085428543
 6 -11.23166703320332  1.91996555755576 -0.83077691159116
 6 -11.48686263676368  0.54722206230623 -1.08978393309331
 6 -10.16559878557856 -0.05064501620162 -0.73046628912891
 6 -12.13537203810381  3.10791929352935 -1.04301739203920
 6 -12.68607634713471 -0.25810829032903 -1.58787974767477
 6 -12.63405353605360 -0.53207647204720 -3.13051122242224
 7 -7.61951090869087 -1.28276996219622 -0.12910143864386
 6 -8.69859144664466 -2.05129385618562 -0.56160952335234
 6 -8.26842928192819 -3.33334021622162 -0.58066063336334
 6 -6.93945885498550 -3.35319214751475 -0.26234385828583
 6 -6.45403650705071 -2.01763458205821  0.04239931613161
 6 -9.01518427602760 -4.62616336583658 -1.08562755715572
 6 -5.77834477967797 -4.26638167326733 -0.02105115951595
 8 -5.58810830103010 -5.49931946204620 -0.07835510141014
 6 -4.48277590619062 -3.36127688928893  0.49066812891289
 6 -3.94087788568857 -3.81493558705871  1.67785431113111
 8 -4.12928800230023 -3.32405033893389  2.78068613671367
 8 -3.05177386498650 -4.80934590749075  1.47407783568357
 6 -2.62481718551855 -5.50439988608861  2.64042618221822
 6  2.64288645724572 -1.26232012961296 -1.06505053085309
 6  3.96220946774677 -0.77073757615762 -0.63418551865187
 6  4.93566582318232 -0.11608055315532 -1.26210016661666
 6  5.01351054675468  0.15056578827883 -2.91109822662266
 6  6.29110085528553  0.39217695689569 -0.60939985418542
 6  7.49784102450245 -0.43315949884988 -1.08920578747875
 6  8.72298389948995  0.02935895079508 -0.35371371887189
 6  10.09112003770377 -0.74233856045605 -0.84920227502750
 6  10.05180121872187 -2.19084288718872 -0.80926021092109
 6  11.37145099529953 -0.10853516821682 -0.10661121682168
 6  12.66920859505951 -0.44157947514751 -0.62204672777278
 6  13.76497508690869  0.20261303510351  0.23941599709971
 6  15.28035694749475 -0.11761264276428 -0.28309186708671
 6  15.64027359915992 -1.62953181858186 -0.33896266456646
 6  16.27533827812782  0.72543706100610  0.51931095339534
 6  17.65416030483048  0.72548546624662  0.04982108070807
 6  18.65987691199120  1.52029635853585  0.83467428362836
 6  20.14239614121412  1.64818262286229  0.20283201070107
 6  20.01896259515951  2.32942951905191 -1.19696777457746
 6  21.04323684498450  2.38770010881088  1.14576636483648
 1 -4.04716237653765  3.57431866386639  1.85970085098510
 1 -9.89576742984298  4.24452169426943 -0.12794411711171
 1 -10.59171342774277 -2.14733188868887 -1.32194166726673
 1 -2.92572489948995 -1.23276251145115  2.09903077877788
 1 -2.42616393089309  1.67003722692269  1.17790070227023
 1 -1.76427668566857  0.80395676407641  3.55492459645965
 1 -2.77484297619762  2.31765681538154  3.32915311051105
 1 -3.58004760166017  0.72826801130113  3.89030420662066
 1 -2.41105661406141 -1.83963869696970 -0.13976842404240
 1 -2.43980732013201 -0.27705151415141 -0.65723241744174
 1 -0.40050587038704 -0.05701184758476  1.01471183248325
 1 -0.52582292159216 -1.70750270887089  1.31901941034103
 1 -4.17304212071207  5.73707807590759  0.92287508730873
 1 -5.63798900530053  6.89469438413841  1.35456475107511
 1 -4.88164625142514  5.86664470847085  2.52276641064106
 1 -8.13407841724172  6.90956083058306  1.35980753465347
 1 -9.36667201910191  6.16202636313631 -1.58754034013401
 1 -9.64884963156316  7.74218294579458 -0.37961818471847
 1 -12.39539390139014  3.58460764796480 -0.09012682578258
 1 -11.58862271057106  3.78129208660866 -1.74011332813281
 1 -13.06837786058606  2.57229506520652 -1.51436579197920
 1 -12.66242861606161 -1.17559648634863 -1.00909566066607
 1 -13.46632365686569  0.46908106280628 -1.35019737853785
 1 -12.60698632853285  0.35276208930893 -3.70881822612261
 1 -11.64455942394240 -0.94577215081508 -3.49921887398740
 1 -13.58754550805081 -1.09203829862986 -3.38196573887389
 1 -10.16013256205621 -4.51436075587559 -0.84291659365937
 1 -9.05135911481148 -4.58927687368737 -2.32503940214021
 1 -8.60960613531353 -5.63005127212721 -0.89043699919992
 1 -3.73020487188719 -3.53390968116812 -0.47140848944894
 1 -1.84282467546755 -6.31971706740674  2.41961529562956
 1 -2.25043348974897 -4.68225170907091  3.38919336193619
 1 -3.39026204260426 -5.97329242084208  3.21795867146715
 1  2.67409131663166 -2.30113775727573 -1.22657382438244
 1  2.46347124162416 -0.92452003280328 -2.26296406360636
 1  4.29250202190219 -1.01409372367237  0.49814771777178
 1  5.47502933213321  1.25649815881588 -3.37404212401240
 1  5.66587320452045 -0.64564860236024 -3.47484888648865
 1  4.08781890009001  0.19182036883688 -3.66488731383138
 1  6.57494551075107  1.43183930893089 -0.63152334343434
 1  6.04538258295830  0.18435854625463  0.50669837723772
 1  7.24687147204720 -1.56535325992599 -0.97026778637864
 1  7.61063060556056 -0.13714169356936 -2.08525335433543
 1  9.01254674207421  1.05733457475748 -0.40278012971297
 1  8.54013707650765 -0.10159431093109  0.86294910731073
 1  10.35210787938794 -0.33457090039004 -1.85580015501550
 1  8.99090940714071 -2.56477517071707 -1.25683423122312
 1  10.82645767686769 -2.68168976877688 -1.28409901480148
 1  9.68321334143414 -2.55358704430443  0.14848657935794
 1  11.22622792019202  0.83928270837084 -0.19911132593259
 1  11.24418038153815 -0.42601783828383  1.09957988818882
 1  13.08503321392139 -1.60447201840184 -0.67677089008901
 1  12.62777092929293 -0.16506658565857 -1.65721725542554
 1  13.92026318121812  1.25851556235624  0.22816572747275
 1  13.41053528052805 -0.30765719351935  1.25305215111511
 1  15.58694103830383  0.13100430653065 -1.37633964726473
 1  14.99866541944194 -2.02089467126713 -1.03780311351135
 1  16.83176705020502 -1.66242027862786 -0.45375115901590
 1  15.40009528832883 -2.11433656625663  0.71463073447345
 1  15.86826709990999  1.69370594089409  0.50172063106311
 1  16.10816547334733  0.38777940124012  1.67926134873487
 1  17.90148136983698 -0.37945215571557 -0.06855672347235
 1  17.50800538613861  1.13073496179618 -0.97806623912391
 1  18.14145883538354  2.61550794669467  0.88602399209921
 1  18.79427168136814  0.90055586508651  1.87473462346235
 1  20.40598693109311  0.69801776277628  0.16511766796680
 1  19.51368872547255  3.41936020612061 -1.10641254365437
 1  20.97051429512952  2.43532160186019 -1.73711681828183
 1  19.39116408940894  1.78859448114811 -1.73027520902090
 1  21.17594283078308  1.71627309530953  1.94458549514951
 1  22.24987784498450  2.23278330573057  0.80211436853685
 1  20.98316794619462  3.42074527412741  1.45943468136814
 1 -7.11200303340334  1.80962983618362  0.21244309040904
 1 -8.02500404880488 -0.33233340934093  0.09446931933193

