%nproc=3
%Mem=2GB
# td=(NStates=1) B3LYP/SVP 

TD

0 1
 6 -5.21386908500850 -1.99266550865086  0.49816469236924
 6 -4.75173549254925  2.67157360906091  1.49076546244624
 6 -9.27053696339634  3.24267506670667 -0.33461192909291
 6 -9.78045610011001 -1.38428923232323 -0.95874842824282
 7 -5.16383554585459  0.39264088698870  0.85549398639864
 6 -4.58652726882688 -0.82572929392939  0.89689313271327
 6 -3.06142582908291 -0.60233666836684  1.33657865366537
 6 -3.05203016841684  0.82388128042804  1.94219332513251
 6 -4.38429762286229  1.35097491539154  1.47774137113711
 6 -2.83248181668167  1.01171868416842  3.43338120072007
 6 -2.12776484718472 -0.75534549624963  0.15984392999300
 6 -0.52284549674967 -0.58137635423542  0.54714716741674
 6  0.40070373177318 -0.82380925382538 -0.58489004660466
 8  0.01837360496050 -1.30279264586459 -1.67382099359936
 8  1.58816901400140 -0.57017379047905 -0.33617606030603
 7 -7.07193178777878  2.69111638343834  0.47177668686869
 6 -6.00148172357236  3.32567698599860  1.00694155105511
 6 -6.26812999869987  4.69353579307931  1.12999949274927
 6 -7.53772286908691  4.97187602310231  0.61367789518952
 6 -8.07158810471047  3.65891438513851  0.14929508490849
 6 -5.25443596009601  5.74560007510751  1.73611487748775
 6 -8.14094137683768  6.22760677227723  0.26062456375638
 6 -8.96680457865786  6.61189091099110 -0.70248272707271
 7 -9.26249445004500  0.94377161016102 -0.36847931633163
 6 -9.90455431833183  2.07460995969597 -0.57294656385639
 6 -11.27040090659066  1.85879944094409 -1.00763459735974
 6 -11.43284723522352  0.49179651975198 -1.19575453015302
 6 -10.00428265396540  0.00306035433543 -0.82610585308531
 6 -12.20982948384838  3.04125262686269 -1.41665475577558
 6 -12.60738847834783 -0.19340181968197 -1.68865982568257
 6 -12.57579771047105 -0.49737300170017 -3.21858002930293
 7 -7.52233119071907 -1.25986767196720 -0.13585211371137
 6 -8.52836442394239 -1.94142286908691 -0.59907326972697
 6 -8.26715915491549 -3.44772165436544 -0.58687125442544
 6 -6.88996390549055 -3.43028985728573 -0.23477110101010
 6 -6.43964506790679 -2.12350516911691  0.16301137733773
 6 -9.14123688128813 -4.54249499899990 -1.01920091449145
 6 -5.71415836103610 -4.35492052715272  0.01187213281328
 8 -5.69650914111411 -5.56167569766977 -0.25416268216822
 6 -4.58254588318832 -3.38049881148115  0.48075713781378
 6 -4.08196199409941 -3.91934602810281  1.86108263396340
 8 -4.32921799529953 -3.52891082498250  2.95398346644664
 8 -3.15928461606161 -4.90815578847885  1.69210963886389
 6 -2.58227293109311 -5.46705615171517  2.78064020362036
 6  2.66075824442444 -1.00272417001700 -1.25653967976798
 6  3.93662690949095 -0.66714721712171 -0.70405250535053
 6  4.99041129772977  0.03615467036704 -1.15889984658466
 6  4.80490968666867  0.71100183188319 -2.47579469626963
 6  6.28441018621862  0.15123286248625 -0.45735464966497
 6  7.58052929332933 -0.39939612251225 -1.06570343724372
 6  8.82697429852985 -0.20842482758276 -0.23155150265027
 6  10.09875080078008 -0.78020234683468 -0.86689404420442
 6  10.05858189678968 -2.26757055995600 -0.93414269916992
 6  11.39568341854186 -0.25585990069007  0.01460090439044
 6  12.69160083428343 -0.56745206240624 -0.65193971707171
 6  13.90043863326333 -0.00489771597160  0.09235129062906
 6  15.34158307010701 -0.11653253475348 -0.44560811871187
 6  15.65178475027503 -1.59130799619962 -0.65301406970697
 6  16.26287703200320  0.57066158345835  0.57342636493649
 6  17.74410929972997  0.76783970167017 -0.04285818721872
 6  18.53798472277228  1.76656098499850  0.65275609180918
 6  20.05347724932493  1.60999880448045  0.29393112061206
 6  20.30646134503450  2.00563713981398 -1.28781685948595
 6  21.00038255955596  2.59998133693369  1.11882367056706
 1 -4.04356201650165  3.44423565556556  1.94841972287229
 1 -10.07519537263726  4.09805704780478 -0.37248857155716
 1 -10.53814807120712 -1.99496665216522 -1.36468594169417
 1 -2.68582090909091 -1.30747998319832  2.26575745144514
 1 -2.19878119261926  1.31968219141914  1.33457636983698
 1 -2.01461171917192  0.57455382378238  4.01289039303930
 1 -2.48574406630663  2.16892194189419  3.85116531173117
 1 -3.75207480438044  0.51283646814681  4.00573574977498
 1 -2.27089259765977 -1.84293902700270 -0.21881632883288
 1 -2.27806114551455 -0.11269507850785 -0.62749944414441
 1 -0.39468528832883  0.53604745834583  0.87392775407541
 1 -0.48322866216622 -1.28266022462246  1.23055056345635
 1 -4.15756057255726  5.43139750785079  1.27791059085909
 1 -5.63258846524652  6.84323923862386  1.28643793839384
 1 -5.43789187598760  5.71396944094409  2.96890102410241
 1 -7.81206621602160  7.09108898339834  0.87183873777378
 1 -9.34662001390139  5.86375653615361 -1.59060064616462
 1 -9.45845059165917  7.67026575407541 -0.73011323422342
 1 -12.25498986098610  3.71144033123312 -0.50654846794679
 1 -11.59211305960596  3.57833179057906 -2.34485380218022
 1 -13.22416343914391  2.60349818551855 -1.67219157455746
 1 -12.83104547774778 -1.25531445814581 -1.26301105220522
 1 -13.54536156065607  0.52075623032303 -1.50632299109911
 1 -12.53625925582558  0.36815362846285 -3.88772611691169
 1 -11.61556652465246 -1.02903047664766 -3.44442339443944
 1 -13.48699545304530 -1.03371246604660 -3.53419096139614
 1 -9.82296884568457 -4.84988430823082 -0.33198550055005
 1 -9.65180915981598 -4.46168411441144 -1.94879177737774
 1 -8.32794796949695 -5.37941620862086 -1.14651260676068
 1 -3.54781663306331 -3.37082337253725 -0.17554890349035
 1 -1.71648204120412 -6.14416951265127  2.59900323442344
 1 -2.14790323672367 -4.80134361826183  3.38930337293729
 1 -3.35644866126613 -5.79054414601460  3.38533540914091
 1  2.51216512401240 -2.07615525902590 -1.29797096409641
 1  2.55525041954195 -0.58657623842384 -2.39758752595259
 1  4.25589836153615 -1.25795811011101  0.31940984398440
 1  5.35751758095810  1.60736324532453 -2.47356207600760
 1  5.42272889008901  0.22618858135814 -3.24359576117612
 1  3.76057617581758  0.85272645944594 -2.65071589668967
 1  6.45709372557256  1.30608673367337 -0.11027121822182
 1  5.92967101180118 -0.24764465406541  0.69053676107611
 1  7.44139092399240 -1.42730945554555 -1.28792955255526
 1  7.79684922742274  0.08060008060806 -2.11521635063506
 1  9.00577606500650  0.79122796409641 -0.07707755945595
 1  8.62969603240324 -0.80260441194119  0.74039685208521
 1  10.26152882148215 -0.47934537783778 -1.97232180718072
 1  9.28129844604461 -2.86468516171617 -1.30354890269027
 1  10.90152518361836 -2.80139173897390 -1.36903750865087
 1  10.23680870097010 -2.81940362596260  0.09073080378038
 1  11.26373167056706  1.01795057515752  0.18077666286629
 1  11.29601556505651 -0.64601983848385  0.93147307750775
 1  13.03012772337234 -1.71785335653565 -0.74953816681668
 1  12.83458161036104 -0.23827390639064 -1.69268080178018
 1  13.59083023792379  1.14102381318132  0.29592250315031
 1  13.76482070907091 -0.31074750255025  1.19310615651565
 1  15.62166451065107  0.40025123122312 -1.65647766106611
 1  14.84755030793079 -2.08588116991699 -1.20989032223222
 1  16.42684655815582 -1.68735277187719 -1.57208299219922
 1  15.87218249704970 -2.10436556915692  0.39462873427343
 1  15.82101237443744  1.69678624892489  0.73291375037504
 1  16.28735339213921  0.15337596089609  1.52106552915292
 1  18.24499572127213 -0.32061627212721  0.14117424962496
 1  17.81110569616962  0.91847373567357 -1.31491992449245
 1  18.33837852735273  2.92664906080608  0.33277866756676
 1  18.52182443664367  1.44044985448545  1.86690384038404
 1  20.36263259565957  0.46579454045405  0.38726988318832
 1  19.82627998459846  2.96971524162416 -1.45125702810281
 1  21.35809305300530  2.08055612531253 -1.56663977057706
 1  19.75915088808881  1.22910853255325 -1.97945012651265
 1  20.94622985948595  2.36403787178718  2.23655469206921
 1  22.14019687688769  2.43874390179018  0.74700885798580
 1  20.83713334273427  3.72931613121312  0.96153489138914
 1 -7.15076690979098  1.79909878307831  0.25310715681568
 1 -7.65524707310731 -0.22798297429743 -0.23696382398240

