%nproc=3
%Mem=2GB
# td=(NStates=1) B3LYP/SVP 

TD

0 1
 6 -5.09005670377038 -1.94191043314331  0.51352622852285
 6 -4.84567488648865  2.74690114181418  1.34590097599760
 6 -9.40710061976197  3.28198899809981 -0.17833630153015
 6 -9.83164121862186 -1.51875267866787 -0.94735728912891
 7 -5.24639380168017  0.48216983988399  0.89707814481448
 6 -4.50099871597160 -0.73236995799580  0.88594203760376
 6 -3.03557324382438 -0.50089652435244  1.21813680948095
 6 -3.05437040244024  0.95526441874187  1.75910501630163
 6 -4.43151234433443  1.45347516541654  1.23903750075008
 6 -2.91868043654365  1.00916842914291  3.23619148174817
 6 -2.07351942264226 -0.70218017971797  0.02208015361536
 6 -0.70847405960596 -0.63943215981598  0.52836528922892
 6  0.31057471887189 -0.81812868576858 -0.70997255485549
 8  0.00941270887089 -1.13706607320732 -1.81478509000900
 8  1.54736493359336 -0.68099487258726 -0.28573101580158
 7 -7.12993758835884  2.74842211401140  0.57812732193219
 6 -6.01121269666967  3.35591000930093  1.02864372127213
 6 -6.33044623032303  4.77259369886989  1.04874136693669
 6 -7.58433753055306  4.97905674117412  0.49383591099110
 6 -8.12279322522252  3.67699619331933  0.19180933633363
 6 -5.42726324282428  5.82535805090509  1.53542480848085
 6 -8.31094837753775  6.14749876147615  0.34812331363136
 6 -9.14765266346635  6.61810153205321 -0.66267874667467
 7 -9.23050125072507  0.85078231123112 -0.41989445784578
 6 -9.85388925182518  1.95369786848685 -0.56079534873487
 6 -11.28622248874888  1.81115467646765 -1.00316415031503
 6 -11.42110606110611  0.43515085518552 -1.12505746044604
 6 -10.10376260196020 -0.13108306000600 -0.89865310781078
 6 -12.32978147904791  2.83396189778978 -1.18147123742374
 6 -12.60114785428543 -0.38882136163616 -1.63346430613061
 6 -12.44587471817182 -0.51193445784578 -3.17207537883788
 7 -7.48860781838184 -1.30170185538554 -0.15411393989399
 6 -8.59534112161216 -2.02927165396540 -0.52060542294229
 6 -8.19255169416942 -3.46269315151515 -0.46310887818782
 6 -6.79103401250125 -3.39703653195320 -0.10223784768477
 6 -6.39606070947095 -2.12139495809581  0.07392246844684
 6 -8.98359111671167 -4.70531128062806 -0.80982997739774
 6 -5.69121606680668 -4.23998903400340  0.16832777837784
 8 -5.61340083028303 -5.53091262136214  0.31619435353535
 6 -4.52723035163516 -3.39241000260026  0.52351141324132
 6 -3.85517931583158 -3.75468956245625  1.79508603430343
 8 -4.11560663416342 -3.39613754765477  2.89106717481748
 8 -2.86009469706971 -4.72918789168917  1.61168159605961
 6 -2.40536524032403 -5.36449589568957  2.79950208980898
 6  2.61304347294729 -0.99073297089709 -1.27112113791379
 6  3.96559980678068 -0.58724922732273 -0.81098319841984
 6  4.93919617621762  0.12496355125513 -1.29334329092909
 6  4.90246944264426  0.74663539523952 -2.70706782358236
 6  6.20579232443244  0.37932567176718 -0.52279119331933
 6  7.50591183158316 -0.24287046994699 -1.11750861776178
 6  8.77683928502850 -0.09763374847485 -0.27532588008801
 6  10.07854878057806 -0.53203753035303 -0.90880823562356
 6  9.99576561516152 -2.12684648754876 -1.40754003890389
 6  11.30220407060706 -0.33123743844384 -0.01370192589259
 6  12.70240191439144 -0.55556087328733 -0.74646917001700
 6  13.81564015341534 -0.02967019321932  0.00233228872887
 6  15.22946185798580 -0.20735161666167 -0.46801035893589
 6  15.66184575637564 -1.62399126452645 -0.82142091039104
 6  16.33923466776678  0.43474799209921  0.43055207750775
 6  17.74542943174318  0.70929384708471 -0.13213711511151
 6  18.74062498679868  1.28365269416942  0.93059387558756
 6  20.20408230983098  1.39068687328733  0.46402813031303
 6  20.30411111001100  2.17712428852885 -0.81188926672667
 6  21.01112363366337  2.02531387018702  1.61771355955596
 1 -4.29985764606461  3.41563279527953  1.76053093399340
 1 -10.23421127422742  4.09834707680768 -0.29914123682368
 1 -10.54473873027303 -2.12709986548655 -1.13861333443344
 1 -2.72837516451645 -1.07808704390439  2.02233310901090
 1 -2.19466078057806  1.57512773597360  1.35566847904790
 1 -1.75339559755976  0.79425579397940  3.59255835983598
 1 -3.15841133303330  1.88870392009201  3.83377357255726
 1 -3.55438503540354  0.22792797729773  3.63111828802880
 1 -2.36611211961196 -1.77037177027703 -0.40845529272927
 1 -2.26413975337534  0.13199939093909 -0.71733842804280
 1 -0.45201102090209  0.36788064166417  0.94978533983398
 1 -0.49394973427343 -1.36819877847785  1.31321883028303
 1 -4.51862667916792  5.94696906500650  0.82779557935794
 1 -6.00502570897090  6.71856677137714  1.52236153075307
 1 -5.01997008380838  5.66257430143014  2.50199433343334
 1 -8.09691470087009  6.88092796729673  1.17138869276928
 1 -9.24172952485249  5.84353451395140 -1.45901748784879
 1 -9.84728947554755  7.49094782228223 -0.59605982888289
 1 -12.57526188818882  3.22896208340834 -0.07000481358136
 1 -11.98945279357936  3.58224218161816 -1.94430374717472
 1 -13.17248827162716  2.31637947364736 -1.53206756215622
 1 -12.59235160836084 -1.53091201790179 -1.18512326342634
 1 -13.51719874437444  0.01112526722672 -1.51680403920392
 1 -12.39909553945395  0.44012082518252 -3.61797914221422
 1 -11.49627459545955 -1.07302487608761 -3.32103105520552
 1 -13.32381913541354 -1.11860095489549 -3.58697623992399
 1 -9.82599914871487 -4.57753707350735 -0.10585288728873
 1 -9.33039701860186 -4.81055900190019 -1.93138003620362
 1 -8.42005718041804 -5.71992025902590 -0.69830778627863
 1 -4.02289414081408 -3.39913620382038 -0.44531588018802
 1 -1.76234662766277 -6.20088518421842  2.38936227032703
 1 -1.92174062046205 -4.64011749564956  3.58773321592159
 1 -3.21913492989299 -5.82818791039104  3.21976885248525
 1  2.52038594609461 -2.08602624612461 -1.46945811281128
 1  2.25189008350835 -0.58097567836784 -2.26214398159816
 1  4.16948972067207 -1.02465477977798  0.19160706370637
 1  5.32508433763376  1.78725123412341 -2.78570329012901
 1  5.48210482768277  0.20370633313331 -3.40677207880788
 1  3.78056817501750  1.01558274507451 -2.99617044214421
 1  6.53819183538354  1.45166129112911 -0.47674786588659
 1  6.06509455415542 -0.10357024662466  0.58810651805181
 1  7.19705649054905 -1.11842856745675 -1.72004276387639
 1  7.68238778127813  0.28436045664566 -2.00601543054305
 1  8.77299278667867  0.83636247754776 -0.10524037573757
 1  8.62085514831483 -0.54350850235023  0.73071588398840
 1  10.15830849944994  0.17555011171117 -1.86731130613061
 1  9.09479979617962 -2.16491518471847 -1.98475702350235
 1  10.91856688778878 -2.28807040684068 -2.00088069296930
 1  10.01905692579258 -2.87125881148115 -0.40101837113711
 1  11.21288658605861  0.78866764686469  0.30443902910291
 1  11.31997796129613 -1.14817005350535  0.93570350055005
 1  12.85768047864787 -1.64399597079708 -1.02033524652465
 1  12.60860901310131 -0.15223530253025 -1.64102563626363
 1  13.82042319721972  1.07135684648465  0.17470038093809
 1  13.72374660166017 -0.37815424322432  1.03329017491749
 1  15.27610995519552  0.40245145124512 -1.39442145544554
 1  14.85872142504250 -2.23835641744174 -1.36455578877888
 1  16.67733160666067 -1.71914595119512 -1.37414319821982
 1  15.77685296409641 -2.33121825442544  0.04277354875488
 1  16.19691996519652  1.55967253755376  0.81354181318132
 1  16.27388204500450 -0.05194457115712  1.46290971357136
 1  18.21224244594459 -0.43157736823682 -0.50469033683368
 1  17.51384597019702  1.44572646094609 -0.98023645614561
 1  18.44378906840684  2.50318671457146  1.28202359205921
 1  18.57959021322132  0.77631344084409  1.83326047604761
 1  20.50406673907391  0.42276023702370  0.19492064826483
 1  19.76557391399140  3.18547681778178 -0.77087899029903
 1  21.26728397209721  2.30243831353135 -1.18217132373237
 1  19.71946691969197  1.81919754145415 -1.62544472597260
 1  20.96401163766377  1.36685815381538  2.49521055765577
 1  22.15499835703570  2.31104113151315  1.27302145924592
 1  20.45409503890389  2.92136533613361  2.07487622552255
 1 -7.14191602470247  1.64395326852685  0.63675552165217
 1 -7.56667821622162 -0.24254443044304 -0.21943207080708

