%nproc=3
%Mem=2GB
# td=(NStates=1) B3LYP/SVP 

TD

0 1
 6 -5.15897359545955 -1.89559580168017  0.58563343924392
 6 -4.75718603760376  2.84908135983598  1.43968035393539
 6 -9.31615152485248  3.20461126032603 -0.26793526142614
 6 -9.74304235873587 -1.52456325972597 -1.14734728812881
 7 -5.17579674197420  0.46718834173417  0.87473591059106
 6 -4.50341895799580 -0.68787550855086  0.85856930033003
 6 -3.01702138863886 -0.43174960966097  1.32573756955696
 6 -3.12102706810681  0.93906279857986  1.93378248404841
 6 -4.40283947704770  1.47328714661466  1.38338193519352
 6 -2.96161472997300  1.12431994429443  3.41163902650265
 6 -2.03176524722472 -0.73656361806181  0.28022596819682
 6 -0.55744895709571 -0.71323954055406  0.66730918361836
 6  0.43405706710671 -0.86957383028303 -0.38721027862786
 8  0.12313408100810 -1.20252261886189 -1.63473708520852
 8  1.71912210931093 -0.73307008010801 -0.09440188288829
 7 -7.03334792939294  2.74128139993999  0.52120162936294
 6 -5.98409998539854  3.40836525482548  1.08967982488249
 6 -6.38152133783378  4.76787322682268  1.09625611841184
 6 -7.68008710551055  4.95358419391939  0.67268379577958
 6 -8.08215916181618  3.54682317601760  0.22151230663066
 6 -5.54770528702870  5.90913642874287  1.63150441644164
 6 -8.41607889058906  6.11528554015401  0.47440594189419
 6 -9.35715361356135  6.42645236713671 -0.47705018381838
 7 -9.15704390499050  0.78782601560156 -0.73820628902890
 6 -9.88073193609361  1.99978247694770 -0.63517278647865
 6 -11.20537440394039  1.83558711971197 -1.21208504240424
 6 -11.28878282878288  0.41977931803180 -1.38239319401940
 6 -10.06113833953395 -0.22495244694469 -0.98561180368037
 6 -12.28838733963396  2.85499400100010 -1.30219330963096
 6 -12.52288002750275 -0.21897437693769 -2.01869282898290
 6 -12.45157528822882 -0.44191745614561 -3.47133530483048
 7 -7.49719867746775 -1.27243892909291 -0.24971349984999
 6 -8.49574116161616 -2.13502222902290 -0.73654701710171
 6 -8.12260469946995 -3.56059294149415 -0.72496506380638
 6 -6.78537344644464 -3.39709653795380 -0.17286491039104
 6 -6.46969807320732 -2.07205002360236  0.10883595979598
 6 -8.92909566716672 -4.72161291079108 -1.13856285068507
 6 -5.63142008720872 -4.23064809990999  0.09739068466847
 8 -5.57782727292729 -5.44946447654765 -0.06243350925093
 6 -4.44594222282228 -3.28551931353135  0.61591065316532
 6 -3.93556735463546 -3.78748284178418  1.89177570327033
 8 -4.18739381288129 -3.22176010991099  3.00361842994299
 8 -3.00404909250925 -4.66974194709471  1.65338576647665
 6 -2.41107581138114 -5.31292073817382  2.88304044364436
 6  2.60767293589359 -0.98187208480848 -1.11660568636864
 6  4.02720596739674 -0.81429193159316 -0.46816891699170
 6  4.92875513211321  0.25719677457746 -0.81087504410441
 6  4.76089528522852  1.06274700640064 -2.03945106190619
 6  6.23565531073107  0.30236797599760 -0.09226814101410
 6  7.42421366176618 -0.17181336423642 -0.97217408430843
 6  8.75683728482848 -0.21559554465447 -0.21221956945695
 6  10.01068199389939 -0.67430175677568 -0.88794614941494
 6  10.08142418101810 -2.18235203810381 -1.33046233113311
 6  11.28770262046205 -0.36633094779478 -0.18290884658466
 6  12.68174984918492 -0.66982229942994 -0.82317684078408
 6  13.82878146754675 -0.11558878507851  0.13993604910491
 6  15.26445535733573 -0.34959584108411 -0.44374793269327
 6  15.63936350815081 -1.80741960736074 -0.47055582388239
 6  16.28686943124313  0.48915343264326  0.36478550085008
 6  17.66213110191019  0.52569548724872 -0.29871377277728
 6  18.53303422772277  1.47091142004200  0.55498631483148
 6  20.06036793839384  1.56146395099510  0.10978270577058
 6  20.11814251315132  2.22934951105111 -1.37512559035904
 6  20.99800232153216  2.31325266406641  1.10242203040304
 1 -3.99896755705571  3.39132036403640  1.95227010791079
 1 -10.25057291039104  3.93832107420742 -0.03094441714171
 1 -10.53854811121112 -2.20296745224522 -1.52085155825583
 1 -2.82336466346635 -1.17406664186419  2.07483835953595
 1 -2.28723003750375  1.40244046724672  1.44259717191719
 1 -2.01018127612761  0.66070243864386  3.52729183318332
 1 -2.89899539143914  2.05514056375638  3.82900309550955
 1 -3.65427502440244  0.39603478797880  3.85313048924892
 1 -2.21376688508851 -1.77829256235624 -0.14222867006701
 1 -1.99320265966597  0.03293948494849 -0.79442613681368
 1 -0.41266708650865  0.34027788138814  1.13601396269627
 1 -0.39249958925893 -1.51104306290629  1.51606911531153
 1 -4.67554237073707  6.21443581168117  0.92865566536654
 1 -6.28113331973197  6.72779769446945  1.79315861046105
 1 -4.90227831463146  5.50607865186519  2.49980411441144
 1 -8.43297830723072  6.78462833733373  1.38616016991699
 1 -9.67221257315732  5.82079223972397 -1.32986457255726
 1 -9.92725747234723  7.46090481798180 -0.33571379427943
 1 -12.39445380738074  3.33103229042904 -0.36353416651665
 1 -11.78896274457446  3.61132508990899 -1.90398971577158
 1 -12.95328635143514  2.31932976867687 -1.66905126052605
 1 -12.67415978917892 -1.34538346504650 -1.44688944004400
 1 -13.44489151365137  0.30571472617262 -1.67845020382038
 1 -12.48115374527453  0.61219803290329 -4.03851119541954
 1 -11.53380834883488 -0.61495906950695 -3.85187413951395
 1 -13.19535628912891 -1.12696179097910 -3.82326986928693
 1 -9.66386293509351 -4.88698801860186 -0.28054035603560
 1 -9.30938491739174 -4.43584153015301 -2.15678257645765
 1 -8.26370154485449 -5.54980324732473 -1.25293324882488
 1 -3.78822067346735 -3.33600989118912 -0.17469881848185
 1 -1.68806919991999 -6.10533562926293  2.73787712181218
 1 -1.86114456085609 -4.40648413231323  3.37464190679068
 1 -3.29198221462146 -5.64602969456946  3.28502537813781
 1  2.43909781728173 -2.09264690819082 -1.36891805880588
 1  2.44348924342434 -0.43348092889289 -1.95717348454845
 1  4.34442721442144 -1.42900521482148  0.39296719971997
 1  4.84816664586459  2.09608211721172 -1.69810453025303
 1  5.81431804900490  0.80191615411541 -2.64716611821182
 1  3.72850296849685  0.87671885868587 -2.67581840694069
 1  6.22289030523052  1.47279340434043  0.09339914881488
 1  6.09364740944094 -0.39651954155416  0.89173688108811
 1  7.01739852475248 -1.32860958555856 -1.24417517711771
 1  7.30595013751375  0.21407342794279 -2.07722255125513
 1  9.08655414281428  0.82386122742274  0.14404455275528
 1  8.59891295409541 -0.87737188868887  0.72276508890889
 1  10.10477314591459 -0.03982142544254 -1.82931750675068
 1  9.23881419761976 -2.25280397359736 -1.90980952875288
 1  11.01059609070907 -2.46857845764577 -1.99705030993099
 1  9.92414743484349 -2.80996268186819 -0.52093036233623
 1  11.42134743214321  0.76559533963396  0.07374595979598
 1  11.37530349384939 -0.91756699319932  0.86254618481848
 1  12.94892960356036 -1.76579815101510 -0.73888710171017
 1  12.58294644684468 -0.36093617261726 -1.96306784048405
 1  13.52086324122412  0.71073078387839  0.34728763966397
 1  13.66931115811581 -0.87258368616862  1.09544639053905
 1  15.33377572177218 -0.03774256815682 -1.59878189148915
 1  14.83467902080208 -2.54144672647265 -1.16868620182018
 1  16.70813468696869 -1.85139917651765 -0.80437622152215
 1  15.50739601840184 -2.14696982958296  0.67097636903690
 1  15.73961423462346  1.36798336863686  0.44561502050205
 1  16.63515817261726 -0.04122349904990  1.27538096069607
 1  17.94550577227723 -0.39525373587359 -0.16367623542354
 1  17.58724330993099  0.94285617391739 -1.33783221572157
 1  18.02567725722572  2.50154655055506  0.60578596829683
 1  18.34714696889689  1.27598340784078  1.55660281028103
 1  20.42473880628063  0.56466442744274  0.00844200040004
 1  19.64257161376138  3.00792906300630 -1.50215211761176
 1  21.17398464216422  2.26873494319432 -1.73789689628963
 1  19.35581055405541  1.53222884458446 -1.89650183168317
 1  21.02590782728273  1.70261172917292  1.92669370597060
 1  22.08441129832983  2.29521954935494  0.72367652475247
 1  20.60331996139614  3.32668586818682  1.20500923882388
 1 -6.93885571867187  1.67522639583958  0.25859770587059
 1 -7.63607515591559 -0.20187036303630 -0.18563869146915

