%nproc=3
%Mem=2GB
# td=(NStates=1) B3LYP/SVP 

TD

0 1
 6 -5.21312901100110 -1.86920316241624  0.31123599949995
 6 -4.73599391839184  2.75391184288429  1.37207359325933
 6 -9.35791570127013  3.41327212641264 -0.25350381828183
 6 -9.84446250075007 -1.42027283068307 -1.08930148354835
 7 -5.23134229652965  0.39161078397840  0.88247668466847
 6 -4.54182279837984 -0.68392511351135  0.76165960936094
 6 -3.09289897639764 -0.56167260196020  1.26819181498150
 6 -3.08701366676668  0.86568546084608  1.83761286708671
 6 -4.41341053415341  1.34919473737374  1.43582717971797
 6 -2.97445601410141  0.78624613691369  3.41816967956796
 6 -1.95011708240824 -0.89477943964396  0.25978392399240
 6 -0.52236544874487 -0.82009022562256  0.69475192789279
 6  0.40244390579058 -1.15069194209421 -0.47309886748675
 8  0.14733650125012 -1.46266863346335 -1.63659727122712
 8  1.63971416851685 -0.98924569766977 -0.08736117881788
 7 -7.05338993359336  2.80386765856586  0.49504901410141
 6 -5.89004057945795  3.40862528082808  0.86366722362236
 6 -6.09068225392539  4.87608404790479  0.91057755055506
 6 -7.44536363316332  5.01553038853885  0.62809933733373
 6 -8.03070401630163  3.69847834153415  0.18013816921692
 6 -5.16859737623762  5.85413092819282  1.55292655865587
 6 -8.14414169686969  6.35078909050905  0.45285378667867
 6 -9.11027892609261  6.55355507740774 -0.44758723752375
 7 -9.17824602520252  0.98148538153815 -0.46806927532753
 6 -9.84430829372937  2.15070756945695 -0.49107837703770
 6 -11.30101396789679  1.90725428642864 -0.94924875877588
 6 -11.45585953645364  0.58707604770477 -1.10760571527153
 6 -10.00972319801980  0.02936298459846 -0.87139038153815
 6 -12.31892039293929  2.98695719731973 -1.12058514881488
 6 -12.56814455395540 -0.08510098959896 -1.66360732043204
 6 -12.54805493619362 -0.06713997839784 -3.18437660896090
 7 -7.50549950755075 -1.23807549274927 -0.40435896439644
 6 -8.63945553305331 -2.00925965276528 -0.73644700710071
 6 -8.21521396039604 -3.41924880708071 -0.70831339863986
 6 -6.85253016211621 -3.36854368266827 -0.29526715061506
 6 -6.48473957735774 -2.00365318391839 -0.07470239403940
 6 -9.03711646924693 -4.65956670617062 -1.05121411581158
 6 -5.71982892809281 -4.24195923102310 -0.09588864326433
 8 -5.54980447064706 -5.47052658275828 -0.26007327322732
 6 -4.56172380098010 -3.33649441104110  0.43058212031203
 6 -4.07714151205121 -3.93229732323232  1.76421294699470
 8 -4.41412648614861 -3.50701863576358  2.82800086818682
 8 -3.15534422202220 -4.91967694059406  1.51110153805381
 6 -2.83698840264026 -5.55633507960796  2.71337347694769
 6  2.64026619521952 -1.26800069766977 -1.02346637243724
 6  4.01324457125713 -0.83256375877588 -0.41845394549455
 6  4.95196745334533 -0.20016896199620 -1.08294225082508
 6  4.87670686638664  0.26587731943194 -2.44348146494649
 6  6.30427217241724  0.07791553075308 -0.31040995519552
 6  7.58262950335033 -0.52671885478548 -0.86031289818982
 6  8.78482008310831 -0.15820980608061 -0.10348869636964
 6  10.09391031673167 -0.82554688128813 -0.67081443624362
 6  10.13203924252425 -2.31727553045305 -0.61607089198920
 6  11.30496434663466 -0.31531584628463  0.01704114841484
 6  12.81345301950195 -0.60249556675668 -0.47476199929993
 6  13.90901949134914 -0.00740796699670  0.36626868236824
 6  15.29558847064706 -0.27372825432543 -0.24053761166117
 6  15.72885245704570 -1.71042990839084 -0.25905467376738
 6  16.30553129742975  0.72835735303530  0.43028205050505
 6  17.67110199899990  0.82114503220322 -0.26470037143714
 6  18.56411733603360  1.85286961586159  0.43013382958296
 6  20.06099800140014  1.95455325992599 -0.07738601110111
 6  20.11130182908291  2.21726830293029 -1.59908798659866
 6  20.80408292959296  3.01590292909291  0.69304109230923
 1 -3.70819848014801  3.41791302330233  1.75087996889689
 1 -10.01511936503650  4.20145738783878 -0.23599492219222
 1 -10.83320757715772 -1.83908106360636 -1.40133960706071
 1 -2.87089941694169 -1.41289052425243  1.89008988468847
 1 -2.15965728022802  1.50807103030303  1.67251016321632
 1 -2.04604486248625  0.44249061746175  3.79193829782978
 1 -3.00277576947695  1.82698774847485  3.83542373757376
 1 -3.69654925182518  0.03879906440644  3.98253342954295
 1 -1.89044455285529 -2.04109884298430 -0.10475492269227
 1 -2.15317865726573 -0.30986479547955 -0.65999269346935
 1 -0.39277509730973  0.14886874047405  1.20285064636464
 1 -0.48787912721272 -1.57815977457746  1.34972248064806
 1 -4.07049186568657  6.01270563866387  1.02691549134914
 1 -5.61732693909391  6.84551946664666  1.44807410201020
 1 -4.84572265906591  5.63199124312431  2.58138227222722
 1 -7.80541555095509  7.08189806430643  1.11438299219922
 1 -9.69645499739974  5.87425758625863 -1.08901048714871
 1 -9.52748749534953  7.60535926342634 -0.57578780168017
 1 -12.46327068906891  3.54893408060806 -0.21249906300630
 1 -12.00022387068707  3.84840879827983 -1.80482979977998
 1 -13.21954297709771  2.69147698339834 -1.42504686008601
 1 -12.59713208640864 -1.17383631033103 -1.37590234133413
 1 -13.44923194769477  0.38395254995500 -1.27022938173817
 1 -12.26502213211321  1.04484129722972 -3.70088743304330
 1 -11.54612958095810 -0.37700527412741 -3.48825777787779
 1 -13.24162091559156 -0.61293038783878 -3.91726926922692
 1 -9.98955550435044 -4.76486580638064 -0.44546684868487
 1 -9.35747972687269 -4.62068001400140 -2.08336523472347
 1 -8.43359853455345 -5.63578184518452 -1.00329828532853
 1 -3.72880473187319 -3.39854614481448 -0.35798714731473
 1 -2.23869426242624 -6.47408250395040  2.49375270937094
 1 -2.26307475387539 -4.81337482138214  3.40745518811881
 1 -3.67465048144814 -5.94687977957796  3.42722959855986
 1  2.52099600710071 -2.30548819231923 -1.33619478647865
 1  2.36583147764777 -0.73864144494449 -1.90965873307331
 1  4.11091386308631 -1.17010932523252  0.56575447844784
 1  5.31144297349735  1.35744825382538 -2.38501322112211
 1  5.60948756595660 -0.28177221472147 -3.26754815641564
 1  3.84965508370837  0.05758694549455 -2.82492331743174
 1  6.35237325352535  1.22146827182718 -0.37688787988799
 1  6.03825186988699 -0.12448233783378  0.70344805220522
 1  7.60066685158516 -1.75038176277628 -0.89124988458846
 1  7.51844138663866 -0.17596557595760 -1.98543337233723
 1  8.58460394779478  0.96648548984898  0.01305145344534
 1  8.69310237303730 -0.67117126862686  0.83792660506051
 1  10.35021769036904 -0.59974741804180 -1.82459703470347
 1  9.32406272247225 -2.77154584778478 -1.13002154995500
 1  10.97077210831083 -2.83676527632763 -1.15121572647265
 1  9.94206922702270 -2.83049473507351  0.31492322302230
 1  11.20436573397340  0.92394117421742  0.16387497269727
 1  11.22925888938894 -0.56187142364236  1.11640157035704
 1  12.85754046464647 -1.72765433663366 -0.36557977097710
 1  12.81930008220822 -0.52098217721772 -1.57002853655366
 1  13.78410956585659  1.16199591039104  0.41105401630163
 1  13.81298552555256 -0.48967539533953  1.27050389628963
 1  15.31141348554855  0.05783698979898 -1.16709872317232
 1  14.82431798469847 -2.24809739153915 -0.59407874107411
 1  16.62354622812281 -1.57490152675267 -0.91205698959896
 1  15.84715999479948 -1.85297042964296  0.77590686208621
 1  15.89285955915592  1.75533210351035  0.57364782378238
 1  16.60546520332033  0.38547917121712  1.51763518611861
 1  18.14067528922892 -0.07167137763776 -0.02282215001500
 1  17.49584417001700  0.86716860516052 -1.48279671217122
 1  18.34645933543354  2.90518691459146  0.29913530323032
 1  18.54706696089609  1.54648045754575  1.47702485248525
 1  20.63384971737174  0.91075903690369 -0.08765760956096
 1  19.53066042264226  3.30187845794579 -1.70756265866587
 1  21.16878412211221  2.47489555925593 -1.87516062266227
 1  19.64872984598460  1.40143576527653 -2.10867304880488
 1  21.12933817031703  3.05745721372137  1.83806484308431
 1  21.86410926812681  3.18291831923192  0.22660681778178
 1  20.42001163056306  4.14460766036604  0.64565330323032
 1 -7.21751358445845  1.76500537373737  0.51920376647665
 1 -7.49212076047605 -0.22124230023002 -0.44165429302930

