%nproc=3
%Mem=2GB
# td=(NStates=1) B3LYP/SVP 

TD

0 1
 6 -5.09693739183918 -1.92742898499850  0.47123199909991
 6 -4.69390970997100  2.78592504420442  1.31838822472247
 6 -9.29557946764676  3.37802860206021 -0.26523499139914
 6 -9.89103715821582 -1.40867167056706 -0.79223177657766
 7 -5.09927909020902  0.45705732863286  0.70069850685069
 6 -4.47065568166817 -0.68235495649565  0.73165660906091
 6 -3.01537122362236 -0.53641007570757  1.20118511431143
 6 -3.09367433283328  0.86765565786579  1.81475058085809
 6 -4.31412060516052  1.45746556445645  1.20063366036604
 6 -2.98408697719772  0.84256176847685  3.40441830443044
 6 -2.01178324902490 -0.77361732343234  0.01411935753575
 6 -0.58499171137114 -1.01172938953895  0.51141359405941
 6  0.38518217961796 -1.13912078497850 -0.76816837443744
 8  0.09427119471947 -1.50598296489649 -1.89629324082408
 8  1.58883908100810 -0.70605737883788 -0.36851929462946
 7 -6.99472406700670  2.77218449024902  0.48402791199120
 6 -5.86802837823782  3.34184860316032  0.85017587448745
 6 -6.14326751245124  4.76291273077308  0.86054254705471
 6 -7.45996509330933  4.92837167266727  0.33763029042904
 6 -7.97039798569857  3.67766626032603  0.17846800220022
 6 -5.15753627012701  5.85750126522652  1.32004327032703
 6 -8.12462974567457  6.18300231183118  0.14802330363036
 6 -9.03909180738074  6.41050077197720 -0.83058553735374
 7 -9.19774797539754  0.84640187318732 -0.39173164156416
 6 -9.85558942184218  2.05000749944995 -0.50053932313231
 6 -11.27054092059206  1.91626518751875 -0.78048188208821
 6 -11.48366231673167  0.55208254835484 -0.98838379307931
 6 -10.16196842254225 -0.07441739343934 -0.66812005450545
 6 -12.23411191209121  3.01087958955896 -0.83046613691369
 6 -12.64362210171017 -0.21046352585259 -1.39987094679468
 6 -12.86157628832883 -0.13173643804380 -2.94169234053405
 7 -7.51101005860586 -1.31966365156516 -0.13636216471647
 6 -8.65028661616162 -2.07738646544655 -0.56152951535154
 6 -8.14102654165417 -3.43595047724772 -0.66354892219222
 6 -6.90536544564456 -3.46709353765377 -0.16637426132613
 6 -6.44186528992899 -2.09757257585759  0.09673474967497
 6 -8.92375513311331 -4.67410816031603 -0.93716271067107
 6 -5.69390633583358 -4.37804283938394 -0.00455951035104
 8 -5.66811630183018 -5.57455698579858 -0.09265653155316
 6 -4.51801943054305 -3.35608637023702  0.34380344244424
 6 -3.96884068196820 -3.89839393289329  1.65597212291229
 8 -4.10582565606561 -3.49994792869287  2.81666973507351
 8 -2.90468915651565 -4.72432740564056  1.34660508840884
 6 -2.44803950775078 -5.53429287538754  2.54868700830083
 6  2.70945311391139 -0.87366126372637 -1.27095112091209
 6  3.95897914471447 -0.62616311871187 -0.58532063216322
 6  4.95590784738474  0.26310736563656 -0.98752270887089
 6  5.00078927462746  0.89915064676468 -2.34490160696070
 6  6.12125387058706  0.37263500270027 -0.18118703290329
 6  7.40632187258726 -0.41892807570757 -0.77310417731773
 6  8.71597319841984 -0.14155814091409 -0.01589993749375
 6  10.07571849754975 -0.60475480208021 -0.75011236603660
 6  10.05975201380138 -2.17952175507551 -0.80747003190319
 6  11.30345419561956 -0.17357167186719  0.06664610891089
 6  12.60440211441144 -0.48968428562856 -0.57713223632363
 6  13.77150573997400 -0.07495472167217  0.17854991049105
 6  15.22697160896089 -0.29702058355836 -0.30024358225823
 6  15.55986555835583 -1.74120298569857 -0.24671343964396
 6  16.24409515381538  0.62664718201820  0.53760278257826
 6  17.60810569936994  0.67593051075108 -0.09854375577558
 6  18.52774369866987  1.73778810771077  0.54271508770877
 6  19.98118001960196  1.58719652425243  0.02226395389539
 6  20.13195389428943  2.14847142324232 -1.31142922072207
 6  20.91431395269527  2.34352569136914  1.04981676987699
 1 -4.00861852215222  3.49072030403040  1.65727060796080
 1 -10.04141199429943  4.15710295239524 -0.58711003370337
 1 -10.85978023442344 -1.91101825732573 -1.01024049714971
 1 -3.03045537253725 -1.29528876407641  1.95786666236624
 1 -2.19502081658166  1.42296251945195  1.61325423762376
 1 -2.15026528452845  0.18487485588559  3.81982108610861
 1 -2.92757824972497  1.86481153085309  3.68071826702670
 1 -3.98983858075808  0.29337452195219  3.73518869506951
 1 -2.36670217861786 -1.75934066716672 -0.41594604180418
 1 -2.20266360576058  0.20045623662366 -0.51592828702870
 1 -0.27892371217122 -0.11795794219422  1.05610597189719
 1 -0.53524386368637 -1.82392435103510  1.39635714411441
 1 -3.95773058955896  5.66968133623362  0.88474127392739
 1 -5.60601580798080  6.73586850155016  0.98162745734573
 1 -5.05409349614961  5.59404744874487  2.43357749174918
 1 -7.86412142154215  6.76477635213521  0.80140169406941
 1 -9.19024437633763  5.59573973447345 -1.58700028612861
 1 -9.53156790339034  7.40315904340434 -0.58651887478748
 1 -12.18573293529353  3.39253844104410  0.07561974887489
 1 -11.77423127142714  3.69710366776678 -1.66949626642664
 1 -13.20127114991499  2.45295313101310 -1.11025538093809
 1 -12.51715408860886 -1.53196212291229 -1.14339909100910
 1 -13.45313233773377  0.11133528822882 -0.76177853665366
 1 -12.87377300720072  0.99874668776878 -3.29918726302630
 1 -12.06911187918792 -0.80059763336334 -3.47143609570957
 1 -13.84922167566757 -0.71244033883388 -3.26915445774577
 1 -9.71787833663366 -4.87258657845785 -0.41607390939094
 1 -9.34188816771677 -4.75196314231423 -2.00963786198620
 1 -8.35851102580258 -5.62285055205521 -0.92588054355435
 1 -3.67003885528553 -3.38923521372137 -0.21805315391539
 1 -2.13206359935994 -6.60252534823482  2.05079841394139
 1 -1.83651209760976 -5.03008649254926  3.44244868746875
 1 -3.33439645604560 -5.98363345494549  3.11731860746075
 1  2.72298620612061 -1.96045368886889 -1.58627979497950
 1  2.28643353785379 -0.46731431223122 -2.42474024122412
 1  3.99172194389439 -1.05947826212621  0.42405030803080
 1  5.45444727392739  2.03762627162716 -2.12437715751575
 1  5.73132975017502  0.66698266076608 -3.02856425802580
 1  4.05665578377838  1.03318450525053 -2.98947977307731
 1  6.41395941214121  1.47254337933793  0.00735054395440
 1  5.95074311901190 -0.08079796939694  0.97104481188119
 1  7.09121590649065 -1.45991271587159 -0.74123488308831
 1  7.68438798129813  0.00071209180918 -1.84622945194519
 1  8.77903339073907  1.06596543784378  0.14705485378538
 1  8.66721978477848 -0.59321347284728  1.00260307270727
 1  10.11946461506151 -0.00295773907391 -1.61761633663366
 1  8.98786910311031 -2.49637833103310 -1.11828037583758
 1  10.85734076517652 -2.53648524832483 -1.44501510641064
 1  10.29885490559056 -2.81577326292629  0.15558728942894
 1  11.16702199959996  0.75380416051605  0.36997558275828
 1  11.15173113661366 -0.73921915841584  0.96583651385139
 1  12.67242195279528 -1.44837640884088 -0.81702491549155
 1  12.65992414461446 -0.23878395739574 -1.58442997669767
 1  13.47759891479148  1.17492720352035  0.43597650855086
 1  13.76658088508851 -0.84936136393639  1.06521336723672
 1  15.45318766296630  0.12139334543454 -1.24282629592959
 1  14.55086063896390 -2.28949153095309 -0.54341367456746
 1  16.64985885938594 -1.98715275187519 -0.55165094899490
 1  15.49833511231123 -2.09484461706171  0.86825609700970
 1  15.91474174737474  1.69245581588159  0.41795225422542
 1  16.34068872567257  0.14321494479448  1.52513593619362
 1  17.83080430213021 -0.35046925742574 -0.15230509830983
 1  17.59420400600060  1.04735662396240 -1.16161459395940
 1  18.18507319681968  2.82131852775278  0.53836922662266
 1  18.60342259645965  1.56215202470247  1.50216736673667
 1  20.45416174857486  0.58580654165417  0.02670382658266
 1  19.79201655825583  3.18565683578358 -1.41545344774477
 1  21.27320456415642  2.12841091079108 -1.53632673927393
 1  19.62172714571457  1.52150777247725 -2.04012619411941
 1  20.79637487398740  2.12241370937094  2.06277731433143
 1  21.91089394659466  2.30124015141514  0.77781193829383
 1  20.71957158655866  3.48879207880788  1.18411714961496
 1 -7.17661949504951  1.86125499869987  0.50481232733273
 1 -7.64239578797880 -0.23731390739074 -0.12733286088609

