%nproc=3
%Mem=2GB
# td=(NStates=1) B3LYP/SVP 

TD

0 1
 6 -5.06333403150315 -1.82131837393739  0.57500237613761
 6 -4.75169548854885  2.89827627932793  1.50171655755576
 6 -9.42260216991699  3.12585338453845 -0.15046351425142
 6 -9.71379943444344 -1.56598740214021 -0.98373092649265
 7 -5.12315147744775  0.60879250215022  0.81768020502050
 6 -4.51947056315632 -0.64657137813781  0.83176662006201
 6 -3.06684637113711 -0.46517295199520  1.22684768056806
 6 -3.08114307970797  0.92839173147315  1.89067817361736
 6 -4.39264845794579  1.52612243014301  1.30007360436044
 6 -2.79604817331733  1.07540505280528  3.37421528412841
 6 -2.06112818351835 -0.63933389508951  0.01337928352835
 6 -0.56943015521552 -0.68872708930893  0.51717417011701
 6  0.34932859425943 -0.91118799169917 -0.60013157075708
 8  0.08293006060606 -1.24963733033303 -1.78565217671767
 8  1.65783598069807 -0.68784555765577 -0.21421386408641
 7 -6.96765135973597  2.70561783358336  0.52129163836384
 6 -5.98707028242824  3.35814023232323  1.14789564646465
 6 -6.36215940164016  4.83337977747775  1.26731322412241
 6 -7.73477257405741  4.90014885038504  0.63104963236324
 6 -8.13256420232023  3.48386688038804  0.30461061646165
 6 -5.51366188268827  5.83913942904290  1.73883514951495
 6 -8.41203848654865  6.18815282688269  0.40789929122912
 6 -9.32576047424742  6.38505822772277 -0.64126660546055
 7 -9.26194439503950  0.75551278427843 -0.46004847324732
 6 -10.01522538543854  1.92754525322532 -0.45457472667267
 6 -11.33306717321732  1.73395695669567 -1.02044587848785
 6 -11.54644859535954  0.35244258435844 -1.20186514121412
 6 -10.16664889058906 -0.27133708540854 -0.92768601110111
 6 -12.35747424832483  2.90044854645465 -1.14007709800980
 6 -12.57173491299130 -0.46232871237124 -1.85269622932293
 6 -12.54460459115912 -0.65493875827583 -3.32525069636964
 7 -7.47623658125813 -1.16757844304430 -0.22094062256226
 6 -8.56296788428843 -2.08243697049705 -0.61488485088509
 6 -8.04352679167917 -3.39131601380138 -0.62079464676468
 6 -6.77309221832183 -3.31942877117712 -0.15848347224722
 6 -6.33972507590759 -2.02664548314831  0.10320539673967
 6 -8.91590434803480 -4.52599334883488 -1.14243323772377
 6 -5.63504044924492 -4.21220625572557  0.07674862046205
 8 -5.54282377257726 -5.40924045414541 -0.01229849574957
 6 -4.47095472407241 -3.22804356595660  0.55885494759476
 6 -3.85416921482148 -3.68886297979798  1.81576810251025
 8 -4.17855292879288 -3.26652458635864  2.87404547264727
 8 -2.77053574117412 -4.50434540744074  1.45407583548355
 6 -2.22421712551255 -5.28632807890789  2.55123726332633
 6  2.66376854545455 -1.03019691729173 -1.13554758055806
 6  4.00744399119912 -0.68775927832783 -0.63362546264626
 6  4.94125638223822  0.14087514241424 -1.23628758535854
 6  4.85107430313031  0.89270000170017 -2.52721983878388
 6  6.29051079627963  0.31720946014601 -0.52543145734573
 6  7.51092233263326 -0.39456563946395 -1.08382524942494
 6  8.75967756885689 -0.00139412451245 -0.27315566306631
 6  10.04178510421042 -0.69293361996200 -0.89539689448945
 6  9.94189022762276 -2.26471027392739 -1.00303958885889
 6  11.28266211641164 -0.34423873857386 -0.05497605330533
 6  12.70529220342034 -0.62748806600660 -0.65011953505351
 6  13.81889047844784 -0.06066329252925  0.20610266576658
 6  15.24123303510351 -0.32350323182318 -0.34541809970997
 6  15.49940951275127 -1.82019088448845 -0.09311808010801
 6  16.26207695199520  0.53844836213621  0.47892691499150
 6  17.66388127692769  0.53002592029203 -0.13921782318232
 6  18.54538546284628  1.46992132103210  0.59342015821582
 6  20.06898880048005  1.54638244284428  0.23274500200020
 6  20.27013771267127  1.72951952805280 -1.30140821862186
 6  20.84300682198220  2.51302264106411  1.12083387158716
 1 -4.08444610491049  3.57287851985198  1.91781666256626
 1 -10.00310816391639  3.88521576367637  0.08577725502550
 1 -10.27235149154915 -2.34156131163116 -1.54294376747675
 1 -2.69980230723072 -1.31980121532153  1.94861573727373
 1 -2.38044935943594  1.55878610181018  1.36639955215522
 1 -1.86576683468347  0.47787415581558  3.61564066806681
 1 -2.56126161806181  1.93227827752775  3.90084027922792
 1 -3.49953955085509  0.51995718021802  3.94500967716772
 1 -2.37361286968697 -1.60890562366237 -0.25520996819682
 1 -2.29789312871287  0.00470666166617 -0.81283797799780
 1 -0.24809062886289  0.07455130873087  1.22044240554055
 1 -0.24889522882288 -1.67449940854085  1.13156066446645
 1 -4.32178699519952  5.40938530663066  1.46080888068807
 1 -5.71326653305331  6.94019893459346  1.39569886448645
 1 -5.53557164396440  5.95706375037504  3.02662679667967
 1 -8.29095410481048  7.05280515501550  1.05960751465147
 1 -9.41866721862186  5.66541670217022 -1.41547313341334
 1 -9.70295504210421  7.43704243174317 -0.77214743764376
 1 -12.52633699569957  3.40824001120112 -0.11430924402440
 1 -11.72894674297430  3.62412637003700 -1.87276659345935
 1 -13.19149017181718  2.55600343604360 -1.81954631003100
 1 -12.56371874507451 -1.50888981568157 -1.45503025412541
 1 -13.47378440294029 -0.05880172547255 -1.53579593839384
 1 -12.44512014191419  0.29363617671767 -3.98398574287429
 1 -11.69242421042104 -1.29005657925793 -3.69409836193619
 1 -13.33159991349135 -1.32171126592659 -3.51027857015702
 1 -10.04381092989299 -4.67047636743674 -0.81461376337634
 1 -9.04916889578958 -4.65784373037304 -2.27292419061906
 1 -8.66090126482648 -5.50867913491349 -0.77030498599860
 1 -3.74563641504150 -3.19211550175018 -0.25800714931493
 1 -1.23321371437144 -5.84640973667367  2.31478481258126
 1 -1.74222266866687 -4.65695917981798  3.38679312191219
 1 -2.99670268666867 -6.03066815841584  2.89553642924292
 1  2.70320422792279 -2.03787143064306 -1.40000116711671
 1  2.49172406690669 -0.35508308910891 -2.06141390859086
 1  4.23706647834783 -0.78919123342334  0.50289819281928
 1  5.05392722192219  1.93143565256526 -2.26850156995700
 1  5.88738535573557  0.64834079657966 -3.14859626122612
 1  3.79833995219522  0.70599178597860 -3.13126395149515
 1  6.46311432763276  1.47601372637264 -0.38729892099210
 1  6.01288933363336 -0.16924681428143  0.49426713411341
 1  7.24740152505251 -1.51465819041904 -0.99362012161216
 1  7.62466200870087  0.06782880348035 -2.12802763176318
 1  9.05291077847785  1.05441428272827 -0.28010786248625
 1  8.58849191199120 -0.16419057055706  0.74042685508551
 1  9.93354602320232 -0.31888933223322 -1.83049762476248
 1  9.07228754495450 -2.76408510171017 -1.46952550035003
 1  10.85962099319932 -2.61986358615862 -1.54375498039804
 1  9.89853487358736 -2.62165385098510  0.12366409710971
 1  11.28348364576458  0.72112089218922  0.31118970417042
 1  11.16990295379538 -0.91511674817482  0.84873480368037
 1  12.97061177177718 -1.52748431963196 -0.53109632263226
 1  12.64917306950695 -0.18868894789479 -1.72413394709471
 1  13.69693084798480  1.04698440924092  0.26820973187319
 1  13.74996922392239 -0.66859328712871  1.23884072997300
 1  15.33263560776077 -0.03118191209121 -1.46825883918392
 1  14.54089964286429 -2.21507408920892 -0.51803113631363
 1  16.52041591509151 -2.26094013061306 -0.41213699759976
 1  15.43889916871687 -2.12727786038604  0.98540781218122
 1  15.75646591979198  1.47991456175618  0.52437289628963
 1  16.42285694249425  0.00344096739674  1.50104352695270
 1  18.06168739043904 -0.44137834833483 -0.01506137393739
 1  17.71729631523152  0.68301018931893 -1.34103253575358
 1  18.05949063856386  2.54172056795680  0.16837222692269
 1  18.22613486768677  1.34872068156816  1.68584573457346
 1  20.32851918431843  0.38506646764676  0.37028818501850
 1  20.02451980858086  2.73170144024403 -1.47366926932693
 1  21.41238848254826  1.66025409510951 -1.55051815841584
 1  19.66463143614362  0.95583120482048 -1.87938011951195
 1  21.01977721422142  2.16031749974997  2.01628266486649
 1  21.81316417361736  2.25345537293729  0.76585074217422
 1  20.38320795019502  3.46960015961596  0.92294103200320
 1 -7.01620345344534  1.67278615181518  0.43722556865687
 1 -7.65741729012901 -0.11275145114511 -0.25359548714872

