%nproc=3
%Mem=2GB
# td=(NStates=1) B3LYP/SVP 

TD

0 1
 6 -5.14952265036504 -1.89690593269327  0.59363423932393
 6 -4.81498181718172  2.80456690839084  1.55608199409941
 6 -9.30234014371437  3.35110590979098 -0.23647211511151
 6 -9.74989304380438 -1.35692649604961 -1.08396094949495
 7 -5.17145630793079  0.52803442634263  0.85310374737474
 6 -4.55678429452945 -0.68544526552655  0.83955739913991
 6 -3.11600128662866 -0.46470290499050  1.27404240004000
 6 -3.03831879727973  0.93296218851885  1.83859296509651
 6 -4.42008120122012  1.43317313521352  1.36811040804080
 6 -2.96513508200820  0.94320183248325  3.43728159075908
 6 -2.05344741544154 -0.64970493219322  0.08566651225123
 6 -0.61057426962696 -0.97706592319232  0.61275372807281
 6  0.32925658705871 -1.22185905880588 -0.45434699229923
 8  0.09218098569857 -1.66797916451645 -1.54490810231023
 8  1.64871506860686 -0.84941171427143 -0.04388683138314
 7 -6.97417201180118  2.78606587838784  0.46927643684368
 6 -5.94114568996900  3.48777319561956  1.13094395129513
 6 -6.23641682738274  4.82945938543854  1.10096658945895
 6 -7.57283638043804  4.97623645914591  0.59662619001900
 6 -8.03257420332033  3.67495598929893  0.27348750415042
 6 -5.35341585808581  5.83348886398640  1.71176244224422
 6 -8.25849313201320  6.28801281288129  0.49030753205321
 6 -9.12081998019802  6.67906762866287 -0.46368884768477
 7 -9.19584778537854  0.89796702970297 -0.41120358875888
 6 -9.89712357525753  2.10733323202320 -0.53041231043104
 6 -11.26565043154316  1.84817837883788 -1.09784361826183
 6 -11.35652960346034  0.51805914601460 -1.26230118481848
 6 -9.98224044974497  0.01819186748675 -1.03942718521852
 6 -12.22631113201320  2.93607210881088 -1.30117320762076
 6 -12.57130486998700 -0.15968844834483 -1.75692665236524
 6 -12.58154828552855 -0.34520778517852 -3.39584775607561
 7 -7.50458941654165 -1.21861354655466 -0.24599312781278
 6 -8.54929651715172 -2.00954968176818 -0.64804816721672
 6 -8.20545298429843 -3.33304018621862 -0.62419498679868
 6 -6.85980088918892 -3.37099392769277 -0.24228185208521
 6 -6.47637874127413 -1.98571138973897  0.05952102830283
 6 -9.00688344594459 -4.58193894339434 -1.09494848924892
 6 -5.75303224842484 -4.27194222932293  0.09952089768977
 8 -5.61937142734273 -5.40909043914391 -0.07633489938994
 6 -4.45752338093809 -3.27305806740674  0.52451151325133
 6 -3.80512431033103 -3.74144823832383  1.69915644134413
 8 -4.12224729822982 -3.34089202310231  2.82140020812081
 8 -3.02872155975598 -4.77083205610561  1.55032546044604
 6 -2.50554525832583 -5.40108955505551  2.64959709930993
 6  2.62506467506751 -1.30834473207321 -1.02721674747475
 6  3.92211545834583 -0.77696819921992 -0.57425952605261
 6  4.97255951255126 -0.20600954605461 -1.19859381598160
 6  5.00876007170717  0.32151288298830 -2.64723183998400
 6  6.28422016721672  0.12037977717772 -0.46249516371637
 6  7.49376061646165 -0.61396757965797 -1.00331719861986
 6  8.79539114021402 -0.34529851495150 -0.29901824932493
 6  10.16147707340734 -1.02760708730873 -0.89226658145815
 6  10.03367940654065 -2.51426522942294 -0.80404968986899
 6  11.25835968616862 -0.53234754945495 -0.00334088978898
 6  12.67416909110911 -0.74376969416942 -0.62628715181518
 6  13.84550313971397 -0.14997222342234  0.15314737023702
 6  15.24967387918792 -0.20463134463446 -0.43187674557456
 6  15.70013958575858 -1.66528539393939 -0.49902867116712
 6  16.17054779907991  0.83593811111111  0.28284730703070
 6  17.50636552535254  0.98572148984898 -0.21388528992899
 6  18.41878280258026  1.81147547644764  0.63503431963196
 6  19.95419732133213  1.99618742334233  0.13888561606161
 6  20.14903560246024  2.54240081618162 -1.28267634543454
 6  20.86117863916392  2.62083342214221  1.14968675687569
 1 -3.98375603590359  3.41456268826883  1.89899478037804
 1 -10.07439529262926  4.07265450755076 -0.33443476617662
 1 -10.53253751015101 -1.97213436893689 -1.13691316441644
 1 -2.91961428842884 -1.33999323452345  2.00305118081808
 1 -2.17100841534153  1.38456868006801  1.47504041624162
 1 -1.82627288528853  0.51914828322832  3.82097120112011
 1 -2.97165265716572  1.92064711441144  4.04356455165517
 1 -3.51739133603360  0.20484566906691  3.94489966616662
 1 -2.22310781918192 -1.73758849194919 -0.30449489668967
 1 -1.94086742614261 -0.00735454445445 -0.57535422962296
 1 -0.12453827362736 -0.11249739613961  1.40604096539654
 1 -0.71798213751375 -1.80162212081208  1.46469397779778
 1 -4.56571138763876  6.11714608270827  0.83336613641364
 1 -5.96505171157116  6.73637855255526  2.01492078667867
 1 -4.92793087988799  5.50708875287529  2.67425155915592
 1 -8.25105011441144  7.04431430593059  1.38947050095009
 1 -9.18170352225223  5.88309847034703 -1.24812639873987
 1 -9.68209295589559  7.64731345884588 -0.45918614151415
 1 -12.47153151515151  3.46739592679268 -0.40133794689469
 1 -11.92932678097810  3.60131408880888 -2.24370368716872
 1 -13.20216123892389  2.54928276397640 -1.54610896629663
 1 -12.50275264846485 -1.17674660136014 -1.52352710381038
 1 -13.40452747724773  0.60812496719672 -1.69580193899390
 1 -12.76031166106610  0.47493430653065 -3.83037038133813
 1 -11.53722869086909 -0.78597617121712 -3.67933688578858
 1 -13.35539229272927 -1.13810290509051 -3.65942348464846
 1 -9.90083663246325 -4.68589790959096 -0.25993829582958
 1 -9.53003698259826 -4.21470941694169 -2.07549444764476
 1 -8.25421059575958 -5.47235550255026 -1.02077003250325
 1 -3.69515136653665 -3.36759304950495 -0.24060540914091
 1 -1.65571596459646 -6.15199029472947  2.41514484858486
 1 -1.97298574497450 -4.53594707860786  3.14541898449845
 1 -3.20742375877588 -5.91149624122412  3.41389826542654
 1  2.73738764626463 -2.51371901540154 -0.86149731673167
 1  2.31498639313931 -1.00472805360536 -2.14378214541454
 1  4.10446321802180 -0.99536185048505  0.57448535153515
 1  5.62377420662066  1.30566307530753 -2.55613033283328
 1  5.54348096529653 -0.33761779927993 -3.36667806940694
 1  4.19035915411541  0.24605579237924 -3.05221604670467
 1  6.26615463166317  1.33325945094509 -0.56059625072507
 1  6.02082012671267 -0.00466035563556  0.61870957835784
 1  7.32917970287029 -1.68823554815482 -0.98254901450145
 1  7.62941248374837 -0.36757473687369 -2.21618644764476
 1  8.78490397779778  0.73484232553255 -0.21569142084208
 1  8.48216127892789 -0.87508165966597  0.77384019641964
 1  10.26949961856186 -0.55301274457446 -1.87962253725373
 1  9.18505882208221 -2.77932662586259 -1.42460100790079
 1  10.98981401250125 -3.09603120292029 -1.26873747864786
 1  10.02218723882388 -2.95719740534053  0.09922165286529
 1  11.06750204760476  0.63543232333233  0.24978356355636
 1  11.26425238873887 -0.99281451795180  0.99659959015902
 1  12.98519322992299 -1.73899547074707 -0.79492270527053
 1  12.78346649884988 -0.21307138613861 -1.48836036973697
 1  13.45004615951595  0.90407011781178  0.19856276717672
 1  13.98303253025303 -0.67060348814881  1.12427927382738
 1  15.21782412661266  0.23561476757676 -1.51299331263126
 1  15.22876842974297 -2.48408098989899 -1.08183751695170
 1  16.96868074157416 -1.78157219381938 -0.68580436433643
 1  15.52374765356536 -2.10551568416842  0.41366063746375
 1  15.60063033623362  1.84560113041304  0.18753921292129
 1  16.32505716251625  0.45845646894690  1.54534795739574
 1  17.99848106980698 -0.04371858235824 -0.37356722452245
 1  17.42773735933593  1.24242613091309 -1.25004343684368
 1  18.14613930343035  2.89419581548155  0.75073046274627
 1  18.57732998719872  1.21183699319932  1.51813896389639
 1  20.75726205860586  1.03724168516852  0.02020317651765
 1  19.66885424202420  3.50902917301730 -1.43849575197520
 1  21.13266050975098  2.78213628332833 -1.56833994059406
 1  19.87859283228323  1.93217883958396 -2.09393157465747
 1  20.70902613911391  1.97371883988399  2.02562359895990
 1  21.86917977517752  2.76665669306931  0.95978013511351
 1  20.63904353375338  3.82766596619662  1.58237697559756
 1 -6.90188202130213  1.85140401360136  0.04459630573057
 1 -7.67825937433743 -0.34811498749875 -0.08261838943894

