%nproc=3
%Mem=2GB
# td=(NStates=1) B3LYP/SVP 

TD

0 1
 6 -5.14318201630163 -1.90315655775578  0.49141401730173
 6 -4.57264758375838  2.79636608830883  1.27503388928893
 6 -9.27092700240024  3.31818261746175 -0.25281374927493
 6 -9.85459351385138 -1.42500330373037 -0.81724427782778
 7 -5.08560772307231  0.45626724962496  0.80277871487149
 6 -4.48936755285529 -0.73726044704470  0.93764720812081
 6 -3.05340502700270 -0.61261769646965  1.37699269506951
 6 -2.95845081048105  0.90663955625563  1.82854195999600
 6 -4.24543373647365  1.40475029292929  1.34723832083208
 6 -2.84491305980598  1.09383689598960  3.36922478507851
 6 -2.08623069376938 -1.06503646534653  0.24788273387339
 6 -0.57392060426043 -0.82051026762676  0.65616806950695
 6  0.38773243464346 -1.24677155005501 -0.49881143874387
 8  0.04128589618962 -1.97004937153715 -1.43836744824482
 8  1.57627782488249 -0.58456522962296 -0.38120056275628
 7 -6.95070966556656  2.81995926772677  0.48665817501750
 6 -5.90297187258726  3.48770318861886  1.07099795669567
 6 -6.15894908060806  4.85996243574357  1.08412490529053
 6 -7.40666976377638  5.02595143064306  0.61681820922092
 6 -7.97998894479448  3.63753224692469  0.23297345274527
 6 -5.08306882338234  5.76151166626663  1.44880614661466
 6 -8.03808109080908  6.23861787338734  0.39500800210021
 6 -8.94853275147515  6.49310903280328 -0.62103458225823
 7 -9.16700490109011  0.94025125812581 -0.39173164156416
 6 -9.80155401830183  2.05166766546655 -0.55145441464146
 6 -11.21107497399740  1.99182274327433 -0.96689052295230
 6 -11.41289524002400  0.59829716981698 -1.16820177487749
 6 -10.10177240294029 -0.01120107180718 -0.72976621912191
 6 -12.21595009590959  3.07167566916692 -1.17437052735274
 6 -12.61627936743674 -0.18337081658166 -1.60709166886689
 6 -12.62137226792679 -0.31956522092209 -3.21892006330633
 7 -7.53277223482348 -1.29997168236824 -0.09335786428643
 6 -8.73080466796680 -2.07167589438944 -0.47217057945795
 6 -8.20365280428043 -3.46127300950095 -0.67500006730673
 6 -6.84643955305531 -3.46281310961096 -0.28226585048505
 6 -6.52134323772377 -2.14527734633463  0.10251532773277
 6 -9.08048080568057 -4.62824357385739 -1.02135112951295
 6 -5.79179612481248 -4.30361539663966  0.04790573617362
 8 -5.64539402960296 -5.49673920402040  0.01357409150915
 6 -4.52159978857886 -3.34988575017502  0.41399046114611
 6 -3.89307310521052 -3.87048114161416  1.65544206990699
 8 -4.18188326182618 -3.45978391229123  2.75311337943794
 8 -3.01999068666867 -4.86543151605161  1.51264169206921
 6 -2.47961266506651 -5.45937538363836  2.59558169776978
 6  2.57953012161216 -0.87408130573057 -1.28336236203620
 6  3.89843309010901 -0.53297379977998 -0.75306740684068
 6  5.03863612021202  0.07228828372837 -1.21088504510451
 6  4.92460165586559  0.54806553825383 -2.68220533733373
 6  6.33740548574857  0.33176091529153 -0.49918883308331
 6  7.42114335473547 -0.43562974587459 -1.24024089098910
 6  8.75751735283528 -0.38193217831783 -0.39462781028103
 6  10.03531445714571 -0.81376570317032 -0.95828318311831
 6  10.06617265586559 -2.38197200010001 -0.96060534543454
 6  11.20263411361136 -0.20856517121712 -0.20876143184318
 6  12.63201487568757 -0.61417673487349 -0.78962348544854
 6  13.77249583898390  0.02684545834583  0.03823587908791
 6  15.21317022882288 -0.25870675217522 -0.37306086398640
 6  15.51627119891989 -1.73188205360536 -0.30302907120712
 6  16.08178892319232  0.65626014331433  0.57772679497950
 6  17.51444633343334  0.74285720342034 -0.01072497389739
 6  18.44558548284828  1.73820814971497  0.77615843204320
 6  19.92219412101210  1.87356516111611  0.37067879537954
 6  20.04933563246325  2.29733630973097 -1.10914899269927
 6  20.81614413571357  2.66094743354335  1.32688447664766
 1 -3.85436309660966  3.58991022302230  1.36754163506351
 1 -9.82016987008701  4.13662090419042 -0.33077440014001
 1 -10.69348360476048 -1.92187934343434 -1.20023949704970
 1 -2.93749607660766 -1.35380461566157  2.24707558325833
 1 -2.09020033453345  1.28419864306431  1.23889680188019
 1 -1.83033329132913  0.49882625102510  3.74902400640064
 1 -2.89355484738474  2.21112616231623  3.61760195539554
 1 -3.67721731863186  0.41141632613261  3.80779595579558
 1 -2.20657616601660 -2.05542027512751 -0.19309375657566
 1 -2.23084642404240 -0.33833764276428 -0.62367906210621
 1 -0.39522534233423  0.10695454905491  0.78998936023602
 1 -0.29876021532153 -1.32743470207021  1.69277678607861
 1 -4.25746056255626  5.53510787888789  0.67912071187119
 1 -5.38353355975598  6.76750166486649  1.64270356495650
 1 -4.62670075687569  5.44292233623362  2.54768890289029
 1 -7.88255326472647  7.21174104860486  0.88424997889789
 1 -9.35305065696570  5.55899606010601 -1.27809939603960
 1 -9.36499124572457  7.60545927342734 -0.97473769666967
 1 -12.33033739573957  3.66477566476648 -0.24071188428843
 1 -11.88875272357236  3.84015797319732 -1.92261157795780
 1 -13.04997602040204  2.66104394009401 -1.67388174357436
 1 -12.77956032923292 -1.12088101480148 -1.10191494259426
 1 -13.56499352385238  0.38060221492149 -1.29563192199220
 1 -12.41462709260926  0.61981879497950 -3.57295463976398
 1 -11.81047601560156 -1.08653622722272 -3.42624157625763
 1 -13.71426818031803 -0.69876897169717 -3.52967050935094
 1 -9.81067761656166 -4.68183750355036 -0.25824812681268
 1 -9.55948992789279 -4.40771871787179 -2.05411230943094
 1 -8.34312948764877 -5.45484375137514 -1.09439739523952
 1 -3.74146599799980 -3.48461475167517 -0.39182053065307
 1 -1.74413480648065 -6.17831292699270  2.36100943504350
 1 -1.90685913231323 -4.80472395629563  3.43523796639664
 1 -3.24303732013201 -6.00522561416142  3.11783865946595
 1  2.57307121462146 -1.85225286878688 -1.75022618961896
 1  2.33260815531553 -0.39632721352135 -2.19959772697270
 1  4.06668944064406 -0.94181649594960  0.11953985698570
 1  5.24380620982098  1.59748225722572 -3.09590431023102
 1  5.49781639883988 -0.12059609710971 -3.22957435903590
 1  3.94397451565157  0.27903909070907 -3.26242706780678
 1  6.52662067826783  1.56149227422742 -0.66991718281828
 1  6.44732277697770  0.18899901030103  0.69226693409341
 1  7.21922870777078 -1.47561428602860 -1.24015477507751
 1  7.67093663616362 -0.17684566396640 -2.30559538853885
 1  8.76908239563956  0.84803364466447 -0.35296514821482
 1  8.54592765556556 -0.55655980748075  0.55422823522352
 1  9.93811648024803 -0.62255969926993 -2.20448502350235
 1  9.08304862106211 -2.76140483368337 -1.35976452425242
 1  10.94311934303430 -2.90962256205621 -1.29090969586959
 1  10.00980600070007 -2.81744342994299  0.13939567026703
 1  11.27533283068307  0.92362114221422 -0.22526394119412
 1  11.12630859435944 -0.30770600710071  0.79637956815682
 1  12.78786349694970 -1.80865243644364 -0.80337355035504
 1  13.05145329752975 -0.41098117711771 -1.90384191789179
 1  13.71206236113611  1.09244895569557  0.10142305320532
 1  13.55480970797080 -0.31805823362336  1.16155300120012
 1  15.37444978917892  0.17682888898890 -1.42465447874787
 1  14.51904745764576 -2.22330491229123 -0.71834116731673
 1  16.40672454595460 -1.88989302590259 -0.84371015491549
 1  15.48353363216322 -1.97996312891289  0.95674494589459
 1  15.70227050025002  1.66455302560256  0.52990344934493
 1  16.19103376017602 -0.01652102880288  1.68216163876388
 1  18.21564278597860 -0.15810002050205  0.00768090029003
 1  17.49318390399040  1.08357024532453 -1.01757018951895
 1  17.92744743424343  2.64717111301130  0.97338272797280
 1  18.28218047224723  1.37453326282628  1.73513066306631
 1  20.51237757015701  0.90630859185919  0.33369452565257
 1  19.41033839043904  3.21458972907291 -1.24979688208821
 1  20.98292553625363  2.40848891859186 -1.58034114071407
 1  19.51520649364937  1.48278390009001 -1.81065324682468
 1  20.65632086858686  2.20279174717472  2.26616765336534
 1  21.74445730293029  2.77546757415742  0.93485764286429
 1  20.27716734613461  3.50763396299630  1.47989672757276
 1 -7.07149898299830  1.72926179937994  0.55784763086309
 1 -7.57888943734373 -0.23129330533053 -0.03006313391339

