%nproc=3
%Mem=2GB
# td=(NStates=1) B3LYP/SVP 

TD

0 1
 6 -5.15903360146015 -1.97889413151315  0.48264314021402
 6 -4.80727104610461  2.80189664136414  1.38003438933893
 6 -9.41154106380638  3.23754455365537 -0.28263673157316
 6 -9.82223027752775 -1.51826262966297 -1.14369692309231
 7 -5.21683084538454  0.46268789168917  0.84021245824582
 6 -4.51168978507851 -0.78163488448845  0.77589103250325
 6 -3.03727341384138 -0.51316775147515  1.20879587538754
 6 -3.03063802920292  1.03292218451845  1.73519262506251
 6 -4.50494968806881  1.39825964386439  1.26341993899390
 6 -2.88421699019902  1.20351786408641  3.18116597919792
 6 -2.06296836753675 -0.86805676737674  0.13475142074207
 6 -0.60015322752275 -0.90125834243424  0.71033348604860
 6  0.41150481188119 -1.01347822072207 -0.46060761836184
 8  0.15580734833483 -1.37634000060006 -1.54245785728573
 8  1.61930212731273 -0.66911368446845 -0.03702614531453
 7 -7.11172576717672  2.83579085088509  0.49845935513551
 6 -6.03171474687469  3.39319373767377  1.11836269316932
 6 -6.36373955965597  4.85173161266127  1.16995348814881
 6 -7.57815691249125  4.97703653915392  0.61280780818082
 6 -8.09640058595860  3.63611210491049  0.18190834623462
 6 -5.44604512101210  5.89515503060306  1.82856412241224
 6 -8.30958824152415  6.25111912351235  0.56568506980698
 6 -9.13825172337234  6.66863658555856 -0.43831631043104
 7 -9.20401860246024  0.85390262326233 -0.59771223962396
 6 -9.89196305920592  2.01747424612461 -0.70429969916992
 6 -11.25411927842784  1.85735929692969 -1.04367820172017
 6 -11.42353630413041  0.47263460356036 -1.20778573327333
 6 -10.15164739043904 -0.15978593029303 -0.93670691319132
 6 -12.24698319921992  2.93778227982798 -1.27194028432843
 6 -12.55210294979498 -0.29344182368237 -1.71818277797780
 6 -12.48978910961096 -0.54061732613261 -3.21685985728573
 7 -7.43479243684368 -1.21531321652165 -0.33427195569557
 6 -8.60286187368737 -2.04260298709871 -0.77453081548155
 6 -8.20399283828383 -3.38889577177718 -0.71783435073507
 6 -6.85481039013901 -3.47295412371237 -0.26421404530453
 6 -6.41057216061606 -2.06066888548855 -0.07412233603360
 6 -9.04233699129913 -4.58801955145515 -1.14978397279728
 6 -5.68944588978898 -4.38495353045305 -0.00555961036104
 8 -5.63923341354135 -5.57033656375638 -0.02085935183518
 6 -4.50301793039304 -3.42679344094409  0.43061212331233
 6 -3.87781157905791 -3.83561765526553  1.71963848954895
 8 -4.27076214971497 -3.35731366526653  2.90455852395239
 8 -3.09112780038004 -4.87397237013701  1.63734416231623
 6 -2.59501420522052 -5.48781822792279  2.76304844444444
 6  2.68666083468347 -0.95733963156316 -1.06590061586159
 6  3.98785203200320 -0.55319582198220 -0.39154125422542
 6  4.97206946354635  0.15340639553955 -1.03131708830883
 6  4.96947614331433  0.68044877657766 -2.35839295609561
 6  6.20571231643164  0.48257599679968 -0.28727764196420
 6  7.44607584798480 -0.42197838073807 -0.81963883078308
 6  8.77344894599460 -0.11459544464446 -0.04301264876488
 6  10.11594251995199 -0.77137146374637 -0.64914226902690
 6  9.96739277787779 -2.32021582448245 -0.81462074697470
 6  11.39111296149615 -0.08343265796580  0.14245368966897
 6  12.69804147834784 -0.53351866906691 -0.49978450155016
 6  13.90649923932393  0.12696547034703  0.29264131963196
 6  15.28702761456146 -0.26913779527953 -0.40333389128913
 6  15.52821239303930 -1.87646651205121 -0.50993976227623
 6  16.34392513681368  0.47994251155115  0.41304032633263
 6  17.66444133293329  0.65261817951795 -0.35724962636264
 6  18.73690461476147  1.49152348124812  0.51182199839984
 6  20.20049195079508  1.57526533113311 -0.06391466396640
 6  20.20682138103810  2.09593616971697 -1.48176625442544
 6  20.98909143044305  2.49570090889089  0.81048283648365
 1 -4.12252991329133  3.47214844684468  2.01603648454845
 1 -10.11643949704970  3.93133037513751 -0.36799812251225
 1 -10.72408666506651 -2.10748790429043 -1.40173964706471
 1 -2.84177650465046 -1.04508374357436  2.09032990869087
 1 -2.13256457095710  1.52928315151515  1.20453336553655
 1 -1.93020327832783  0.80732710111011  3.65853495749575
 1 -2.86522201410141  2.31168621832183  3.72149234443444
 1 -3.71749134603460  0.60153533803380  3.31827700390039
 1 -2.42309781818182 -1.79921465456546 -0.39792423962396
 1 -1.86608994839484 -0.16960076907691 -0.77484417861786
 1 -0.43011883168317  0.03573742734273  1.33771413271327
 1 -0.50863120242024 -1.83409536813681  1.33034054245425
 1 -4.55006982348235  5.90892526062606  1.21762456225623
 1 -6.05346055245525  6.81049596429643  1.67448674327433
 1 -5.17452553935393  5.72144018801880  2.84464859885989
 1 -8.11192620202020  6.85002487698770  1.52076363026303
 1 -9.25701105300530  6.15249541004100 -1.30642222832283
 1 -9.56417116371637  7.74290301780178 -0.55791601450145
 1 -12.51623598559856  3.16779596679668 -0.29406721982198
 1 -11.88964281258126  3.75246920432043 -1.79081839863986
 1 -13.29221024382438  2.53306114181418 -1.72721707710771
 1 -12.65866824002400 -1.20219914661466 -1.20055480658066
 1 -13.54551157565757  0.16923107780778 -1.57030938973897
 1 -12.61144677457746  0.37743455655566 -3.79052639693969
 1 -11.50596556455646 -1.10100767436744 -3.35254420652065
 1 -13.29849660316032 -1.17935703050305 -3.52760030233023
 1 -10.14541108990899 -4.41015033483348 -0.80901320332033
 1 -9.23051703060306 -4.44028197419742 -2.39298619681968
 1 -8.51509668436844 -5.54691295829583 -0.83917187268727
 1 -3.63556540794080 -3.35908219841984 -0.32385373397340
 1 -1.41894228722872 -5.89051414711471  2.45139847394739
 1 -2.41519996639664 -4.73438692259226  3.55525996859686
 1 -3.46085910231023 -6.33707879947995  2.95346222182218
 1  2.55133904140414 -2.01025866936694 -1.46522768976898
 1  2.42495739023902 -0.30286786758676 -2.04460222742274
 1  4.27231000270027 -0.86783909820982  0.67484538753875
 1  5.17265909510951  1.70086259525953 -2.15707042684268
 1  5.81655827302730  0.27273323582358 -2.91192259385939
 1  3.89231935013501  0.64687587438744 -3.05373619871987
 1  6.25644366056606  1.66191231623162 -0.34901509260926
 1  6.04721276597660  0.23907401780178  0.77772547994800
 1  7.31881866676668 -1.50099682428243 -0.68625938553855
 1  7.67397694019402 -0.20563854325433 -1.97001183018302
 1  8.85440092749275  0.92557139843984 -0.21665151685169
 1  8.85025808860886 -0.60044419591959  1.12117492989299
 1  10.38929159775978 -0.46954439773977 -1.76667124212421
 1  9.13696401260126 -2.47040573377338 -1.28232678047805
 1  10.89664469556956 -2.68395999579958 -1.10720132503250
 1  9.78006302640264 -2.57120880648065  0.29396112681268
 1  11.24974027142714  1.05035381548155  0.15527411261126
 1  11.46993295679568 -0.45078031453145  1.14070400060006
 1  12.70395510611061 -1.78457002820282 -0.42857607060706
 1  12.82788094029403 -0.41362144114411 -1.72385391909191
 1  13.80378153305331  1.33489320012001  0.18352126302630
 1  13.93498772577258 -0.06652308010801  1.44504135003500
 1  15.26214855905591  0.22944415051505 -1.34661667496750
 1  14.81498705160516 -2.21089367116712 -1.22534186738674
 1  16.59641351485148 -1.95906994359436 -0.88703448734873
 1  15.31308658745874 -2.41671680428043  0.49724899629963
 1  16.06471674487449  1.62670924122412  0.56280673967397
 1  16.27107176397640  0.05836645994599  1.69175259785979
 1  18.06185740744074 -0.35403961446145 -0.70189005680568
 1  17.57597218281828  1.17521941024102 -1.41015944844484
 1  18.27654234373437  2.50936733263326  0.62428781848185
 1  18.97482973717372  1.12291810131013  1.42406955695570
 1  20.60833716611661  0.50791875287529 -0.08688753255326
 1  19.80949830643064  3.06120439053905 -1.54987689008901
 1  21.23089033273327  2.18252632233223 -1.51767487408741
 1  19.97329230223022  1.22798842054205 -2.13699588108811
 1  20.65814105060506  2.14219568756876  1.68134917151715
 1  22.19546240344035  2.22989301670167  0.55812997009701
 1  20.65092472187219  3.56757995759576  0.69936867476748
 1 -7.17114894799480  1.73462233543354  0.25318716481648
 1 -7.47429897829783 -0.20079025502550 -0.06173630123012

