%nproc=3
%Mem=2GB
# td=(NStates=1) B3LYP/SVP 

TD

0 1
 6 -5.12234993309331 -2.10905714781478  0.59320419631963
 6 -4.71553187218722  2.63806025772577  1.64117050295029
 6 -9.19348925862586  3.34223502270227 -0.24061252915292
 6 -9.80231828632863 -1.37176798019802 -1.11907446084608
 7 -5.14137329962996  0.39325094799480  0.85537397439744
 6 -4.51553016911691 -0.83561028202820  0.91726516991699
 6 -3.12987267376738 -0.68780521522152  1.38454345014501
 6 -3.10356532193219  0.82024091639164  2.04242334813481
 6 -4.44110330343034  1.38723854175418  1.36991058805881
 6 -3.07270583908391  0.99827734003400  3.50655851845185
 6 -2.09853192389239 -0.86062602430243  0.22973091869187
 6 -0.61969518171817 -0.69796801340134  0.72152460516052
 6  0.35528919031903 -0.93180005290529 -0.38123968156816
 8  0.18020978857886 -1.60077244384438 -1.43402701420142
 8  1.60471066816682 -0.56560333343334 -0.01042348504850
 7 -6.93632822742274  2.68973624542454  0.43825333453345
 6 -5.88874044944494  3.29532395069507  1.19401025792579
 6 -6.26515970167017  4.66170260976098  1.25973246604660
 6 -7.44151324812481  4.90900973647365  0.64531105850585
 6 -7.93918486438644  3.60617911161116  0.18358851425143
 6 -5.35380589708971  5.72132764786479  1.92352361836184
 6 -8.09930721342134  6.20140415201520  0.54537303860386
 6 -8.90746864506451  6.57771749364936 -0.48908138693869
 7 -9.19389759035904  0.95007224022402 -0.72332480088009
 6 -9.77073093599360  2.15860835953595 -0.78098736793679
 6 -11.20860472697270  1.85111867286729 -1.27456129002900
 6 -11.34773872437244  0.41659900000000 -1.45650060476048
 6 -10.04043626932693 -0.02158210991099 -1.07975121762176
 6 -12.08842734363436  2.98748725032503 -1.54969806010601
 6 -12.51242898239824 -0.12258473797380 -2.08857981768177
 6 -12.31114124482448 -0.47783104750475 -3.58739691099110
 7 -7.37667662526253 -1.30070175537554 -0.19991852035204
 6 -8.53833542104210 -1.97877660446045 -0.75392875527553
 6 -8.08062050105011 -3.46682356455646 -0.80474304160416
 6 -6.73021793089309 -3.40747757605761 -0.27379500340034
 6 -6.47578868226823 -2.08541135973597  0.10595567176718
 6 -8.89065182278228 -4.63615436493649 -1.32299129352935
 6 -5.73429037423742 -4.41540657575758 -0.00547960236024
 8 -5.84742423262326 -5.66419594969497  0.02807554165417
 6 -4.57358498709871 -3.49097985958596  0.62120118221822
 6 -4.09535333323332 -3.86323041654165  2.00438696439644
 8 -4.38984405790579 -3.34477241114111  2.94485255335534
 8 -3.13255194279428 -4.89324429732973  1.81082151005101
 6 -2.71390609440944 -5.33539298539854  3.08520065966597
 6  2.68977114571457 -1.04255815341534 -1.01395542134213
 6  3.93589683648365 -0.50014051645165 -0.33340544064406
 6  4.89574183078308  0.30062111701170 -0.99477343394339
 6  4.80449964566457  0.74254498619862 -2.53452056885689
 6  6.21300304550455  0.57873561276128 -0.38726764096410
 6  7.41794303470347 -0.25076125902590 -0.97827469436944
 6  8.74405600670067  0.16450246514651 -0.27976632413241
 6  10.05088601430143 -0.56112043864386 -0.89330668546855
 6  9.80888692729273 -2.10431423432343 -1.08675796069607
 6  11.25868971917192 -0.09576389108911  0.01806125042504
 6  12.52850452465247 -0.60748606580658 -0.60208473157316
 6  13.79076766616662 -0.08861608780878  0.07830988648865
 6  15.20620953275327 -0.22272315381538 -0.53060661856186
 6  15.55580515231523 -1.70227909330933 -0.49637840614061
 6  16.23720446474648  0.53477799509951  0.32208123042304
 6  17.64460934973497  0.64550746844684 -0.24779868126813
 6  18.65362628692869  1.54834916381638  0.50026084228423
 6  20.08126002760276  1.57186499109911 -0.01381965446545
 6  20.25778647754775  2.06259283538354 -1.41761983978398
 6  20.89689221052105  2.35562690149015  0.92177396559656
 1 -4.05436309660966  3.21656288828883  2.16905178607861
 1 -9.81450930403040  4.22697994009401 -0.16987831053105
 1 -10.61622587898790 -2.08325548104810 -1.74802427552755
 1 -2.79039136613661 -1.52897213241324  2.34869574527453
 1 -2.08705001950195  1.38153837703770  1.70158307050705
 1 -2.19124938293829  0.48997536593659  3.98594769876988
 1 -2.99194468636864  2.06774182388239  3.68170836603660
 1 -3.78900849774978  0.25378056255626  4.11719689588959
 1 -2.09602511091109 -1.88809354245425 -0.11905635283528
 1 -2.55433877327733 -0.40238404740474 -0.59676637083708
 1 -0.33345916571657  0.28455230883088  1.12787314861486
 1 -0.53909424872487 -1.29089104770477  1.65487299569957
 1 -4.33610842734273  5.97542191029103  1.27130993079308
 1 -5.95916112251225  6.67832274697470  2.06812610721072
 1 -4.87859594639464  5.38408645264526  2.83282741674167
 1 -7.97546255565557  6.94941481598160  1.29818137203720
 1 -9.26281163306331  5.88387854835483 -1.35494708080808
 1 -9.41007575417542  7.48805753325333 -0.65348557145715
 1 -12.42137649964996  3.45237442464246 -0.62415022812281
 1 -11.66797064536454  3.73801775917592 -2.21825114191419
 1 -13.07213823662366  2.53478131383138 -2.11861621702170
 1 -12.79379175237524 -1.02963188988899 -1.67729248034803
 1 -13.57943496799680  0.49575373007301 -1.95327768656866
 1 -12.29310494039404  0.54105091819182 -4.13625096939694
 1 -11.35661062906291 -1.00749832343234 -3.54695364746475
 1 -13.28968572207221 -0.81974106890689 -4.09815735803580
 1 -9.72463901270127 -4.89670899069907 -0.55622792479248
 1 -9.46831080998100 -4.52629057505751 -2.25588248644864
 1 -8.25701087578758 -5.56097436443644 -1.05478343384338
 1 -3.68932078347835 -3.76824311451145 -0.21057240584058
 1 -2.05097549054905 -6.33339843554355  3.09760309440944
 1 -2.19165761216122 -4.55980946484648  3.52268671127113
 1 -3.42319533593359 -5.91541663326333  3.63291016661666
 1  2.46210011751175 -2.12006965046505 -1.05871703870387
 1  2.28826372087209 -0.79442702350235 -2.03199096629663
 1  4.22307507920792 -0.68811112541254  0.72459036203620
 1  5.04064589378938  1.80612312131213 -2.61142586238624
 1  5.31815843304330 -0.02950698819882 -3.36512791439144
 1  3.74354447264726  0.75112629942994 -3.01835266036604
 1  6.48782679887989  1.78090421542154 -0.65921611271127
 1  6.19196724142414  0.38118822922292  0.60094780218022
 1  7.21032781768177 -1.24611133573357 -1.08758951855186
 1  7.63357289978998  0.25283730433043 -2.14249907890789
 1  9.04466995439544  1.28706754805481 -0.11615146684668
 1  8.56065912871287 -0.32233638513851  0.91973478587859
 1  10.21435410401040 -0.16002344564456 -2.09576415141514
 1  8.80296061226123 -2.08529722292229 -1.76008455625563
 1  10.67533256435644 -2.57023862366237 -1.59534013891389
 1  9.77270229032903 -2.63126481208121 -0.06774504380438
 1  11.14639993739374  1.07457623772377  0.26369495469547
 1  11.23362932643265 -0.65486072257226  0.99309924012401
 1  12.53149786038604 -1.67227879907991 -0.55163837683768
 1  12.62576072827283 -0.18518859785979 -1.69212074577458
 1  13.45159631453145  0.92544225502550  0.08726163706371
 1  13.72345657265726 -0.37052348014802  1.17061390729073
 1  15.19137148134813  0.28414962106211 -1.48864087738774
 1  14.95694124702470 -2.32240482228223 -0.99674900810081
 1  16.47544141764176 -1.96238027462746 -1.07706349024902
 1  15.57538281708171 -1.92448758135814  0.56345561696170
 1  15.84076434963496  1.47917448774877  0.37848830783078
 1  16.04594925172517  0.08353897719772  1.22617604020402
 1  17.90595181688169 -0.47386159665967 -0.42064193199320
 1  17.68798338393839  0.88352024032403 -1.28271670417042
 1  18.29289397889789  2.56059245514551  0.66471186088609
 1  18.67223947814782  1.21825763526353  1.52124927492749
 1  20.32878921132113  0.41808976997700 -0.12242108590859
 1  19.98038539513951  3.23089135923592 -1.43577547994799
 1  21.29053629732973  1.76495456515652 -1.78438154475448
 1  19.45775074807481  1.63083870557056 -2.19432161366137
 1  20.77849308580858  2.14440590859086  1.93826486308631
 1  21.92676553375338  2.55607563496350  0.57696185328533
 1  20.58277790719072  3.49541274087409  1.23638237613761
 1 -6.86480831393139  1.65700457365737  0.05251709780978
 1 -7.48784033243324 -0.28546872287229  0.16966683908391

