%nproc=3
%Mem=2GB
# td=(NStates=1) B3LYP/SVP 

TD

0 1
 6 -5.16903460156016 -1.98945518761876  0.33245812171217
 6 -4.63578389738974  2.68015446714671  1.44668105400540
 6 -9.17210712041204  3.42822362156216 -0.34964343224322
 6 -9.90155821032103 -1.36699750315031 -0.93279583298330
 7 -5.27483664596460  0.44768639153915  0.66791522852285
 6 -4.54928354445445 -0.76715343634363  0.68071151455146
 6 -3.10742042854285 -0.66169260396040  1.23008800460046
 6 -3.01988695409541  0.80133902620262  1.86394550035004
 6 -4.29425861896190  1.27448726662666  1.23066666366637
 6 -2.96769533803380  0.80847836013601  3.30805866846685
 6 -1.97821989268927 -1.03613357505751  0.14926287188719
 6 -0.53690690289029 -0.90527874447445  0.79598205090509
 6  0.44287794919492 -1.26035290819082 -0.23398495609561
 8  0.11535330293029 -1.76564893149315 -1.34598821032103
 8  1.70647084418442 -1.00148692179218  0.01795935323532
 7 -6.96292088668867  2.78293556535654  0.53014252345235
 6 -5.76625820122012  3.29389380768077  1.15027588448845
 6 -6.10889407510751  4.73083952345235  1.20078657145715
 6 -7.37779687648765  5.00068890439044  0.60678720612061
 6 -7.96996794269427  3.66612510621062  0.24549470487049
 6 -5.26392690919092  5.70802631773177  1.85478674467447
 6 -8.10099738243824  6.23756776837684  0.55098359965997
 6 -8.83273117131713  6.59618934083408 -0.53619609840984
 7 -9.15661386198620  0.95090232323232 -0.59167163556356
 6 -9.75798966186619  2.16302880158016 -0.68927819701970
 6 -11.20864473097310  2.06019958095810 -1.11257509140914
 6 -11.36608055855585  0.67161450155016 -1.36148110281028
 6 -10.11481370707071  0.02781282958296 -0.96072931543154
 6 -12.12687118801880  3.22784128572857 -1.15112820312031
 6 -12.58245598509851 -0.09218169766977 -1.86937789748975
 6 -12.57332746344635 -0.45648891329133 -3.33127129842984
 7 -7.51772072967297 -1.25253693889389 -0.28624715321532
 6 -8.62620420792079 -2.05388411521152 -0.63126648904890
 6 -8.26871931093109 -3.41722860506051 -0.68000056735674
 6 -6.97106201530153 -3.48770559885989 -0.34719234313431
 6 -6.53873497689769 -2.09473229182918 -0.11458638243824
 6 -9.12387514511451 -4.56283703320332 -1.08399739413941
 6 -5.83876082128213 -4.37827286238624 -0.05095414981498
 8 -5.75679516971697 -5.59914944504450 -0.10486775267527
 6 -4.63156078467847 -3.37437819941994  0.43995305740574
 6 -3.98740253815382 -3.75540963446345  1.75485201090109
 8 -4.32877795129513 -3.26559449334933  2.85223329142914
 8 -3.27458614621462 -4.85513048594860  1.53118354625463
 6 -2.86499120292029 -5.46097554365437  2.85047718731873
 6  2.72531470007001 -1.08246214381438 -1.02040606640664
 6  4.16481972877288 -0.68582908530853 -0.47484958505851
 6  5.01414367096710  0.02854390929093 -1.14505846244624
 6  4.91584077977798  0.44876560826083 -2.58492560936094
 6  6.33028477367737  0.30170790999100 -0.34971388558856
 6  7.56640788118812 -0.53053923682368 -0.92699956685669
 6  8.74974657575758 -0.12310629572957 -0.02042038953895
 6  10.08746967266727 -0.71473580018002 -0.72771012581258
 6  9.96388242684269 -2.26400020292029 -0.80522980788079
 6  11.29394324452445 -0.21064537923792  0.29771921622162
 6  12.63787546174617 -0.59971528872887 -0.42373689678968
 6  13.78643723312331  0.14067684148415  0.22467452295230
 6  15.19515842764276  0.01931104960496 -0.47441099899990
 6  15.57940751255125 -1.58824769016902 -0.30893966226623
 6  16.20555129942995  0.78008252555255  0.32481150345035
 6  17.61331622042204  0.82116503420342 -0.30232413381338
 6  18.44614553885388  1.89998432733273  0.33947476367637
 6  19.99950185178518  1.75496330093009 -0.04959323182318
 6  20.24514521342134  2.09764634073407 -1.54190226802680
 6  20.85421794309431  2.64084542334233  0.86911870007001
 1 -4.01186884718472  3.16545777777778  2.16462134303430
 1 -9.82965081818182  4.30380762286229 -0.48640996369637
 1 -10.84147840424042 -2.15864301980198 -1.03166263936394
 1 -3.05393772077208 -1.55866510171017  2.15743661936194
 1 -2.12540385488549  1.29712993619362  1.43159607180718
 1 -2.07891814981498  0.25277164556456  3.78236734073407
 1 -2.84310980288029  1.92391744144414  3.72090228542854
 1 -3.80923051995200  0.25941112561256  3.77513268946895
 1 -2.25403091149115 -2.15185991909191 -0.25992043924392
 1 -2.18319165856586 -0.21669547854786 -0.70501719591959
 1 -0.30837665746575  0.06735058865887  1.22026238753875
 1 -0.35754609390939 -1.67099905850585  1.76278378677868
 1 -4.16532134863486  5.80648501660166  1.40488328812881
 1 -5.65570077647765  6.70036495119512  1.64995429002900
 1 -4.91234932173217  5.28440648464846  2.77600173417342
 1 -8.13386839623962  6.90080995549555  1.44826638053805
 1 -8.75755110701070  5.97522768326833 -1.51225281138114
 1 -9.35116986358636  7.63373210071007 -0.32902312521252
 1 -12.31664602660266  3.80017920512051 -0.29197701080108
 1 -11.93184703300330  3.80865482288229 -2.16428574537454
 1 -13.11791281408141  2.84252208790879 -1.45609996539654
 1 -12.83161553475347 -0.94459338603860 -1.32731748284828
 1 -13.39899692419242  0.52755691039104 -1.73217557635764
 1 -12.54484011391139  0.50653746684668 -3.88598594289429
 1 -11.63227819581958 -1.05953352695270 -3.60719967206721
 1 -13.45265201870187 -1.15417451225122 -3.39297683998400
 1 -9.89094564336434 -4.64215353515352 -0.18188049004900
 1 -9.73522750165016 -4.42417036303630 -2.03800069826983
 1 -8.34702987768777 -5.43470173717372 -1.08576653215321
 1 -3.98075992739274 -3.73351964216422 -0.41441278987899
 1 -2.10037043004300 -6.37185228092809  2.45834916901690
 1 -2.49312775917592 -4.59436292019202  3.40947539013901
 1 -3.76052906930693 -5.78017310891089  3.35548242384238
 1  2.77501140864086 -2.01359900340034 -1.45100626762676
 1  2.54416931143114 -0.34196177697770 -1.70585835303530
 1  4.38839161086109 -0.81682399669967  0.75209311231123
 1  5.74445627482748  1.51661417041704 -2.88553327312731
 1  5.32950956815682 -0.38701273877388 -3.37506890849085
 1  3.74249436763676  0.70463164996500 -2.88335916101610
 1  6.34452246844684  1.38101422642264 -0.55030522162216
 1  6.20199824452445  0.36256636703670  0.88963667106711
 1  7.36079286418642 -1.56143286788679 -0.86404716431643
 1  7.48593813631363 -0.17511549094909 -1.91642647164716
 1  8.89971545894589  1.07074591589159  0.04379452775277
 1  8.81867493029303 -0.51129528102810  1.05557837023702
 1  10.29979264786479 -0.25358280158016 -1.60060463546355
 1  9.10789110531053 -2.72918161136114 -1.18489703750375
 1  10.85498052915291 -2.40048164796480 -1.59230983588359
 1  10.11211623172317 -2.61967365296530  0.23648537923792
 1  11.01309660706071  0.91260004010401  0.35405399059906
 1  11.23313927742774 -0.59668490499050  1.35268519871987
 1  12.59876458705871 -1.72321389258926 -0.53678689168917
 1  12.57931608380838 -0.43042312131213 -1.66892842654265
 1  13.38003915881588  1.24306401720172 -0.05805289438944
 1  14.00356458345835 -0.11894832263226  1.24477132303230
 1  15.06028837303730  0.35436664276428 -1.52268428172817
 1  14.83525907880788 -2.24707728952895 -0.71552088528853
 1  16.53896777027703 -1.59533356995700 -0.79813559745975
 1  15.59029430823082 -1.81744687728773  0.86370564196420
 1  15.77001727492749  1.82287885818582  0.59641010001000
 1  16.33217787458746  0.43333395669567  1.32692611521152
 1  18.25225644734473 -0.04893910441044 -0.21043091089109
 1  17.44325891149115  1.15788767706771 -1.36112454495450
 1  18.10642533203320  3.03198959485949 -0.01674628492849
 1  18.44280653485349  2.18695450495050  1.55303245324532
 1  20.25861219361936  0.73506146714671  0.25079623582358
 1  20.08079543614361  3.25161343144314 -1.88214011641164
 1  21.15867311101110  1.73151122082208 -2.21168427502750
 1  19.42398737173717  1.30906652835284 -2.06702888438844
 1  20.95959119561956  2.42982445044504  1.87400843744374
 1  21.85926878407841  2.40721074847485  0.72110626772677
 1  20.53454308370837  3.83736693629363  0.64357309520952
 1 -7.17267910101010  1.77099597279728  0.40944279037904
 1 -7.68449999839984 -0.29409958595860 -0.26290641824182

