%nproc=3
%Mem=2GB
# td=(NStates=1) B3LYP/SVP 

TD

0 1
 6 -5.08158585668567 -1.96395263736374  0.34950982688269
 6 -4.71651197019702  2.67265371707171  1.36940332623262
 6 -9.25044495419542  3.44270506970697 -0.28692716061606
 6 -9.77460551505150 -1.35363616701670 -1.05989854325433
 7 -5.20974013631363  0.41388301120112  0.84149258625863
 6 -4.53029164526453 -0.71990871187119  0.89708315171517
 6 -3.00258994549455 -0.60027646234623  1.27486248204820
 6 -3.06136110151015  0.79290818311831  1.85351445724572
 6 -4.40481967506751  1.39594941284128  1.41982557955796
 6 -2.85884445294529  0.97308482078208  3.27723558615862
 6 -2.04676674737474 -0.96661662336234  0.13502144774477
 6 -0.65540875307531 -1.04333254985499  0.73230568326833
 6  0.50091375277528 -1.24231110401040 -0.29022057965797
 8  0.17494926252625 -1.63999636623662 -1.41013462496250
 8  1.71231142824282 -0.99543631673167 -0.04086652935294
 7 -7.01423601820182  2.82668994079408  0.57053656285629
 6 -5.87305888128813  3.29889430773077  1.04405526242624
 6 -6.12145533123312  4.74919135863586  0.98024451725173
 6 -7.46422551935193  5.05499433493349  0.57229375677568
 6 -8.11935288118812  3.68521701540154  0.32505266066607
 6 -5.17027754425443  5.86500201530153  1.45209647564756
 6 -8.11054833753375  6.30340435203520  0.47080558185819
 6 -9.02587048524852  6.64845456735674 -0.47689016781678
 7 -9.16399460006001  1.02825005800580 -0.48163063146315
 6 -9.75104896779678  2.17672017071707 -0.63366263546355
 6 -11.24016788328833  1.93318687968797 -1.00563439733973
 6 -11.40019396989699  0.55633297339734 -1.21419637433743
 6 -10.07861008670867  0.03842389068907 -0.89163240574057
 6 -12.17970647154715  3.02861136273627 -1.08290138043804
 6 -12.56543428292829 -0.11841432093209 -1.66499745944594
 6 -12.56669680038004 -0.32319558395840 -3.21823999529953
 7 -7.51436039363936 -1.25383706890689 -0.25050357885789
 6 -8.54455604310431 -1.89606833363336 -0.72143550595060
 6 -8.16639907890789 -3.31824870707071 -0.66752932023202
 6 -6.85171008010801 -3.31584841314131 -0.28158578247825
 6 -6.47532863626363 -2.08123094169417  0.02955803200320
 6 -9.02985574317432 -4.48647939743974 -1.19461845624562
 6 -5.75959290449045 -4.31161619671967 -0.00967002140214
 8 -5.77434692489249 -5.50561009110911 -0.18928619451945
 6 -4.47420504910491 -3.46035679727973  0.36803586568657
 6 -3.98545234313431 -3.92912700620062  1.74625115081508
 8 -4.23799887338734 -3.46275420932093  2.78752682078208
 8 -3.27920660826083 -5.00116508940894  1.59358978687869
 6 -2.85945064886489 -5.66940638673867  2.79492163176318
 6  2.67673984258426 -1.23754765236524 -1.01188521432143
 6  4.06630987778778 -0.80026052845285 -0.51488358845885
 6  4.89588184478448 -0.02194113921392 -1.10475443204320
 6  4.85599479517952  0.42499323102310 -2.59904702150215
 6  6.28542028722872  0.26759449864987 -0.44862377657766
 6  7.53923516391639 -0.27146332923292 -1.14418128502850
 6  8.74740634173417 -0.13161714681468 -0.30845919341934
 6  10.11657258295830 -0.78041236783678 -0.83006036083608
 6  9.96337237583758 -2.38185198809881 -0.79464874977498
 6  11.25628947914791 -0.28203251795180 -0.01872242794279
 6  12.66276795099510 -0.64154947214721 -0.52236675977598
 6  13.80194878427843  0.23749652345235  0.15269732523252
 6  15.22229114091409 -0.18201908340834 -0.30076363426343
 6  15.68325789758976 -1.66064492989299 -0.00667943624362
 6  16.18276902120212  0.84614913221322  0.33927294959496
 6  17.63382827162716  0.79700261796180 -0.17019092049205
 6  18.54648557285729  1.83892822172217  0.36747756395640
 6  19.99010091169117  1.81659946454645 -0.01911018351835
 6  20.18289898879888  2.26432300840084 -1.45713379117912
 6  20.75237775907591  2.66744808360836  1.01852364056406
 1 -3.74744240454045  3.38262949494949  1.84639952085209
 1 -10.08727658075808  4.12337958005801 -0.33716503920392
 1 -10.41333558995900 -1.97635479097910 -1.38166763986399
 1 -2.77709003600360 -1.30565980118012  2.06353722942294
 1 -2.34112542704271  1.44341456465647  1.44677758995900
 1 -2.03005326332633  0.50700706910691  3.82761186518652
 1 -2.84492998489849  2.00266531623162  3.57621781698170
 1 -3.76169576647665  0.46756194069407  3.74697987418742
 1 -2.31876738513851 -1.94521925502550 -0.43758820602060
 1 -2.12871621102110 -0.16008981798180 -0.71400809500950
 1 -0.43557937773777 -0.11706785318532  1.11094145544554
 1 -0.74242458175818 -1.64191615021502  1.75668317671767
 1 -4.32104692119212  5.73756812491249  0.69436223602360
 1 -5.69491469786979  6.79447436213621  1.75838513311331
 1 -4.55552363916392  5.81017906190619  2.42147628162816
 1 -7.96026103550355  7.27867774227423  1.10837239113911
 1 -9.04096944884489  5.76604676517652 -1.42150373647365
 1 -9.42948769536954  7.69730845834583 -0.62614283718372
 1 -12.32068643064307  3.28812800000000  0.00581276817682
 1 -11.89587343564356  3.78137209460946 -1.76195551235123
 1 -13.34497552035204  2.85798363406341 -1.50045440084008
 1 -12.71487386058606 -1.18311723842384 -1.31290604170417
 1 -13.58739576407641  0.47362151685169 -1.51313367216722
 1 -12.27019264916492  0.76685349844984 -3.60298764306431
 1 -11.65704067206721 -0.98654622822282 -3.28754770687069
 1 -13.33127988148815 -0.81021011581158 -3.74563210551055
 1 -9.76418296709671 -4.69124844464447 -0.39477177917792
 1 -9.40906488538854 -4.06505445144514 -2.11910880908091
 1 -8.40105528022802 -5.52250051705171 -1.35437339283928
 1 -3.83203505490549 -3.65871216141614 -0.36768811741174
 1 -1.83728412141214 -6.33968906460646  2.70059339343934
 1 -2.59666811321132 -4.75925940984098  3.35793023562356
 1 -3.53529654605461 -6.39570466206621  3.22799967556756
 1  2.84537844534453 -2.43462110561056 -1.25098626562656
 1  2.44403929842984 -0.70763834463446 -1.81301906910691
 1  4.32137490919092 -1.16382869716972  0.43098100110011
 1  5.08010984018402  1.56159866886689 -2.75369008880888
 1  5.57618423562356 -0.08705274277428 -3.35298670027003
 1  3.92361247944794  0.12768395519552 -2.94844566966697
 1  6.26712472867287  1.27225335033503 -0.40943113421342
 1  6.18671671637164  0.04151426182618  0.43703141054105
 1  7.38398518341834 -1.33434015861586 -1.32897365696570
 1  7.73053259575958  0.08650067066707 -2.04393922292229
 1  8.93374886228623  0.93756259755976 -0.24135398709871
 1  8.61754481728173 -0.58426257775778  0.77024983738374
 1  10.11565423402340 -0.38825626892689 -1.69808438343834
 1  9.19294961116112 -2.65065375857586 -1.36750529832983
 1  10.88969400050005 -2.83565516531653 -1.08632923782378
 1  9.82094711481148 -2.65266695229523  0.23153488418842
 1  11.15010030743074  0.82674145424542  0.24106269146915
 1  10.98703466696670 -0.89423465996600  1.00593052325232
 1  12.82214692529253 -1.80421199239924 -0.36453966696670
 1  12.68110626282628 -0.57357743674367 -1.60191172487249
 1  13.74663581848185  1.32082179297930 -0.07234432353235
 1  13.71534576157616  0.19511308350835  1.31044789068907
 1  15.17504984918492 -0.15441423532353 -1.50622263556356
 1  14.87852340524052 -2.51629421122112 -0.23729306250625
 1  16.56798067156716 -1.95790982758276 -0.53710949484948
 1  15.64432971177118 -1.85404053665366  1.14264353575357
 1  15.58735900910091  1.97676424672467 -0.06348588958896
 1  16.36699135593559  0.85022564586459  1.56973039563956
 1  17.96790801250125 -0.09919412991299  0.19573970617062
 1  17.89958454405441  0.93784567286729 -1.17182561506151
 1  18.21615630513051  2.86457285318532  0.17264265396540
 1  18.47292954715472  1.65014082358236  1.62475962596260
 1  20.37233356575658  0.60568852985299  0.16395755195520
 1  19.95915327192719  3.30679894999500 -1.60502240464046
 1  21.16580382408241  2.03564163386339 -1.70571367796780
 1  19.53749872287229  1.58349397109711 -1.95415759725973
 1  20.83491872837284  2.28034950295030  1.96846788338834
 1  21.75038789598960  2.89565959335934  0.75459961706171
 1  20.15590521992199  3.67564076367637  0.94587332523252
 1 -7.49179101220122  1.82931180438044  0.47432927902790
 1 -7.57682923132313 -0.33399357535754 -0.29906003360336

