%nproc=3
%Mem=2GB
# td=(NStates=1) B3LYP/SVP 

TD

0 1
 6 -5.07451514961496 -1.84540078217822  0.27553242914291
 6 -4.92567288628863  2.81743819551955  1.44625101100110
 6 -9.52671258095810  3.19251005020502 -0.28869733763376
 6 -9.85111316581658 -1.58054885828583 -0.75677823122312
 7 -5.31138030033003  0.52233385628563  0.80175861286129
 6 -4.51929054515452 -0.60610733173317  0.78801224462446
 6 -3.03282296879688 -0.37787422212221  1.21907690349035
 6 -3.20185515091509  1.11434032633263  1.71266037183718
 6 -4.53156234933493  1.45728554645465  1.38460205720572
 6 -2.89109767826783  1.32204971727173  3.21598946154615
 6 -2.04473654435444 -0.77235719741974  0.17095504110411
 6 -0.62097530973097 -0.39920813741374  0.58476092879288
 6  0.38459212061206 -0.77386425932593 -0.53107466506651
 8  0.03191495909591 -1.09950231683168 -1.65025863736374
 8  1.70236043314331 -0.55615238833883 -0.21407385008501
 7 -7.20324491909191  2.82151942374237  0.55909541874187
 6 -6.14374594999500  3.43417783608361  1.13317417431743
 6 -6.55141832753275  4.87419385888589  1.09862635543554
 6 -7.70779987678768  5.04414324982498  0.53665019241924
 6 -8.30335128102810  3.59808830253025  0.20133028842884
 6 -5.65412592909291  5.93280879597960  1.56805807180718
 6 -8.61807909060906  6.20766477807781  0.36973547484748
 6 -9.44476237443744  6.44879460136014 -0.64135661446145
 7 -9.26630483108311  0.85935316831683 -0.43041550995100
 6 -10.05642950585058  1.91152365106511 -0.45348461766177
 6 -11.36615048154816  1.65749931093109 -0.89808364226423
 6 -11.47518146864686  0.25999333943394 -1.00982593729373
 6 -10.09346157185719 -0.21102105380538 -0.72257550005000
 6 -12.56006450735073  2.70480898249825 -1.04522761306131
 6 -12.64988272777278 -0.55124760426043 -1.55261622132213
 6 -12.54092422312231 -0.77660092449245 -3.14656282758276
 7 -7.49548850645064 -1.28422010721072 -0.13942247074707
 6 -8.60643223072307 -2.20281900870087 -0.45460882328233
 6 -8.07457989698970 -3.49689657185719 -0.45232780008001
 6 -6.70204511361136 -3.35167199549955 -0.20627825172517
 6 -6.38126923032303 -2.07490030863086 -0.02993791759176
 6 -8.88598135573557 -4.60526127562756 -0.95853484788479
 6 -5.49410635583558 -4.15976101120112 -0.12064111851185
 8 -5.25985547574757 -5.32570210031003 -0.23531079697970
 6 -4.36503413201320 -3.23062382398240  0.30969003110311
 6 -3.72348614651465 -3.69411350485049  1.58819534523452
 8 -3.91728680218022 -3.20071800570057  2.64214228232823
 8 -2.73629231683168 -4.62738771167117  1.38794922282228
 6 -1.98559326312631 -5.12142158825883  2.52615475507551
 6  2.63595576417642 -0.85432933053305 -1.27717174297430
 6  4.07978122492249 -0.72357285968597 -0.63851595169517
 6  4.98914117071707  0.08783983888389 -1.22841679827983
 6  5.03191238693869  0.88589932163216 -2.57477459425943
 6  6.29278102330233  0.20717845704570 -0.34442335653565
 6  7.50681192159216 -0.35268145104510 -1.16087295419542
 6  8.80404200530053 -0.14172815791579 -0.44476282378238
 6  10.09852077777778 -0.83711803840384 -0.79527688248825
 6  9.87505354395440 -2.41226502940294 -0.84676396129613
 6  11.29183303350335 -0.44457877257726  0.05921536583658
 6  12.74448612281228 -0.65326064326433 -0.53031755485549
 6  13.87968655805581 -0.04112133833383  0.26447850335034
 6  15.23751266306631 -0.30397127862786 -0.45467902580258
 6  15.54616418821882 -1.85560442584258 -0.29520828912891
 6  16.41966271057106  0.49392390969097  0.41651067336734
 6  17.72144703350335  0.51465438313831 -0.11668556995700
 6  18.77864878917892  1.27910223912391  0.67683850005001
 6  20.24783668526853  1.41097890249025  0.15072680018002
 6  20.21598229712971  2.20865744184418 -1.08608668646865
 6  21.20925344664467  1.91846318511851  1.23893568176818
 1 -4.22563022332233  3.39987121912191  1.79421430233023
 1 -10.27883573667367  3.99604684678468 -0.37195851855186
 1 -10.56978123452345 -2.19047620312031 -1.34708418151815
 1 -3.04065639263926 -1.03014224942494  2.26127700340034
 1 -2.38286960146015  1.79587981118112  1.13936684888489
 1 -2.09348960696070  0.42252862126213  3.63408251225122
 1 -2.69295478737874  2.38388343804380  3.57713790899090
 1 -3.80187978487849  0.96270145464546  3.82078725492549
 1 -1.94850035843584 -1.79728446154615  0.00460601340134
 1 -2.29677301670167 -0.25769957895790 -0.76927362156216
 1 -0.36416223602360  0.65802965656566  0.70599096039604
 1 -0.43422376167617 -0.95424738333833  1.58715622402240
 1 -4.54194901140114  5.62417678577858  1.26265906570657
 1 -6.11973718011801  6.82144705940594  1.22550184478448
 1 -5.30713880068007  5.96297434143414  2.67510164416442
 1 -8.50974598399840  7.10159003350335  0.96569812371237
 1 -9.72240759265927  5.66184634513451 -1.48566015211521
 1 -10.12947769436944  7.52078080558056 -0.57391761466147
 1 -12.91663602560256  3.17980716791679 -0.04661247434744
 1 -12.43948779707971  3.56111006840684 -1.82076139293929
 1 -13.52772379517952  2.07413524922492 -1.44114847024703
 1 -12.87318969216922 -1.61462038873887 -1.17726247734773
 1 -13.52313933843384  0.06789094379438 -1.31776413521352
 1 -12.84392002190219  0.09291610471047 -3.69249659395940
 1 -11.67143211121112 -1.28773634723472 -3.34075302740274
 1 -13.45313206670667 -1.53888298309831 -3.47613515581558
 1 -9.79986653545355 -4.46689600940094 -0.47686998899890
 1 -9.09871385028503 -4.49382732873287 -2.02017891609161
 1 -8.50187536223622 -5.48766703370337 -0.61751970747075
 1 -3.79148099949995 -3.24455074527453 -0.62309365796580
 1 -1.13738413141314 -5.71189628532853  2.09889322342234
 1 -1.55089353575358 -4.35993947784778  3.10771521412141
 1 -2.81402441884188 -5.40014510611061  3.13380025562556
 1  2.42765667316732 -1.79543718721872 -1.65795696269627
 1  2.53269816431643  0.00835325452545 -2.04336210341034
 1  4.41363413511351 -1.00714302860286  0.49189709270927
 1  5.59015084428443  1.78009051805181 -2.39919463926393
 1  5.71445806300630  0.36419238173817 -3.17545894749475
 1  3.87159727792779  1.01457264406441 -2.85709653475348
 1  6.47178519471947  1.19879600460046  0.10173998289829
 1  6.06584462916292 -0.33658354795480  0.56124383178318
 1  7.28170495539554 -1.36245296989699 -1.28873963356336
 1  7.55462500500050  0.15134715531553 -2.24695952495250
 1  9.01430691809181  0.88620746204620 -0.28985883758376
 1  8.74554761756175 -0.44585873737374  0.66047886028603
 1  10.28428109670967 -0.39485692899290 -1.76192076707671
 1  8.95869618581858 -2.70996969016902 -1.68579712751275
 1  10.79614464556456 -2.96989858965897 -1.41551215611561
 1  9.76967198729873 -2.81824350995100  0.20327205790579
 1  11.04140943834383  0.51908068816882  0.40438902410241
 1  11.24829079257926 -0.85939117561756  0.94327425762576
 1  12.82107681828183 -1.93446501770177 -0.50568378137814
 1  12.77365551775177 -0.44189426842684 -1.67158869256926
 1  13.76274742964296  1.01014072487249  0.32138504940494
 1  14.08632285928593 -0.49936636443644  1.32139898579858
 1  15.22651499569957 -0.11741053495350 -1.51105311861186
 1  14.56532208510851 -2.46768935073507 -0.72325165836584
 1  16.39062293579358 -2.21907594419442 -0.84816059996000
 1  15.59973525232523 -2.21377651025103  0.91363063446345
 1  15.91619189238924  1.54124069436944  0.30852131113111
 1  16.38387304410441  0.05117574087409  1.41162458505851
 1  18.14113533523352 -0.46076028652865 -0.20156002380238
 1  17.60871545714571  1.03489537783778 -1.19271770427043
 1  18.58476316581658  2.42145854175418  0.78654404410441
 1  18.77263951815182  0.94297010651065  1.79434658465847
 1  20.53343967636764  0.33320128112811 -0.09957880168017
 1  20.11590894749475  3.33057132723272 -0.90463236563656
 1  21.24006124982498  2.28720679037904 -1.26943004960496
 1  19.53756872987299  1.80617623932393 -1.96636881838184
 1  21.27165240174018  1.29405087308731  2.24019505610561
 1  22.25527838503850  2.05959598699870  0.78081223832383
 1  20.57208683808381  2.96588978857886  1.69222796069607
 1 -7.19995182828283  1.62949182238224  0.63066491259126
 1 -7.58630017841784 -0.26915709170917 -0.09051917951795

