%nproc=3
%Mem=2GB
# td=(NStates=1) B3LYP/SVP 

TD

0 1
 6 -5.16642434053405 -1.94810105220522  0.57847272317232
 6 -4.67821814081408  2.86852330403040  1.45342172807281
 6 -9.22543245294529  3.21996279547955 -0.33061152905291
 6 -9.71024907940794 -1.45778658205821 -1.05804835823582
 7 -5.22110127242724  0.45913753665367  0.96956539353935
 6 -4.49990860696070 -0.68344506550655  0.98600204360436
 6 -3.08681836833683 -0.63989042374237  1.39585458125813
 6 -3.07605257065707  0.81190008230823  1.88876798259826
 6 -4.40570976407641  1.40409022692269  1.37522111911191
 6 -3.00023859235924  0.92084959725973  3.42914077667767
 6 -2.14808687938794 -0.62571253295330  0.00699864546455
 6 -0.71626483868387 -0.57333555015502  0.43349580228023
 6  0.38694235563556 -0.76691356425643 -0.68446000360036
 8 -0.00965919831983 -1.17176954355436 -1.78746235773577
 8  1.62062225932593 -0.61501827492749 -0.32888533123312
 7 -6.95692028662866  2.61578885068507  0.53783329252925
 6 -5.89530110551055  3.37328174647465  0.96407726462646
 6 -6.19006219191919  4.78592503200320  0.95918241104110
 6 -7.47891698849885  4.91090992649265  0.44190071747175
 6 -7.96856780268027  3.50057855155516  0.17228738413841
 6 -5.31119163566357  5.94512002710271  1.52740400640064
 6 -8.15802308500850  6.16982099369937  0.29948845014501
 6 -9.02474037223722  6.65346506840684 -0.67632011081108
 7 -9.14190239083908  0.72681991499150 -0.45099756815682
 6 -9.78189205210521  1.96464896359636 -0.50950021922192
 6 -11.21469533603360  1.77496105710571 -0.90490432433243
 6 -11.34603855435543  0.40249758985899 -1.13362831753175
 6 -10.14315654135413 -0.16180613231323 -0.86996023852385
 6 -12.16543504440444  2.90687918951895 -1.06364945524552
 6 -12.65235297479748 -0.23298577807781 -1.59935089478948
 6 -12.60192032273227 -0.46427969236924 -3.21401957325733
 7 -7.44964392199220 -1.35791747694769 -0.30765929442944
 6 -8.51901348884888 -2.07787651445145 -0.77522088448845
 6 -8.08875131413141 -3.44320120232023 -0.68784135143514
 6 -6.80501541064106 -3.43835066336634 -0.21922954685469
 6 -6.46507761116112 -2.11270408900890  0.05117019321932
 6 -8.81853461106111 -4.54685543504350 -1.13850284468447
 6 -5.68302524772477 -4.27477251235123  0.04578552415242
 8 -5.58683817401740 -5.52854238433843 -0.03549081498150
 6 -4.47821545014501 -3.30050081168117  0.53485254735474
 6 -4.01654545244524 -3.83315740924092  1.87084361006101
 8 -4.27199227272727 -3.46960489438944  2.96497456555656
 8 -2.99173786138614 -4.78680365326533  1.68293872177218
 6 -2.45523022682268 -5.45274472057206  2.89134127372737
 6  2.56103827242724 -0.78379227682768 -1.36905093089309
 6  3.95529877667767 -0.68057856025603 -0.61573367346735
 6  5.03240549714971  0.12358341324132 -1.02257621422142
 6  4.90223941964196  1.04810554225423 -2.28807592439244
 6  6.18181992719272  0.14962270147015 -0.21161007520752
 6  7.47146838723872 -0.21668785168517 -1.06913378027803
 6  8.82228382948295 -0.25896988208821 -0.10893924142414
 6  10.04600552625263 -0.79274360096010 -0.87358471327133
 6  9.82229826842684 -2.31965576847685 -1.17050633553355
 6  11.23606745694570 -0.46059037373737  0.01564100840084
 6  12.63195486968697 -0.66778209540954 -0.71975649874988
 6  13.73966255565557 -0.14321154735474  0.20566262176218
 6  15.22794170597060 -0.28634951645165 -0.46589014691469
 6  15.63470304210421 -1.71045991139114 -0.38589735803580
 6  16.17539828412841  0.69617413471347  0.34262328462846
 6  17.65677056585659  0.63170608830883 -0.11772567396740
 6  18.45424634893489  1.67010133903390  0.61103191939194
 6  20.02906480808081  1.63456126072607  0.26431815931593
 6  20.38667936683668  1.89012558865887 -1.20021809960996
 6  20.76492901420142  2.59062040084008  1.15430721892189
 1 -3.85715337563756  3.45095632763276  1.67205208610861
 1 -9.85968382148215  4.09806704880488 -0.38069939263926
 1 -10.50839509590959 -2.19548670417042 -1.43068254135413
 1 -2.92425475247525 -1.46359559475948  2.19901077677768
 1 -2.29278059255926  1.61806202940294  1.64171708390839
 1 -2.19767002500250  0.67888425682568  3.93751285528553
 1 -3.21574706660666  2.03721877157716  3.75665586078608
 1 -4.04854445134513  0.47940312481248  3.81512668886889
 1 -2.35668117651765 -1.51400613371337 -0.50320476767677
 1 -2.50389372877288  0.24325051605160 -0.56272296649665
 1 -0.38386420622062  0.34602845644564  0.94191455275528
 1 -0.50247058635864 -1.54221618021802  1.10556806520652
 1 -4.06973178967897  5.80428479657966  1.29809260906091
 1 -5.64994020042004  6.93913882858286  1.18589788438844
 1 -5.43789187598760  5.71223926792679  2.52579671367137
 1 -8.00379538893889  6.96119599409941  1.11484303820382
 1 -9.54300965286529  6.08258841934193 -1.54194578067807
 1 -9.31817656425642  7.68630735823582 -0.74731495439544
 1 -12.34264862686269  3.40504969216922 -0.18478629172917
 1 -11.83147699599960  3.64118807620762 -1.74274359115912
 1 -13.14428545134513  2.64541237693769 -1.49145350075008
 1 -12.77801017421742 -1.18310723742374 -1.09722447354735
 1 -13.52579960446045  0.36873102780278 -1.10025238403840
 1 -12.30388601850185  0.63331014411441 -3.36067341164116
 1 -11.71593656165617 -1.08200577417742 -3.47127607970797
 1 -13.53165991949195 -0.81549064386439 -3.81288883118312
 1 -9.58719526832683 -4.71589090889089 -0.22293459545955
 1 -9.29565354425443 -4.50901884788479 -2.05680257845785
 1 -8.28404357905791 -5.54999326632663 -1.18960691619162
 1 -3.80893274467447 -3.48659494969497 -0.19464081268127
 1 -1.59400979397940 -5.96812190789079  2.48543187728773
 1 -2.03179162556256 -4.77355083898390  3.61629607220722
 1 -3.28888190459046 -6.15080017161716  3.16396327192719
 1  2.39371327882788 -1.80012765626563 -1.96505767276728
 1  2.30036493099310 -0.03925150595059 -2.24930269746975
 1  4.02895566726673 -1.09326164046405  0.27100500350035
 1  5.36348817801780  1.94043655265526 -2.28230295009501
 1  5.60262687988799  0.76361232373237 -3.12381378297830
 1  3.90520063826383  1.02039322612261 -2.72276310141014
 1  6.35431344754475  1.13796992199220  0.09536934583458
 1  6.00548859355936 -0.52205209480948  0.66752445984598
 1  7.34735152005200 -1.10122684728473 -1.70789154875488
 1  7.52182172467247  0.73144516511651 -1.71813664266427
 1  9.03573906130613  0.80975981728173  0.31536168446845
 1  8.54291735453545 -0.81124527602760  0.81441425382538
 1  10.12825549414941 -0.32522996629663 -1.86571114611461
 1  9.00421073727373 -2.48726741994199 -1.73128167596760
 1  10.74130916201620 -2.71185278507851 -1.76249685458546
 1  9.82577759785979 -2.99149083468347 -0.39809807910791
 1  10.94253955135514  0.54097287738774  0.46347493269327
 1  11.10439640314031 -1.00092532903290  0.99560949114911
 1  12.80855556615662 -1.69897146834683 -1.12750596359636
 1  12.69781793399340  0.05102502350235 -1.57892942664266
 1  13.42474362926293  0.91348105890589  0.45982889378938
 1  13.63977820482048 -0.55044147194720  1.15339218511851
 1  15.09651199539954  0.00295150125013 -1.72923493679368
 1  14.84408996189619 -2.55040762256226 -0.74741407460746
 1  16.61884575807581 -1.81331536813681 -1.18604438833883
 1  15.88059333813381 -2.13868900150015  0.65463473487349
 1  15.87991826502650  1.80372694299430  0.22408286728673
 1  16.19499415621562  0.43946456975698  1.47195061766177
 1  18.05126634833483 -0.48890310081008  0.28913904610461
 1  17.70094468006801  0.73126501480148 -1.16967540004000
 1  18.06981167066707  2.65443183908391  0.47500288998900
 1  18.17543979817982  1.54362017151715  1.65119226922692
 1  20.19021535393539  0.66141410241024  0.48920007620762
 1  20.18661601820182  3.13541181128113 -1.49411131353135
 1  21.34293153685369  1.84248231793179 -1.66344945154515
 1  19.82512748574857  1.20972659435944 -1.98142032353235
 1  20.80502573907391  2.36212768076808  2.24419545614561
 1  21.93805666286629  2.76814684208421  0.96172032913291
 1  20.44010363976398  3.44025722532253  1.05714445234523
 1 -7.07145897899790  1.57337621082108  0.46120796689669
 1 -7.72938448684868 -0.32953312931293 -0.18450857845785

