%nproc=3
%Mem=2GB
# td=(NStates=1) B3LYP/SVP 

TD

0 1
 6 -5.06924462256226 -1.96864310641064  0.35447032293229
 6 -4.73268358735874  2.75419187088709  1.29011539743974
 6 -9.23583349304930  3.31508230743074 -0.17114558245825
 6 -9.80326838133813 -1.50844164756476 -0.80485303870387
 7 -5.18375753805381  0.46665828872887  0.77376581358136
 6 -4.46198481458146 -0.76619334033403  0.75190863426343
 6 -3.01585127162716 -0.57065350005001  1.22297729352935
 6 -3.13235820122012  0.84145303760376  1.91312041784178
 6 -4.41042023512351  1.38343816171617  1.20440403740374
 6 -3.26696526502650  0.80900841314131  3.55673353595360
 6 -2.06787885858586 -0.77405736743674  0.14977292289229
 6 -0.65427864006401 -0.89854807140714  0.61370382308231
 6  0.31228488988899 -0.96425329822982 -0.50196175377538
 8 -0.01939017141714 -1.65350771737174 -1.61205481698170
 8  1.65543574067407 -0.67373414651465 -0.27891033373337
 7 -6.97695228982898  2.81450872267227  0.51797130633063
 6 -5.80624219961996  3.39584400270027  0.94911576847685
 6 -6.08841202690269  4.77199363886389  0.95088158095810
 6 -7.42363145994599  4.97024586008601  0.54582110951095
 6 -7.99157010291029  3.60787928162816  0.21962211761176
 6 -5.16326684318432  5.88281379647965  1.50301156715672
 6 -8.17295457815782  6.16804081568157  0.46600510181018
 6 -8.97032493069307  6.55868559045905 -0.63947642644264
 7 -9.18017621822182  0.89581681468147 -0.37219968836884
 6 -9.81972583548355  2.06196869556956 -0.51344061326133
 6 -11.20976484298430  1.94843840484048 -0.93965779967997
 6 -11.41760571107111  0.59233657375738 -1.12320727542754
 6 -10.16208843454345 -0.08231818351835 -0.77184042654265
 6 -12.20434893579358  2.95277377897790 -1.22320541084108
 6 -12.51148888838884 -0.28815129462946 -1.57857881758176
 6 -12.56966709740974 -0.27589085348535 -3.15929410071007
 7 -7.53416237383738 -1.20259194439444 -0.19569809830983
 6 -8.60298188568857 -2.05789451625163 -0.59657301970197
 6 -8.17093953295330 -3.40190707290729 -0.63222578987899
 6 -6.87018192729273 -3.32674950325032 -0.18364598849885
 6 -6.47914901830183 -2.02014483308331  0.03458853505351
 6 -9.06395915351535 -4.60171092059206 -1.01096009040904
 6 -5.72075902110211 -4.30877591269127  0.05562650825083
 8 -5.66260575077508 -5.49795932603260 -0.06146341224122
 6 -4.51704933353335 -3.35791655325533  0.47403646574657
 6 -3.92328612651265 -3.86554064756476  1.79766629232923
 8 -4.24885995949595 -3.39334726862686  2.81977004510451
 8 -3.07450613821382 -5.00725569846985  1.64818524642464
 6 -2.68620332413241 -5.63820326642664  2.83371551115111
 6  2.71619378797880 -1.10232413001300 -1.26869089488949
 6  3.91635488228823 -0.60405090749075 -0.71432353245325
 6  4.94086634323432  0.02330338523852 -1.31834579117912
 6  4.78360755645565  0.63470420212021 -2.67373449024902
 6  6.20042178737874  0.20755849504950 -0.54096301050105
 6  7.43351459185919 -0.42452863576358 -1.09918678557856
 6  8.80386198729873 -0.06044002910291 -0.36383473097310
 6  10.06275720142014 -0.58429275587559 -0.99250660546055
 6  10.13902994159416 -2.18014181708171 -0.84585387028703
 6  11.27869171937194 -0.09865418011801 -0.16304686038604
 6  12.64816649084909 -0.27995331253125 -0.73377790089009
 6  13.70979956935694  0.17550032383238  0.20602265776578
 6  15.23028193999400 -0.18086896839684 -0.27317087498750
 6  15.54253382518252 -1.76591545694569 -0.18379714801480
 6  16.31495223952395  0.75396991429143  0.46274529682968
 6  17.68988387718772  0.68654157185719 -0.06417031843184
 6  18.59168009230923  1.62912724162416  0.78920973717372
 6  20.00396229782978  1.59534733933393  0.21033276077608
 6  20.35584628352835  1.97710428652865 -1.27870594839484
 6  20.97836035733573  2.52273361216122  1.13561534973497
 1 -4.05222288258826  3.46901813381338  2.05143002390239
 1 -9.83803165626563  4.29424666676668 -0.30491181388139
 1 -10.36036029242924 -2.11807896339634 -1.38555802890289
 1 -2.98161048804881 -1.38625786098610  2.08165904160416
 1 -2.32056337083708  1.67448767196720  1.83336624882488
 1 -2.41641189918992  0.34092046044605  3.86318542254225
 1 -3.46210170207021  1.85196024572457  4.03562375757576
 1 -4.15358495539554 -0.19284409990999  3.63920909710971
 1 -1.98945445384538 -1.77703243634363 -0.48901334853485
 1 -2.43395673507351  0.00205639663966 -0.74711140534053
 1 -0.28083390319032 -0.06093223962396  1.30324068536854
 1 -0.42085242454245 -1.92846480508051  1.20268777717772
 1 -4.45800061656166  6.03000736883688  0.97178997879788
 1 -5.77371257765777  6.78951386608661  1.40620991559156
 1 -5.26461454825483  5.39594763876388  2.55975010901090
 1 -8.00614562396240  6.66897677217722  1.47935948984898
 1 -8.94971032293229  5.75730589108911 -1.44572615871587
 1 -9.43129787638764  7.50673940144014 -0.40456067896790
 1 -12.22600696269627  3.73728291549155 -0.38377619071907
 1 -12.24023787208721  3.71724568196820 -2.09369868666867
 1 -13.20289131193119  2.45090292599260 -1.37995235063506
 1 -12.66887926112611 -1.31153007970797 -1.01144589568957
 1 -13.49640666516652  0.25564971967197 -1.38743110191019
 1 -12.44724035393539  0.76466327942794 -3.84113145744574
 1 -11.41872684068407 -0.65842341594159 -3.56031498359836
 1 -13.24068082158216 -0.95149424422442 -3.63388093039304
 1 -10.02309885868587 -4.72750207000700 -0.62887518951895
 1 -9.58117209610961 -4.47263520952095 -1.89216611481148
 1 -8.53705888058806 -5.51234950195020 -0.91873982948295
 1 -3.75351720312031 -3.46772306250625 -0.30541188978898
 1 -2.31479187218722 -6.70491558725873  2.43441677577758
 1 -1.82942138853885 -4.97025050895090  3.25066950955096
 1 -3.65615863226323 -5.78503359495950  3.41471834743474
 1  2.53792770027003 -2.21493913741374 -1.24677584458446
 1  2.51576647114711 -0.69604718551855 -2.15791355855586
 1  3.97668043974397 -0.96583889818982  0.24323222622262
 1  5.15774760396040  1.62704521352135 -2.75082980278028
 1  5.50675729292929  0.13568953145315 -3.35930733233323
 1  3.75723584178418  0.56416760356036 -3.12176300140014
 1  6.50665868206821  1.38611473647365 -0.50529072017202
 1  6.16043408810881 -0.10244013361336  0.47148485588559
 1  7.43309009390939 -1.56617334193419 -1.11410216981698
 1  7.52707224972497 -0.21327930733073 -2.25111994099410
 1  8.80013550095009  0.91711055235524 -0.40952080378038
 1  8.83960702350235 -0.37161131263126  0.57505031743174
 1  10.27340000860086 -0.34206164946495 -2.02517709270927
 1  9.18012832903290 -2.64253294649465 -1.28280682848285
 1  11.01910694179418 -2.54755635543554 -1.53550415531553
 1  10.35276029612961 -2.54013569916992  0.29103083378338
 1  11.02859815721572  1.10107888798880 -0.19678109290929
 1  11.44662062556256 -0.44696993349335  0.91214114431443
 1  12.95872058265827 -1.31757332853285 -1.19449266226623
 1  12.75121327352735  0.18070799179918 -1.74694622832283
 1  13.57173832873287  1.23598330913091  0.34421733263326
 1  13.58755298229823 -0.26600302810281  1.46388323422342
 1  15.17891023522352 -0.16246504040404 -1.39762177547755
 1  14.93047860076008 -2.34600718251825 -0.57047638083808
 1  16.32261613511351 -2.04364840144014 -0.71368715261526
 1  15.74153943274327 -2.02540767336734  0.78537780918092
 1  15.78516879007901  1.66661323162316  0.47159761876188
 1  16.19609426622662  0.51740236353635  1.48400182278228
 1  17.97049827152715 -0.32320653115312  0.02969310151015
 1  17.74591917751775  0.85072696099610 -1.20881931443144
 1  18.16799148864887  2.66103249914992  0.64274966466647
 1  18.59258151235124  1.19382519201920  1.83322047204720
 1  20.46181251365136  0.52175013601360  0.43404456065607
 1  20.00970832743274  3.10229849995000 -1.66347825022502
 1  21.55656289999000  1.91861993169317 -1.03246635323532
 1  19.91637661066106  1.20230585228523 -1.89247142864286
 1  20.68970420692069  2.22616408440844  2.18983001960196
 1  21.94770762796280  2.58599862726273  0.88521267836784
 1  20.65060468986899  3.48854205380538  0.97604634253425
 1 -7.06087792089209  1.70226910011001  0.65858770487049
 1 -7.87954950335033 -0.18306848284828 -0.05160528812881

