%nproc=3
%Mem=2GB
# td=(NStates=1) B3LYP/SVP 

TD

0 1
 6 -5.03334103220322 -1.86830307240724  0.54755963186319
 6 -4.82795311431143  2.74691114281428  1.23432981888189
 6 -9.43596350605061  3.31559235843584 -0.23224169206921
 6 -9.75253330783078 -1.58465926932693 -0.77745029842984
 7 -5.13991315361536  0.42073369626963  0.84821325832583
 6 -4.46220483658366 -0.71136785778578  0.82666611001100
 6 -3.00346003250325 -0.52241867656766  1.28260325612561
 6 -2.94513947934793  1.02601149344934  1.77791689748975
 6 -4.42559175227523  1.33910372827283  1.29992358935894
 6 -2.90031860036004  0.96107361966197  3.34459232183218
 6 -1.98310038073807 -0.76666662836284  0.04020196579658
 6 -0.61025423762376 -0.76960517711771  0.58850130283028
 6  0.35493915531553 -0.96771364426443 -0.55930748834883
 8  0.02559432703270 -1.19060142674267 -1.75511912341234
 8  1.63223342044204 -0.69024579767977 -0.28833127582758
 7 -7.13306790139014  2.68971624342434  0.38075758495850
 6 -6.03338491389139  3.27497191549155  0.98305916281628
 6 -6.36430961666167  4.78779521902190  0.92764925772577
 6 -7.57775687248725  4.97233606910691  0.44056058345835
 6 -8.03753469936994  3.55063355705571  0.06066622202220
 6 -5.40621113761376  5.78755427052705  1.44824609060906
 6 -8.29321660436043  6.28058206980698  0.26660516181618
 6 -9.04154205240524  6.58998872077208 -0.73118559735974
 7 -9.20826902750275  0.83464069706971 -0.43544601300130
 6 -9.96811067396740  2.05354785348535 -0.57572684188419
 6 -11.36203006950695  1.79856341734173 -1.00414424832483
 6 -11.48203215371537  0.42648998909891 -1.01392634733473
 6 -10.13871609730973 -0.21690164186419 -0.76308955145515
 6 -12.39650815171517  2.84551305290529 -1.07742083238324
 6 -12.72017975747575 -0.25580806030603 -1.52499345904590
 6 -12.81623175387539 -0.57879114351435 -3.01573974527453
 7 -7.43158211581158 -1.30566225142514 -0.12812134063406
 6 -8.51456304380438 -2.07834656145615 -0.53212657505751
 6 -8.18982142114212 -3.51865874807481 -0.49964253155316
 6 -6.79854476357636 -3.45560238853885 -0.11019864376438
 6 -6.39331043444344 -2.11038385698570  0.18294337053705
 6 -9.06727948554856 -4.59507025652565 -0.88645764016402
 6 -5.65493243844384 -4.26935197029703  0.08249919551955
 8 -5.46430592079208 -5.51721125122512 -0.05024229012901
 6 -4.38664629322932 -3.27769853145315  0.43842290439044
 6 -3.77054085198520 -3.83435752925293  1.74770129582958
 8 -4.05420049354935 -3.40502843674367  2.80740880898090
 8 -2.97316600420042 -4.77494246714671  1.55063549144914
 6 -2.21260596439644 -5.47679712581258  2.67987012661266
 6  2.64676684528453 -0.86224012161216 -1.31912593839384
 6  3.99977322412241 -0.54599510191019 -0.82960506060606
 6  4.91958421502150  0.38456951185118 -1.16730068666867
 6  4.80393958965897  1.27841857355736 -2.38820593739374
 6  6.28677042224222  0.48322606180618 -0.34868378257826
 6  7.49807104750475 -0.06530271317132 -1.20490735763576
 6  8.76862846394640 -0.11535552065207 -0.26712506000600
 6  9.99373029872987 -0.67770209680968 -0.92116947174717
 6  10.01209724832483 -2.22395619851985 -1.08818810371037
 6  11.21815566576658 -0.27767208190819  0.00275972027203
 6  12.60603227742774 -0.51129644684468 -0.67236175927593
 6  13.77217580698070  0.05984875867587  0.04238629412941
 6  15.22845175697570 -0.23662454395440 -0.39627318521852
 6  15.52036160796080 -1.71159002440244 -0.57906667496750
 6  16.31062180648065  0.44484900220022  0.50428945124512
 6  17.67307219601960  0.66613953165317 -0.19858375977598
 6  18.63356428072807  1.35266959585959  0.82428324452445
 6  20.11279318091809  1.40154795939594  0.45015674317432
 6  20.29622032093209  1.80061663776378 -1.05803388118812
 6  20.97491001230123  2.11341268006801  1.44906669486949
 1 -4.05549320962096  3.42123335533553  1.55824070497050
 1 -9.94200205330533  4.18595583768377 -0.26728805150515
 1 -10.57440169656966 -2.40999815531553 -0.72701217431743
 1 -2.75454778177818 -1.11047028222822  2.03103397909791
 1 -2.15911722622262  1.54194441764176  1.30956386858686
 1 -1.92070232823282  0.57243361176118  3.55070417441744
 1 -2.83972946484648  2.02403745344534  3.66646684188419
 1 -3.46376597349735  0.23485867036704  3.87618279447945
 1 -2.10479598799880 -1.75358009110911 -0.28634308150815
 1 -2.33285662506251 -0.02050585958596 -0.54677137133713
 1 -0.20104592439244  0.14075792939294  1.13960432173217
 1 -0.38335867516752 -1.52658461706171  1.35033254165417
 1 -4.42254707120712  5.80475484358436  0.80046284608461
 1 -5.67172237863786  6.85995090979098  1.59705900050005
 1 -4.94766285308531  5.87126517051705  2.51531566556656
 1 -8.18997400680068  6.94819469396940  1.04087564146415
 1 -9.30453580548055  5.85878603910391 -1.53675526162616
 1 -9.90785553215321  7.48291701920192 -0.87928815171517
 1 -12.39895425742574  3.52683187038704 -0.33046085918592
 1 -12.43866771507151  3.47871182858286 -1.97699701650165
 1 -13.39894091689169  2.54855269096910 -1.27382173757376
 1 -12.85936831003100 -1.40362928962896 -1.16261101220122
 1 -13.61805883038304  0.43727788248825 -1.24957731653165
 1 -12.39870550045004  0.38019483258326 -3.64058140244024
 1 -12.13998896689669 -1.37809538313831 -3.37051600370037
 1 -14.00947770127013 -0.57274636943694 -3.29035657795780
 1 -9.97341389018902 -4.65155447524752 -0.37986028802880
 1 -8.96202018091809 -4.65837378337834 -1.91308820702070
 1 -8.55394056875688 -5.52239050605061 -0.52676063156316
 1 -3.52100395179518 -3.42942923312331 -0.20588193679368
 1 -1.63431382438244 -6.15735083078308  2.32868620272027
 1 -1.75093353975398 -4.60710419431943  3.17455189778978
 1 -2.95887890429043 -5.71702679427943  3.42958983458346
 1  2.66053996149615 -1.95698334183418 -1.60504167116712
 1  2.50688558305831 -0.12162974377438 -2.23697146434644
 1  4.08388115981598 -1.04006632093209  0.24696259925993
 1  5.35066689588959  2.36404891389139 -2.15713043284328
 1  5.48607522472247  0.92837880038004 -3.32565396699670
 1  3.85874599279928  1.46063725052505 -2.84970579567957
 1  6.53230124632463  1.50749687468747 -0.12479267036704
 1  6.18392643734373 -0.10301019061906  0.57470517791779
 1  7.36367315221522 -1.12962968756876 -1.71727248684869
 1  7.72308185068507  0.38727074767477 -2.19489431843184
 1  8.96146163356335  0.68869771107111  0.03885403370337
 1  8.48142120492049 -0.81719587108711  0.54792760516052
 1  10.16413908250825 -0.14089153245325 -1.84150872587259
 1  9.15578589478948 -2.38597729092909 -1.75284383218322
 1  10.86886191729173 -2.57384898469847 -1.56088669356936
 1  9.70302532263226 -2.69252093769377 -0.11995026432643
 1  11.07785308270827  0.77982676277628  0.14539312451245
 1  11.15980194369437 -0.68304354085409  0.90747067726773
 1  12.70940565116512 -1.53540511171117 -0.99198241124112
 1  12.65432358455845 -0.08622870187019 -1.70982251595160
 1  13.68461961686169  1.29584929572957  0.03982689358936
 1  13.65655988298830 -0.17348377617762  1.23084993089309
 1  15.17438978317832  0.13735494159416 -1.28419043234323
 1  14.87676322922292 -2.20188277007701 -1.43230256345635
 1  16.48311218471847 -2.02767680428043 -0.83550933483348
 1  15.33796907570757 -2.49226435903590  0.27991726312631
 1  15.96702697589759  1.45763233353335  0.88297875687569
 1  16.31827648444844 -0.27372674937494  1.43235665826583
 1  18.12984420612061 -0.25382959345935 -0.67162703050305
 1  17.65769035463546  1.44093598189819 -1.09994842734273
 1  18.27205189468947  2.38171456735674  1.07463285298530
 1  18.46732898709871  0.78960476997700  1.78882603260326
 1  20.42349868226823  0.40284824582458  0.47296845304530
 1  19.91964932153216  2.89017728782878 -1.24125602800280
 1  21.28763600730073  1.72995106480648 -1.27858096469647
 1  19.82846781978198  1.28680430213021 -1.77422960446045
 1  20.81803704020402  1.63058452645264  2.47381841844184
 1  22.05374823202320  1.96595662306231  1.14368852595260
 1  20.64075370477048  3.09653285288529  1.52592133003300
 1 -7.25184701780178  1.56604547774778  0.38689053515352
 1 -7.55178672707271 -0.32863303930393 -0.12503263086309

