%nproc=3
%Mem=2GB
# td=(NStates=1) B3LYP/SVP 

TD

0 1
 6 -5.09027672577258 -1.95602184428443  0.40222509840984
 6 -4.65701602060206  2.74643109480948  1.57817420332033
 6 -9.18326823652365  3.35500629982998 -0.30227869576958
 6 -9.84768282278228 -1.36752755615562 -1.01488404180418
 7 -5.11765092739274  0.37890951385139  0.85127356435644
 6 -4.52994161026103 -0.81836855785579  0.88527197059706
 6 -3.05394508100810 -0.64904133883388  1.38290328612861
 6 -3.04535950135014  0.88080697299730  1.90896000180018
 6 -4.40312950605060  1.45299511741174  1.39588318531853
 6 -2.96433500200020  0.92121963426343  3.33304116671667
 6 -2.11684375507551 -0.93459342104210  0.10288823442344
 6 -0.61788500070007 -0.98190640724072  0.52735518821882
 6  0.37957161856186 -1.32058893179318 -0.53728528612861
 8  0.12231399899990 -1.84007637423742 -1.64054766626663
 8  1.67501769886989 -1.15902267536754 -0.20825326802680
 7 -6.93531812641264  2.81795906770677  0.47025653485349
 6 -5.85535711111111  3.39993441174117  1.13017387428743
 6 -6.14542772847285  4.78223466296630  1.24936142894289
 6 -7.38581767856786  4.91036987248725  0.55614214161416
 6 -7.91706265216522  3.72967146084608  0.18205836123612
 6 -5.20985150165016  5.90771628672867  1.74160542654265
 6 -8.11170845354535  6.27173118471847  0.40628913021302
 6 -8.84437233543354  6.72525224712471 -0.58432091089109
 7 -9.06486468706871  0.81922915591559 -0.65243771217122
 6 -9.67708157105710  2.15161766046605 -0.59685895509551
 6 -11.14038790529053  1.92024558555856 -1.13342717661766
 6 -11.34798874937494  0.67015435553555 -1.31082603730373
 6 -10.04392661836184 -0.05737568926893 -0.99241248374837
 6 -12.14019252015201  3.07153565516552 -1.29338242854285
 6 -12.58973671317132 -0.11290376987699 -1.70371133083308
 6 -12.60837096779678 -0.47680094449445 -3.19438761006101
 7 -7.46263522112211 -1.22259394459446 -0.31445997449745
 6 -8.58235982348235 -2.01790051685169 -0.59443280568057
 6 -8.12171461046105 -3.38433531573157 -0.60387295459546
 6 -6.82959786888689 -3.39806663496350 -0.30704832873287
 6 -6.44597570097010 -1.99728254685469 -0.04469939373937
 6 -9.12075483308331 -4.57486823632363 -0.95122411681168
 6 -5.71298824402440 -4.30909594469447  0.03934488008801
 8 -5.83325281548155 -5.52277180728073 -0.01214848074807
 6 -4.56621425002500 -3.44219498109811  0.55052411451145
 6 -4.13422722062206 -3.89036312981298  1.93855038073807
 8 -4.24362943644364 -3.33754168806881  3.00351841994199
 8 -3.39049773737374 -5.01143611651165  1.69994042194219
 6 -2.81252595639564 -5.62570201630163  2.85704784438444
 6  2.71681384998500 -1.39571346894689 -1.10220424622462
 6  3.94069731653165 -0.79656015841584 -0.60016211631163
 6  4.79806206280628  0.03311436633663 -1.18083203980398
 6  4.78945814151415  0.68562929462946 -2.53067018381838
 6  6.11986373157316  0.24065180438044 -0.43090200440044
 6  7.41873311371137 -0.25461164406441 -1.06929379627963
 6  8.67919952105211 -0.05359934503450 -0.29366771427143
 6  10.04865579127913 -0.58369269586959 -0.90481783658366
 6  10.02558859745975 -2.10515431833183 -0.91205048994899
 6  11.27089093929393 -0.07935224992499 -0.09558011371137
 6  12.67116879107911 -0.35825114231423 -0.72433695679568
 6  13.76219480888089  0.22685545934593  0.09241129662966
 6  15.14804371617162  0.02630174867487 -0.45945950385039
 6  15.61018058985898 -1.50428929432943 -0.57286605490549
 6  16.11606235053505  0.77922243954395  0.40845986828683
 6  17.66384127292729  0.80325324302430 -0.14491839323932
 6  18.64776570087009  1.71009533843384  0.65409622582258
 6  20.12127402900290  1.59735754035404  0.16302803030303
 6  20.31385208410841  2.07039361546155 -1.21372945074507
 6  20.93846636793679  2.41612295109511  1.18559034723472
 1 -4.30281794209421  3.45147637963796  2.38691357225723
 1 -10.01732958605861  3.98548579067907 -0.47543886658666
 1 -10.69328358475848 -1.90536769226923 -1.36813628672867
 1 -2.87417974497450 -1.28259749494949  2.22238311401140
 1 -2.24597591209121  1.41931215441544  1.30673358555856
 1 -2.07741799979998  0.40341671007101  3.78603770777078
 1 -2.86546203810381  1.96287133683368  3.64951514671467
 1 -3.80598019491949  0.68537372187219  3.81503667986799
 1 -2.37105261366137 -1.80375510861086 -0.30904535173517
 1 -2.28418175757576 -0.14101791079108 -0.77657435163516
 1 -0.22855867566757 -0.14080022642264  1.02169253055306
 1 -0.65190552985299 -1.86503846244624  1.17284479287929
 1 -4.42087690419042  6.13014738283828  0.92804560436044
 1 -5.82770797719772  6.82556747144714  2.00355965056506
 1 -4.62203028982898  5.29066711071107  2.75916005000500
 1 -8.18783379277928  7.07370724522452  1.33210476437644
 1 -8.93175852775278  6.02094225472547 -1.42406399249925
 1 -9.66007075367537  7.62222094959496 -0.54893511641164
 1 -12.34202856485649  4.00492968016802 -0.56866467956796
 1 -12.01847569586959  3.71661561896190 -2.16572588938894
 1 -13.16031705450545  2.53741157685769 -1.72904726012601
 1 -12.71459383258326 -0.92218114481448 -0.96300105120512
 1 -13.36097312181218  0.64766892159216 -1.31503386218622
 1 -12.12320795069507  0.56946375947595 -3.68995633993399
 1 -11.80643561156116 -1.32330990459046 -3.53059201130113
 1 -13.74576132963296 -0.65193428822882 -3.70160770307031
 1 -9.64782133093309 -4.54847416721672  0.15912361036104
 1 -9.89643362226223 -4.40472841884188 -2.05959285748575
 1 -8.41688686338634 -5.39724799179918 -1.29436739223922
 1 -3.63816566796680 -3.53088937913791 -0.05036638523852
 1 -2.22564295729573 -6.41177627332733  2.43640697479748
 1 -2.24143258965897 -4.81853533743374  3.55709015161516
 1 -3.76339935633563 -5.90363545514552  3.53561043664366
 1  3.04310821832183 -2.53341098459846 -1.39356052305231
 1  2.42840773527353 -1.02420000080008 -2.13764153135314
 1  4.39401217291729 -1.04035634993499  0.58521642464246
 1  5.37901973117312  1.63319582858286 -2.51290601040104
 1  5.42939955715572  0.13759972247225 -3.19604100570057
 1  3.66989710791079  0.57961914871487 -2.92804362946295
 1  6.39356737293729  1.36416254125413 -0.42133232433243
 1  6.04783282798280 -0.14856474607461  0.66052375977598
 1  7.47008379327933 -1.27100382498250 -1.28763952355236
 1  7.51419096159616  0.02034405500550 -2.13808863786379
 1  8.86079156655665  0.96907574887489 -0.11947179887989
 1  8.47076013881388 -0.59677382888289  0.47619043144314
 1  10.32185485408541 -0.04359180248025 -1.86617119211921
 1  9.20503081928193 -2.61494018721872 -1.50303885168517
 1  10.89015404650465 -2.68066966676668 -1.41752235713571
 1  9.66213123322332 -2.45951763736374  0.25244697539754
 1  11.00306560396040  1.05327410751075  0.20871945714572
 1  10.86795275877588 -0.45993122962296  1.01627155735574
 1  13.03905861646165 -1.36340791199120 -0.67844105710571
 1  12.69555770797080 -0.11549162816282 -1.80873240694069
 1  13.54125528042804  1.22349206000600  0.10902381328133
 1  13.47692191919192 -0.14304073187319  1.16710355625563
 1  14.97779012321232  0.67169837593759 -1.50654266756676
 1  14.96524207710771 -2.22933551535154 -1.05308464166417
 1  16.57670154365437 -1.55870990759076 -0.88006379027903
 1  15.77763304210421 -1.84812994559456  0.44350362176218
 1  15.77012728592859  1.81445801610161  0.71958241724172
 1  16.30924558135814  0.33591421472147  1.46363978657866
 1  18.09071029272927 -0.18659286978698  0.02249238143814
 1  17.65434001960196  1.21501338963896 -1.20165859835984
 1  18.24186887638764  2.68275467136714  0.50675606530653
 1  18.53926618081808  1.44545035453545  1.73603075307531
 1  20.52163849624963  0.48403636463646  0.27856901310131
 1  20.24225158175818  3.07084535463546 -1.22530443284328
 1  21.25265250895090  2.04729279897990 -1.40922402900290
 1  19.73862883588359  1.38069369106911 -1.90409259075908
 1  20.69983522002200  2.03611507950795  2.26612764936494
 1  22.12915577277728  2.29122915031503  0.90758491559156
 1  20.74465409480948  3.63235643524352  1.20107884578458
 1 -7.13639547264726  1.75079395259526  0.24545639173917
 1 -7.56930847924792 -0.32251242724272 -0.47709783738374

