%nproc=3
%Mem=2GB
# td=(NStates=1) B3LYP/SVP 

TD

0 1
 6 -5.12901059915992 -1.81756799889989  0.54755963186319
 6 -4.77646796579658  2.79879633133313  1.49630601650165
 6 -9.25750566026603  3.35392619181918 -0.25859432733273
 6 -9.85959401390139 -1.51367217061706 -0.78699125252525
 7 -5.13613277557756  0.53938556145615  0.98904734173417
 6 -4.53761237733773 -0.67387410841084  0.84463790719072
 6 -3.07064675117512 -0.52946938163816  1.37493248904890
 6 -2.92631759715972  0.92099099139914  1.76379548534853
 6 -4.41864105720572  1.54577439533953  1.45141873887389
 6 -2.58238680718072  1.17822533483348  3.39711757435744
 6 -2.03029510021002 -0.85544550625062  0.08680662626263
 6 -0.61938515071507 -0.77690590719072  0.52921537423742
 6  0.33176683808381 -1.08635550845085 -0.57503906150615
 8 -0.01576980938094 -1.42522488908891 -1.72990660216022
 8  1.60360055715572 -0.91029780288029 -0.20367280998100
 7 -6.99493408800880  2.80747801960196  0.59687919711971
 6 -5.97609918531853  3.41840625892589  1.14715557245725
 6 -6.18792197789779  4.84182062156216  1.11056754955496
 6 -7.40376947374737  4.98612744824482  0.48415494289429
 6 -7.98682962886289  3.61829032273227  0.15767592299230
 6 -5.27215773227323  5.84489000410041  1.54570583658366
 6 -8.21633891659166  6.25454946654665  0.22928142944294
 6 -8.90703860206021  6.47757747964797 -0.87081956075608
 7 -9.17431563216322  0.84109134213421 -0.49450191859186
 6 -9.80690455335534  1.97500999969997 -0.54977424662466
 6 -11.23342720922092  1.89014257525753 -1.06972080598060
 6 -11.36466041654165  0.49192653275328 -1.15237019171917
 6 -10.08267049274927 -0.11130108180818 -0.80909415191519
 6 -12.28111661256126  2.88887738933893 -1.22373546384638
 6 -12.57486522602260 -0.15852833233323 -1.67894885458546
 6 -12.49863999469947 -0.56865012941294 -3.16018418971897
 7 -7.62376133373337 -1.26131781698170 -0.05745427392739
 6 -8.60170175767577 -2.01310003680368 -0.49623298569857
 6 -8.07882032103210 -3.43172005420542 -0.59167173447345
 6 -6.79587449654966 -3.40094692299230 -0.10593821772177
 6 -6.43560466386639 -1.98822164076408  0.15679075527553
 6 -8.93794655225522 -4.66120687018702 -0.92891188558856
 6 -5.66988393359336 -4.16046108120812  0.05819676527653
 8 -5.55661515171517 -5.42404193429343 -0.15586285218522
 6 -4.56993462206221 -3.30231099269927  0.41551061316132
 6 -3.87661145904590 -3.85491958545855  1.77270379607961
 8 -4.02260733423342 -3.33850178407841  2.81590965906591
 8 -3.14347303490349 -4.92446741964196  1.53063349124912
 6 -2.46063076687669 -5.54019346544654  2.59194133373337
 6  2.53874604320432 -1.12224612221222 -1.30731475727573
 6  3.88989223602360 -0.84199470187019 -0.72800490059006
 6  4.86875913251325 -0.00653959905991 -1.14243820042004
 6  4.69833902960296  0.88679941164116 -2.38855597239724
 6  6.17910965616562  0.15863360256026 -0.42704161836184
 6  7.42755399579958 -0.39468565146515 -1.10037690459046
 6  8.72997459855986 -0.14897888298830 -0.26091443894389
 6  10.00742166786679 -0.75250957755776 -0.87582493729373
 6  10.04947098569857 -2.32680648354836 -1.08906819171917
 6  11.25330918111811 -0.31871618631863 -0.05103565926593
 6  12.61432310651065 -0.65590090729073 -0.65480000310031
 6  13.85736432583258 -0.10179740594059  0.14139619511951
 6  15.15049396119612 -0.16813769526953 -0.57565112301230
 6  15.73396296809681 -1.54297316271627 -0.89357812611261
 6  16.14854559885989  0.50202471977198  0.51690071237124
 6  17.61923681248125  0.72278519621962 -0.14190809220922
 6  18.48790971527153  1.56918124702470  0.79024984118412
 6  20.00941284288429  1.65773357795780  0.37245897339734
 6  20.14960565946595  2.21277785388539 -0.97596567436744
 6  20.80619314061406  2.58701003980398  1.40155194339434
 1 -4.13042070237024  3.39471070307031  1.81527640854085
 1 -10.04670252335234  4.09279652175217 -0.43301462416242
 1 -10.77539179557956 -2.11157831333133 -1.23838331143114
 1 -2.94857718471847 -1.45867510271027  2.02793366906691
 1 -2.17611892639264  1.29801002420242  1.07114002620262
 1 -1.53119337733773  0.78585495389539  3.53172227622762
 1 -2.62201769366937  2.36353140284028  3.59997019221922
 1 -3.41859145604560  0.76958214271427  3.88290346654665
 1 -2.38701420982098 -1.80864559765977 -0.44686913411341
 1 -2.20035337473747 -0.25672948194819 -0.89583627782778
 1 -0.10263608340834  0.18579243284328  0.71084144544454
 1 -0.05918625792579 -1.29703166176618  1.45507301570157
 1 -4.40628544504450  5.90881524962496  0.89648244804480
 1 -5.79192439883988  6.79576449114912  1.86213550815082
 1 -4.89061714851485  5.52409045304530  2.43945807980798
 1 -8.04463947334733  7.18347822232223  1.04732628652865
 1 -8.94119947184718  5.73270343084308 -1.73677526362636
 1 -9.33971871847185  7.32031075857586 -1.42582280518052
 1 -12.17392175417542  3.62615180238024 -0.38731654475448
 1 -12.12605645394540  3.69594355175518 -2.02941225802580
 1 -13.31357238003800  2.52923075877588 -1.26114046944695
 1 -12.72389476267627 -1.12532145884588 -0.94074882598260
 1 -13.38763578807881  0.82478663336334 -1.49819217801780
 1 -12.37272290219022  0.29703651675168 -3.92790013431343
 1 -11.78038300630063 -1.33604117771777 -3.41632058415842
 1 -13.58491524502450 -1.01875096989699 -3.27443498579858
 1 -9.89395594439444 -4.52151147094709 -0.33200550255025
 1 -9.19577355625563 -4.72767071307131 -2.09063596179618
 1 -8.36211138583858 -5.70241850885088 -0.64669262476248
 1 -3.68834068546855 -3.26063235343534 -0.26761811041104
 1 -1.95713610661066 -6.37004209990999  2.17504083818382
 1 -1.79476792319232 -4.96261974587459  3.06366080868087
 1 -3.05260827722772 -6.00681577317732  3.50615749134913
 1  2.48698260576058 -2.14855249874988 -1.61705287228723
 1  2.36375126962696 -0.58648622942294 -2.11362913011301
 1  4.25416818851885 -1.65882819711971  0.05926382938294
 1  4.59539136833683  2.06274878387839 -1.99858457825783
 1  5.72687930513051  1.04040000250025 -3.20369177077708
 1  3.67281739993999  0.41994318111811 -2.74478530363036
 1  6.44863287948795  1.34821094609461 -0.51062125322532
 1  6.08596664136414 -0.19084897449745  0.62621032843284
 1  7.21630841574157 -1.35978270287029 -1.22012277187719
 1  7.54568411091109  0.22620464106411 -2.06101093009301
 1  8.75744123152315  0.80727956925693 -0.21979183088309
 1  8.42316537933793 -0.51099525102510  0.87973078547855
 1  9.94395706430643 -0.33052049534954 -1.88887346234623
 1  9.15110542674267 -2.71621031423142 -1.74049259705971
 1  10.95678070917092 -2.43129472927293 -1.71285189008901
 1  10.01043606370637 -2.88017970357036 -0.02042031133113
 1  11.13605890329033  0.76162494259426  0.07205579077908
 1  11.12384834833483 -0.64576981348135  1.04755468566857
 1  12.73037774837484 -1.62773434463446 -0.75696890989099
 1  12.72027017921792 -0.22107218621862 -1.65869740344034
 1  13.86004715961596  1.04115382618262  0.26174908580858
 1  13.91338556555655 -0.36078250605061  1.23854069997000
 1  14.97015936013601  0.31909311541154 -1.48201021432143
 1  14.94863041594159 -2.12111469326933 -1.52271160436044
 1  16.47652152565257 -1.44354839143914 -1.53890967486749
 1  15.64214949374938 -2.22725785838584  0.00289956135614
 1  15.85146541974198  1.37949451975198  0.91467192619262
 1  16.09693435023502 -0.02697207390739  1.58739216181618
 1  17.78668989068907 -0.38898310881088 -0.32726259405941
 1  17.55371995759576  1.15098698699870 -1.11783021552155
 1  18.11962665216522  2.69986638253825  0.70380577027703
 1  18.43558581278128  1.41848765826583  1.87792494249425
 1  20.32061839423942  0.61197915891589  0.42662381858186
 1  19.39660701730173  3.14573284338434 -1.04800670307031
 1  21.39237648134814  2.54575264496450 -1.21289439603960
 1  19.63267824082408  1.58216383808381 -1.90632281378138
 1  20.84116935343534  2.29187065506551  2.42218325492549
 1  21.86618947614761  2.46065609300930  1.07312146924693
 1  20.33968359775978  3.65041824142414  1.59222796069607
 1 -7.03215504860486  1.81867074027403  0.43349519561956
 1 -7.82574412281228 -0.23286346234623  0.00244011641164

