%nproc=3
%Mem=2GB
# td=(NStates=1) B3LYP/SVP 

TD

0 1
 6 -5.11024872297230 -1.95610185228523  0.38731360726073
 6 -4.77069738873887  2.74010046174617  1.36650303620362
 6 -9.38311822152215  3.28660946014601 -0.17423589148915
 6 -9.86620467496750 -1.49684048744875 -0.86868942234223
 7 -5.11731089338934  0.40978260116012  0.84999343634363
 6 -4.48571718781878 -0.72990971197120  0.82516595999600
 6 -2.96603629012901 -0.55478191289129  1.26473146894689
 6 -2.95381034643464  0.85937482978298  1.84809391519152
 6 -4.38797799089909  1.45289510741074  1.31663526052605
 6 -2.92355092359236  1.02468998129813  3.25864372697270
 6 -2.11980405110511 -0.85834579627963  0.06248419401940
 6 -0.53865707790779 -0.73450166676668  0.43869632233223
 6  0.37100076147615 -0.98953582648265 -0.62375393299330
 8  0.16954872247225 -1.45620798739874 -1.69680329182918
 8  1.66946714381438 -0.69008578167817 -0.30125256795680
 7 -6.97563215781578  2.73124039583958  0.52378188738874
 6 -5.84159573497350  3.48663308160816  0.87790864776478
 6 -6.19053223892389  4.78348478797880  0.92843933673367
 6 -7.41751084788479  5.01069990549055  0.51962849024902
 6 -8.02756370227023  3.61760025372537  0.24265442084208
 6 -5.23490400690069  5.81446696179618  1.32512377837784
 6 -8.10601788448845  6.29493350495050  0.30931943324332
 6 -9.03771166936694  6.63489321122112 -0.64922740154015
 7 -9.22564076467647  0.90005723872387 -0.41322379077908
 6 -9.86815067796780  2.04901740044004 -0.47844711391139
 6 -11.26553041954195  1.88747230823082 -0.89376321022102
 6 -11.45449940044004  0.49801714181418 -1.12617757245725
 6 -10.14539676537654 -0.12128207990799 -0.82339558205821
 6 -12.39384788568857  2.90575907750775 -1.16764985528553
 6 -12.73891163066307 -0.27057953745375 -1.59480043974397
 6 -12.77697782848285 -0.47033029742974 -3.02500067136714
 7 -7.61302025962596 -1.23904558975898 -0.26993552205221
 6 -8.62382396989699 -2.01404013081308 -0.59624298669867
 6 -8.22977541654165 -3.40249713191319 -0.61902446974697
 6 -6.86672158125813 -3.33450027832783 -0.26397402130213
 6 -6.47979908330833 -2.05758857745775 -0.03834875867587
 6 -9.19170192779278 -4.63452420192019 -0.83215220962096
 6 -5.72068901410141 -4.30335537063706  0.05647659325933
 8 -5.74069355955596 -5.55333486358636  0.03809654375438
 6 -4.55678330693069 -3.35771653325332  0.48759782188219
 6 -3.94494829272927 -3.85359945344534  1.69277580328033
 8 -4.01656673017302 -3.23413134703470  2.77460552865287
 8 -3.07896658425843 -4.94119909280928  1.57052748064806
 6 -2.60810551435143 -5.41564101020102  2.69780191979198
 6  2.66066823542354 -1.15475937353735 -1.33160718651865
 6  3.99879312611261 -0.87252775517552 -0.66353845394539
 6  4.93721597819782  0.05607666256626 -1.00394435103510
 6  4.64470366606661  1.09364009570957 -2.13539065586559
 6  6.27774952015201  0.18051579077908 -0.31907082128213
 6  7.53837507790779 -0.36709289218922 -1.09013588048805
 6  8.74788638973897 -0.25571955705571 -0.22860120762076
 6  10.01976290199020 -0.74881920852085 -0.88003535833583
 6  10.17757379597960 -2.26350015291529 -1.23103238813881
 6  11.29233308350835 -0.41627594229423 -0.02095265096510
 6  12.78860053425343 -0.61643696089609 -0.62294681778178
 6  13.89274786418642 -0.04092131833183  0.22324437993799
 6  15.31980089188919 -0.15160604210421 -0.34452801070107
 6  15.76801637343734 -1.71774063946395 -0.55701446974697
 6  16.31507225152515  0.54772929022902  0.55711473377338
 6  17.70694558335834  0.72809572727273 -0.18357225862586
 6  18.61830275457546  1.49739406830683  0.67291810801080
 6  20.13318522012201  1.73425122972297  0.29544127162716
 6  20.12978367726773  2.43982055815582 -1.10919899769977
 6  20.97282980428043  2.49996133493349  1.25683747194719
 1 -3.96711437173717  3.62253348534853  1.90594547544754
 1 -10.22167002010201  3.94287152925293 -0.36988831153115
 1 -10.60352460886089 -2.25740289578958 -0.85201467456746
 1 -2.79087141414141 -1.34480371557156  2.05430630633063
 1 -2.20769208370837  1.42507273047305  1.40223313551355
 1 -1.79426968496850  0.42787915631563  3.60825992999300
 1 -2.88814430633063  1.91176622632263  3.62188238343834
 1 -3.70151974887489  0.41839702420242  3.62540771697170
 1 -2.21381689008901 -1.93196792989299 -0.15843029022902
 1 -2.28941228062806 -0.10245405440544 -0.89869656385639
 1 -0.32984880468047  0.36922077567757  0.69530989228923
 1 -0.17199753905391 -1.29090104870487  1.45169267766777
 1 -4.47610242674267  5.99714408250825  0.52840564036404
 1 -5.86654186058606  6.86683159785979  1.11525081968197
 1 -4.96415450225022  5.56385442944294  2.39188332233223
 1 -7.87004201360136  7.13121299579958  1.10306186008601
 1 -9.57877322922292  6.05418557905791 -1.23374496059606
 1 -9.48525327192719  7.76223495099510 -0.59304952785278
 1 -12.55347970997100  3.59511869906991 -0.29656746984698
 1 -12.29343319161916  3.69925388278828 -1.90022933973397
 1 -13.27572859565957  2.37148498419842 -1.44090844624462
 1 -12.78941131433143 -1.13543246994699 -1.06836158725873
 1 -13.55861288578858  0.34710886558656 -1.20530288908891
 1 -12.79970560046005  0.53005981908191 -3.59920726502650
 1 -11.90068503650365 -1.03617119071907 -3.45358431053105
 1 -13.75807256075608 -0.96928602340234 -3.44300184248425
 1 -9.97267381618162 -4.58114743454346  0.11024872287229
 1 -9.57357133603360 -4.70720866686669 -1.79434633283328
 1 -8.64534970967097 -5.32673094009401 -0.67207516301630
 1 -3.86081793319332 -3.72539883008301 -0.25540688928893
 1 -1.60873126612661 -6.17710280598060  2.50752408650865
 1 -2.15593403980398 -4.55269875377538  3.32227667026703
 1 -3.39017203360336 -6.39017410901090  3.38785566116612
 1  2.43032694019402 -2.17312495599560 -1.39694086108611
 1  2.25693058755876 -0.56149373017302 -2.20156792399240
 1  4.00275304700470 -1.48004031833183  0.42404030703070
 1  4.69172100130013  2.23571608060806 -1.86904162396240
 1  5.51742836003600  1.17908387088709 -2.97621902350235
 1  3.68354847304731  0.85838702550255 -2.65925675077508
 1  6.34921293749375  1.14076020102010  0.21021082998300
 1  6.23453149784979 -0.58801869146915  0.65519322672267
 1  7.47265405030503 -1.41496822142214 -1.49325008460846
 1  7.58913845634563  0.33816583718372 -1.87061189018902
 1  9.01407689508951  0.71811065236524  0.11678182648265
 1  8.47662072487249 -0.77080123162316  0.66499931233123
 1  10.03071574017402 -0.24078152145214 -1.89574414941494
 1  9.33174349054906 -2.41038973217322 -1.94576312411241
 1  11.02091712281228 -2.77477907770777 -1.84624522942294
 1  10.02319733983398 -3.01796348194819 -0.32325059435944
 1  11.34837013441344  0.65510429052905  0.50368895409541
 1  11.14631059455946 -1.10260549704971  0.95416534673467
 1  12.77426213681368 -1.63004457565757 -0.67709092209221
 1  12.83887203940394 -0.37645772477248 -1.79038057175718
 1  13.86730788568857  1.13322303310331  0.30255316621662
 1  13.82869709670967 -0.40906733453345  1.27590443634363
 1  15.33528587278728  0.36811801790179 -1.44879689298930
 1  14.97773332623262 -2.15014759655966 -1.23010234343434
 1  16.72901677517752 -1.88041207780778 -0.94708049194919
 1  15.68122340114011 -2.24968010061006  0.40913018441844
 1  15.84181445464547  1.53031960226023  0.64869532853285
 1  16.48177283408341  0.06347697099710  1.59591301390139
 1  18.28898011971197 -0.25807001750175 -0.46926679447945
 1  17.61668625422542  1.23828571687169 -1.18691712421242
 1  18.25639032853285  2.56560295619562  1.04140953065307
 1  18.64033628782878  0.97018282778278  1.70411756175618
 1  20.60037637003700  0.78394635563556  0.17384854105411
 1  19.57220457705771  3.42965123522352 -1.07685958835884
 1  21.28931617531753  2.69210728042804 -1.57765087168717
 1  19.77615258825882  1.75085070677068 -1.93645582708271
 1  21.17137237373737  1.84493596159616  2.20498153475347
 1  21.89056191339134  2.68228825622562  0.58854301140114
 1  20.47665729512951  3.43125632523252  1.65925466336634
 1 -7.16229806290629  1.77468634183418  0.39659150525052
 1 -7.52225377377738 -0.18412858885889 -0.07059718731873

