%nproc=3
%Mem=2GB
# td=(NStates=1) B3LYP/SVP 

TD

0 1
 6 -5.13404110221022 -1.85891213331333  0.41258613451345
 6 -4.74132445144514  2.75316176787679  1.39369575547555
 6 -9.34535444514451  3.36165696489649 -0.09900836873687
 6 -9.90982903740374 -1.45395619901990 -0.90467302070207
 7 -5.15824498679868  0.50148177107711  0.72968140514051
 6 -4.48813742984298 -0.68751547254725  0.77158060146015
 6 -3.04762444894489 -0.48373480818082  1.19189418521852
 6 -3.04010897629763  0.99238813111311  1.69786889268927
 6 -4.34409360246025  1.49612943084308  1.21121471847185
 6 -2.86910547904790  1.04738225052505  3.24611247384738
 6 -1.99807187788779 -0.85326528822882  0.14703264886489
 6 -0.63004621682168 -0.79213743034303  0.51751420412041
 6  0.34620828222822 -1.14194106700670 -0.54002556015602
 8  0.06717848544854 -1.61615398199820 -1.63120673217322
 8  1.59320951805181 -0.84540131323132 -0.16939938263826
 7 -7.05790038463846  2.75828310011001  0.57086659585959
 6 -5.97857943334333  3.41374579287929  1.01346220312031
 6 -6.18265145084508  4.82328876837684  1.14243073587359
 6 -7.55815491229123  4.89692852835284  0.62206873427343
 6 -8.10277122302230  3.68347684138414  0.29918007340734
 6 -5.27190770727073  5.88622413751375  1.45578684468447
 6 -8.24581186388639  6.27994200580058  0.42259076037604
 6 -9.15992389058906  6.58463818571857 -0.52868534733473
 7 -9.23074127472747  0.93687092009201 -0.46932940134013
 6 -9.95026888978898  2.12659515821582 -0.49165843504350
 6 -11.28237210371037  1.91156471747175 -0.97103093699370
 6 -11.49811376187619  0.59078641874187 -1.20801575627563
 6 -10.21190341604160 -0.01023097479748 -0.83011625412541
 6 -12.13742224312431  3.06252475407541 -1.30287337763776
 6 -12.63893163266327 -0.11890436993699 -1.66061702140214
 6 -12.78505863656366 -0.58880214461446 -3.11908007930793
 7 -7.55408436603660 -1.28299998519852 -0.04692322082208
 6 -8.66106769426943 -1.94485321212121 -0.54253761616162
 6 -8.23612605160516 -3.34348123032303 -0.63448601590159
 6 -6.90242515161516 -3.35379220752075 -0.28093571747175
 6 -6.47709881328133 -2.03952677127713 -0.01549647344734
 6 -8.96436919451945 -4.62184293379338 -1.03876287068707
 6 -5.75870281548155 -4.21002603770377 -0.05408446284628
 8 -5.66757624782478 -5.43994352445245 -0.16370363626363
 6 -4.48809643824382 -3.21693245484548  0.33597265936594
 6 -3.87372117001700 -3.81589568306831  1.69309583528353
 8 -4.16914198769877 -3.28913684758476  2.75666373447345
 8 -3.05783447104710 -4.85325029792979  1.50809123702370
 6 -2.46265096889689 -5.39119856595660  2.70712285188519
 6  2.64140630923092 -1.19586348394839 -1.12052607840784
 6  3.97871111791179 -0.92595309770977 -0.43249534963496
 6  4.98905116171617 -0.28288723382338 -0.95855981258126
 6  4.96754595029503  0.48155888758876 -2.31050816761676
 6  6.29146089128913  0.02951069026903 -0.16105501970197
 6  7.58431967236724 -0.67909409230923 -0.88006487338734
 6  8.94210581168117 -0.45792977807781 -0.19089743724372
 6  10.09411033673367 -1.05511983858386 -0.78649600440044
 6  10.02330836943694 -2.59776357925793 -0.98057734263426
 6  11.29066291649165 -0.55539985468547 -0.02231278697870
 6  12.67135881008101 -0.68089340654065 -0.67531205430543
 6  13.90265885528553 -0.03708093429343  0.14694675017502
 6  15.19876878867887 -0.14725560706071 -0.48993255115512
 6  15.67803737553755 -1.54203306870687 -0.54161292959296
 6  16.18783952825283  0.82492701000100  0.26708573087309
 6  17.68330321912191  0.85310822852285 -0.11598549995000
 6  18.59173009730973  1.86837116601660  0.60268108430843
 6  20.11810371197120  1.90750855545555  0.10955268276828
 6  20.29525022392239  2.56990356645665 -1.19957803560356
 6  20.97386990829083  2.72796413521352  1.23502529072907
 1 -3.77577523782378  3.38445967796780  1.80753563446345
 1 -9.84945279837984  4.26186342844284 -0.09238056075608
 1 -10.75844010041004 -2.33316047154716 -1.04795426852685
 1 -2.79716204320432 -1.17559679487949  2.07962883858386
 1 -2.16341765626563  1.43243346654665  1.18654156635664
 1 -1.88279853785379  0.85457182558256  3.54514361836184
 1 -3.08526401830183  2.00891594129413  3.66023621882188
 1 -3.59383898079808  0.42848803330333  3.68719389558956
 1 -2.31281679007901 -1.74635936903690 -0.31144559175918
 1 -1.95533887328733 -0.13676748574857 -0.86597329152915
 1 -0.07945376517652  0.22894674827483  1.23954431573157
 1 -0.30679101840184 -1.65783774237424  1.27357486588659
 1 -4.23558837533753  5.89539390749075  0.84513731353135
 1 -5.57473267966797  6.97588250295030  1.20618991359136
 1 -4.92457054385439  5.69766781078108  2.53536767076708
 1 -8.08061307070707  6.96199607410741  1.15647720162016
 1 -9.46074142604260  5.92584274477448 -1.32000358645865
 1 -9.74596934353435  7.50321904940494 -0.31566178907891
 1 -12.39162352435244  3.62807199439944 -0.44734254735474
 1 -11.75909975827583  3.87567152455246 -1.89417873467347
 1 -12.94741576437644  2.76361419711971 -1.92958731413141
 1 -12.70605297849785 -1.15033396009601 -1.01791654275428
 1 -13.42680970547055  0.68073222792279 -1.48212057085709
 1 -12.80881651155115  0.36683349644965 -3.85446279057906
 1 -11.85121008900890 -1.00016759035904 -3.27273622572257
 1 -13.63227998149815 -1.22999209400940 -3.15333287558756
 1 -9.66616316511651 -4.79294861466147 -0.27826012801280
 1 -9.54666864576458 -4.36895484148415 -1.99174607280728
 1 -8.17995317001700 -5.44755302230223 -1.12029998549855
 1 -3.70726257765777 -3.38194448464846 -0.43620496909691
 1 -1.85292568556856 -6.29400449614961  2.32372570667067
 1 -1.84577302370237 -4.61478496239624  3.15793023562356
 1 -3.02485550195020 -5.79597468906891  3.36304317991799
 1  2.56222012951295 -2.33430107360736 -1.45957712471247
 1  2.34384927942794 -0.70653823462346 -2.08436620382038
 1  4.17116988868887 -1.69921223552355  0.46021392439244
 1  5.09198102730273  1.74686719571957 -2.16555127492749
 1  5.78782539973997  0.02886884938494 -2.85798720032003
 1  3.91816193439344  0.27128831563156 -2.83639446454645
 1  6.53178119431943  1.19575570057006 -0.12913310441044
 1  6.17996604130413 -0.42092198179818  0.88886659405941
 1  7.17202398729873 -1.70059678427843 -1.11205196479648
 1  7.86586612911291 -0.34040201960196 -1.86236106510651
 1  9.26038152555256  0.57834667596760 -0.13506335803580
 1  9.02446550935093 -0.76977112861286  0.82162497489749
 1  9.97868053665367 -0.69378682198220 -1.83249782478248
 1  9.28364868106811 -2.90195888908891 -1.61860040784078
 1  10.95617064816482 -3.05359695949595 -1.39368997389739
 1  9.76747176727673 -3.18255994159416 -0.06976524582458
 1  11.05371066846685  0.27977675777578  0.18282686788679
 1  11.33254921842184 -1.10495573207321  0.94736466666667
 1  12.94912962356236 -1.57424899609961 -1.01237445044504
 1  12.78195634783478 -0.13672375137514 -1.57458899259926
 1  13.30696185108511  1.05067477827783  0.49156206710671
 1  14.04681890889089 -0.60948737653765  0.96583342924292
 1  15.02896524072407  0.41946315241524 -1.50632264556456
 1  14.98690424332433 -2.11827440924092 -0.98739807300730
 1  16.59469334283428 -1.71825586218622 -1.05031081498150
 1  15.82152743154315 -1.88776390899090  0.58801807320732
 1  15.62679295249525  1.83148971927193  0.12004246324632
 1  16.13147780458046  0.61881250455046  1.22582600520052
 1  18.16376759845985 -0.10464467496750 -0.21440130793079
 1  17.69126371197120  1.14579646794679 -1.28413684618462
 1  18.27329201870187  2.90074647054705  0.65243063276328
 1  18.53389564376438  1.57948375787579  1.75887303730373
 1  20.28805513791379  0.92747070807081  0.18760991719172
 1  20.13960131673167  3.64443271337134 -1.13415531793179
 1  21.35225246894690  2.25426349604960 -1.31481458805881
 1  19.62555752875287  2.21321694339434 -1.96106828832883
 1  20.94167940444045  2.33701516951695  2.31985302190219
 1  22.07220007720772  2.58850887828783  1.01342549964997
 1  20.65389501890189  3.68838203780378  1.35413415131513
 1 -7.09930176327633  1.81343021622162  0.45131697779778
 1 -7.64201574997500 -0.22196237223722 -0.14913504110411

