%nproc=3
%Mem=2GB
# td=(NStates=1) B3LYP/SVP 

TD

0 1
 6 -5.11529922802280 -1.92837908000800  0.50646552245225
 6 -4.82784310331033  2.81178763046305  1.59809619551955
 6 -9.34378428812881  3.26008680788079 -0.31930039793979
 6 -9.87380543504350 -1.52213301670167 -0.69605215861586
 7 -5.23308247054706  0.41477310021002  0.92733117011701
 6 -4.53066168226823 -0.74293101410141  0.76653009640964
 6 -3.01471115761576 -0.45879231393139  1.10599559535954
 6 -3.01309627502750  1.00972986528653  1.68541764756476
 6 -4.47417661076108  1.48201801970197  1.33488708570857
 6 -2.75161372987299  1.10752826512651  3.25555341794179
 6 -2.12909498019802 -0.67612757445745  0.02007995359536
 6 -0.66113932613261 -0.61893010961096  0.32271472417242
 6  0.31732539393939 -0.81426829972997 -0.78428998659866
 8  0.06342811041104 -1.09143150975097 -1.90237384888489
 8  1.54502469956996 -0.57428420152015 -0.25714815751575
 7 -7.16615120972097  2.74859213101310  0.59173868306831
 6 -6.12203377877788  3.38417283558356  1.12908376527653
 6 -6.40212339803980  4.89003544304431  1.02210870367037
 6 -7.62532162896290  4.95696453195320  0.46745327272727
 6 -8.11951289718972  3.67371586528653  0.15442559795980
 6 -5.47884840134013  5.91456697179718  1.45743700970097
 6 -8.33699098179818  6.14034804640464  0.19996849814982
 6 -9.06465436363636  6.58392811471147 -0.92120459925993
 7 -9.34852305290529  0.73208044104410 -0.40787325572557
 6 -9.89914377727773  1.99316181488149 -0.46493576277628
 6 -11.34268813531353  1.72806636763676 -0.80570440434043
 6 -11.50640459095909  0.40591793189319 -0.97663261796180
 6 -10.14756698239824 -0.16126607830783 -0.74930817331733
 6 -12.30262876377638  2.89950845244524 -1.09786287658766
 6 -12.73023076257626 -0.30888336783678 -1.43569452915292
 6 -12.74857498819882 -0.75465873027303 -2.94376254755476
 7 -7.52749170677068 -1.28795048024802 -0.12018054655466
 6 -8.64508609610961 -2.12201092789279 -0.39620298269827
 6 -8.27073951295130 -3.44321120332033 -0.51805437273727
 6 -6.89257416651665 -3.45672250055006 -0.21740936483648
 6 -6.54100520392039 -2.07034985358536  0.13147822402240
 6 -8.96055881348135 -4.68801955145515 -0.96189518391839
 6 -5.66371331653165 -4.33026806190619 -0.01332038643864
 8 -5.61454094429443 -5.55089461956196 -0.13519078497850
 6 -4.54891251985199 -3.33165392699270  0.32543160526053
 6 -3.76229002690269 -3.84923901740174  1.67893441914191
 8 -3.90933600710071 -3.44545247914791  2.74533260136014
 8 -2.87021570917092 -4.78045301820182  1.28367879577958
 6 -2.07283198699870 -5.40226967306731  2.32959509910991
 6  2.61602377097710 -0.71849574717472 -1.30114414021402
 6  3.98850209700970 -0.59166966936694 -0.66467856795680
 6  5.06346860346035  0.12874392929293 -1.15911986858686
 6  5.02009120482048  0.98937966966697 -2.41752886968697
 6  6.25028677387739  0.19450718991899 -0.30979989418942
 6  7.64662590299030 -0.35542172507251 -0.90404727162716
 6  8.77362896399640 -0.04010799589959  0.00431208370837
 6  10.02535346104611 -0.61195552215222 -0.64627198199820
 6  9.94886092469247 -2.10350415331533 -1.04204348924892
 6  11.36082993319332 -0.25748006270627  0.12250169446945
 6  12.73556523072307 -0.73689900710071 -0.42565708880888
 6  13.87238582798280 -0.00864809100910  0.22578463396340
 6  15.33401231303130 -0.33106398789879 -0.24561811971197
 6  15.75586515831583 -1.83445231063106 -0.07808657695770
 6  16.29217996229623  0.62784730203020  0.45498452075208
 6  17.67462235103510  0.67141005870587 -0.17697159855986
 6  18.61933285758576  1.52110643954395  0.64415523172317
 6  20.00842274387439  1.45545334993499  0.15950767826783
 6  20.39628032693269  1.97596417251725 -1.34061213901390
 6  21.11819434073407  2.00943228202820  1.09630141834183
 1 -4.07475513581358  3.57066829882988  1.78376325722572
 1 -10.21157901100110  4.11173841594159 -0.43048437113711
 1 -10.72795705210521 -2.43781093659366 -0.71980145324532
 1 -2.85146747374737 -1.14401363656366  2.09857073277328
 1 -2.32408372287229  1.40588081128113  1.20745365756576
 1 -1.64229448744875  0.71612798119812  3.55667477147715
 1 -2.83604909680968  2.35606065576558  3.56250644584458
 1 -3.37944754165417  0.58364354885489  3.81773694989499
 1 -2.32928843724372 -1.69304403750375 -0.39488393559356
 1 -2.31178451785178 -0.05326913591359 -0.93046974117412
 1 -0.34777059685969  0.28595244884489  0.71672203350335
 1 -0.32387272657266 -1.17736969556956  1.25744325272527
 1 -4.33202801930193  5.80413478157816  0.97479027882788
 1 -5.89155436183618  6.92525744044405  1.20201949654965
 1 -5.29710779757976  5.83172121612161  2.57887202120212
 1 -8.20257526692669  6.90242011651165  0.76408796269627
 1 -9.44267961986199  5.93051321182118 -1.67697928402840
 1 -9.50635538213821  7.55818454595460 -0.82716293919392
 1 -12.53987834983498  3.57607679487949 -0.29757757085709
 1 -11.83848769706971  3.74706866426643 -1.78184750155015
 1 -13.39464048684868  2.62974080978098 -1.37479183458346
 1 -12.77617999119912 -1.31172009870987 -1.06325107620762
 1 -13.56306333083308  0.34264841954195 -1.31487384618462
 1 -12.83916954685468  0.12956977007701 -3.37910525482548
 1 -12.04824979297930 -1.29129670327033 -3.41941089318932
 1 -13.61944869836984 -1.28146724152415 -3.29701724402440
 1 -9.96561311011101 -4.73685300510051 -0.39785208720872
 1 -9.42816679557956 -4.60910885688569 -1.85569246744674
 1 -8.45708088278828 -5.87952621962196 -0.61956991249125
 1 -3.69568141954195 -3.37084337453745 -0.33339468806881
 1 -1.44476486948695 -6.12652774847485  1.81327466156616
 1 -1.55920436683668 -4.69320280418042  2.86342078467847
 1 -2.65920893729373 -6.03869896149615  2.98162503810381
 1  2.65549945744574 -1.76460410391039 -1.75151631863186
 1  2.39367426192619 -0.08584616541654 -2.04429219641964
 1  4.18219099079908 -1.21155346964696  0.21526942994299
 1  5.75301713091309  1.82297480648065 -2.41783650345035
 1  5.61443806100610  0.64292025452545 -3.34505590719072
 1  4.06033615181518  1.33362454925493 -2.86768759385939
 1  6.30913893009301  1.36656278127813 -0.29827001810181
 1  6.01608965366537 -0.44388427802780  0.63667137453745
 1  7.37811459635964 -1.39979670427043 -1.18606936653665
 1  7.96316585908591  0.26121814241424 -1.85478030703070
 1  8.92082757015702  1.08715755705571  0.30447059535954
 1  8.51394445724572 -0.76666081758176  1.02534534693469
 1  10.31631430003000 -0.26054349764977 -1.70308488348835
 1  9.23145346154615 -2.31311000420042 -1.75917446524652
 1  10.85301033213321 -2.32173377317732 -1.45211581648165
 1  9.84924994509451 -2.78795048064806 -0.04460272957296
 1  11.38765406280628  0.83356213631363  0.05875446064606
 1  11.21220718421842 -0.32630786728673  1.25422535273527
 1  12.79524423502350 -1.75474704590459 -0.48746195919592
 1  12.57795594779478 -0.70653073207321 -1.59088062176218
 1  13.87374852975297  1.04751446224622 -0.06678376747675
 1  13.87136136313631 -0.06640306810681  1.21967881378138
 1  15.34646699089909 -0.11637043094309 -1.44399641294129
 1  15.12984853775377 -2.52271485328533 -0.59111844504450
 1  16.76365023852385 -2.28997303390339 -0.33504928882888
 1  15.89193447224722 -2.15285041764176  0.89520879227923
 1  15.71896216941694  1.73004957525753  0.41022148114811
 1  16.36559121592159  0.39755037833783  1.68795221782178
 1  18.03401462316232 -0.47921213171317 -0.25848571637164
 1  17.64044863046305  1.02072396069607 -1.18586701920192
 1  18.15311000050005  2.53565996189619  0.56475186488649
 1  18.40646290049005  1.24046985648565  1.59829697969797
 1  20.23314964736474  0.28440640164016  0.09415057125713
 1  20.13649100570057  3.12294056415642 -1.24526642904290
 1  21.41565880958096  1.97611568126813 -1.35976908350835
 1  19.68592356535654  1.31446706840684 -2.09839202070207
 1  21.01927716421642  1.59958142614261  2.10036107270727
 1  22.09821267846785  2.06692672007201  0.78983314041404
 1  20.80943057245725  3.03233643324332  1.19143788168817
 1 -7.16317815091509  1.79133800700070  0.27793964006401
 1 -7.67720926932693 -0.41450162616262  0.15545541794179

