%nproc=3
%Mem=2GB
# td=(NStates=1) B3LYP/SVP 

TD

0 1
 6 -5.14162186028603 -1.96400264236424  0.43094797069707
 6 -4.75183550255025  2.76430288198820  1.45284167006701
 6 -9.31152106180618  3.38620942014201 -0.21572003990399
 6 -9.81000905540554 -1.38406921032103 -1.11312386578658
 7 -5.18233739603960  0.38838046094609  0.78295673267327
 6 -4.50838945504550 -0.77490421142114  0.76133957735774
 6 -3.13736342284228 -0.61582801750175  1.37658265406541
 6 -3.09881484688469  0.88233712601260  1.84556366216622
 6 -4.46712590569057  1.42385220312031  1.42246584358436
 6 -2.99095766426643  1.04557206950695  3.40473833643364
 6 -2.03206527722772 -0.84796475817582  0.22870081568157
 6 -0.62950616281628 -0.82544076067607  0.72618507120712
 6  0.48675233663366 -1.16643351625163 -0.42712427002700
 8  0.02021378897890 -1.32680504710471 -1.59768337983798
 8  1.64578477557756 -0.88516528962896  0.01672923022302
 7 -7.08458305290529  2.78288556035604  0.54952446164616
 6 -6.00326190159016  3.34272869116912  1.09617047394739
 6 -6.31230441614161  4.83394983448345  1.17732422522252
 6 -7.53641273807381  4.97763659915992  0.59500602800280
 6 -8.04516546244625  3.65808430213021  0.21692184758476
 6 -5.32783329982998  5.85967148224822  1.50137140314031
 6 -8.17759504220422  6.36749076067607  0.41159966126613
 6 -8.97664556275627  6.71639136103610 -0.64976745554555
 7 -9.17973617421742  0.91613884688469 -0.59175164356436
 6 -9.86108997189719  2.06952945164516 -0.58767803700370
 6 -11.23504737123712  1.91927548854886 -1.08639247314731
 6 -11.33091704220422  0.59219655975598 -1.30526548124812
 6 -10.03610583628363  0.03772382068207 -1.05381862436244
 6 -12.33810231113111  2.99303780538054 -1.21025411571157
 6 -12.50346808630863 -0.19658213771377 -1.70884184388439
 6 -12.74461459215922 -0.50187345174517 -3.30076824812481
 7 -7.51185014261426 -1.27810949614961 -0.35249377787779
 6 -8.55474706220622 -1.98597732453245 -0.84712807520752
 6 -8.15441788078808 -3.44088097029703 -0.75389795709571
 6 -6.79605451455145 -3.41445827412741 -0.32517014091409
 6 -6.39108021142114 -2.05690850945094 -0.01240616441644
 6 -9.05807856545655 -4.59722047154715 -1.18192718711871
 6 -5.69801674687469 -4.27158219331933  0.04415536113611
 8 -5.59951944214421 -5.46379590969097 -0.07423468936894
 6 -4.55782341094109 -3.36720748234823  0.50551961406141
 6 -3.98593239113911 -3.83665775927593  1.80521704740474
 8 -4.29880495399540 -3.30583851775178  2.88310637873787
 8 -3.10578926652665 -4.78516348924892  1.74420484838484
 6 -2.65437014081408 -5.35555500160016  2.91926406600660
 6  2.65175734433443 -1.18225212281228 -0.95389941574157
 6  3.98464171097110 -0.99810031243124 -0.39071117121712
 6  4.98791104770477 -0.20089903500350 -0.82803676027603
 6  4.75976517221722  0.76717744944494 -2.08080519731973
 6  6.28604034923492 -0.05902816361636 -0.13904281848185
 6  7.48986022642264 -0.53551973487349 -0.91287815471547
 6  8.77802940404040 -0.32617660276028 -0.18595694319432
 6  10.11260218591859 -0.82196652325233 -0.88211556635664
 6  10.13194923352335 -2.32413621652165 -1.07747703260326
 6  11.30057390759076 -0.31393570827083 -0.11613216891689
 6  12.65806748094809 -0.58090340754075 -0.82836735983598
 6  13.89264785418542 -0.03674090029003 -0.00087803230323
 6  15.33743265506551 -0.08751963346335 -0.49753331123112
 6  15.82348191999200 -1.55092395779578 -0.66957572587259
 6  16.22319306360636  0.70868538583858  0.37695671797180
 6  17.66948183698370  0.87388030573057 -0.28092199359936
 6  18.61314223852385  1.76921125002500  0.69180999719972
 6  20.07133903550355  1.82014981958196  0.04199592709271
 6  20.15476617551755  2.47184376047605 -1.35751382918292
 6  20.98901142244225  2.33921526032603  1.08187997619762
 1 -4.07015467576758  3.36047727972797  1.78829371027103
 1 -10.08459631273127  4.23308055015502 -0.24039536223622
 1 -10.59621387778778 -1.89659681518152 -1.64354382748275
 1 -2.86913924092409 -1.40968020322032  2.23151402710271
 1 -2.29639095359536  1.49253947714771  1.36492940514051
 1 -2.01027128512851  0.56826319471947  3.66780588458846
 1 -3.01095658755876  2.05350039973997  3.64926512171217
 1 -3.68625822272227  0.56196138063806  3.91880705690569
 1 -2.19302481088109 -1.75674040714071 -0.24572902010201
 1 -2.18022136153615 -0.05408921792179 -0.51074776897690
 1 -0.20737655745575  0.12201605520552  0.90202056335634
 1 -0.35661600090009 -1.51908386698670  1.41476898529853
 1 -4.48492330883088  5.90054442254225  0.74922772257226
 1 -5.88172337873787  6.81547646234624  1.42991228582858
 1 -4.98657674447445  5.59844788878888  2.63084721872187
 1 -7.88574358375838  7.15883575807581  1.15339689358936
 1 -8.98847419931993  5.99838999949995 -1.53093467956796
 1 -9.57089183578358  7.53024175167517 -0.60703092599260
 1 -12.52132649464946  3.44413360056006 -0.23636144924492
 1 -11.94538838713871  3.80320427782778 -1.99163848064806
 1 -13.33317434023402  2.56484432013201 -1.68144249964997
 1 -12.57316969016902 -1.27103603030303 -1.27982273337334
 1 -13.35015203970397  0.45272942764276 -1.50959331813181
 1 -12.81445707560756  0.38576538963896 -3.88280562486249
 1 -12.13107807580758 -1.05381295489549 -3.92363131523152
 1 -13.95877263076308 -1.17372646744674 -3.07835537783778
 1 -9.81605815461546 -4.96557587738774 -0.33543584558456
 1 -9.61380535943594 -4.74959290529053 -2.08257515571557
 1 -8.37238241294129 -5.50467873487349 -0.95244319981998
 1 -3.94324617601760 -3.36030232043204 -0.21915326392639
 1 -1.85156554955496 -6.28915401110111  2.75898923302330
 1 -2.02970141654165 -4.61213469736974  3.49576401900190
 1 -3.28789180558056 -5.94933002460246  3.50807768336834
 1  2.51713562106211 -2.23503114661466 -1.18651981898190
 1  2.58486338083808 -0.51825940674067 -1.93958172537254
 1  4.35922869456946 -1.73577589188919  0.40924882788279
 1  5.27635946514651  2.07536004500450 -1.91364608440844
 1  5.41635825302530  0.22039800230023 -2.89756115771577
 1  3.67286740494049  0.75887707450745 -2.52841366646665
 1  6.39004702090209  1.05609173417342  0.32292210111011
 1  6.16336438113811 -0.84771466106611  0.86227393479348
 1  7.31399818471847 -1.52497922252225 -1.50485124472447
 1  7.77402694519452  0.35779780038004 -1.83288811781178
 1  9.15177066446645  0.65501434273427 -0.01169102080208
 1  8.63074613741374 -0.69980413191319  0.87483029542954
 1  10.10821348994899 -0.29740718401840 -1.73438801380138
 1  9.34807512371237 -2.51403009620962 -1.68846739453945
 1  10.96313134423442 -2.65768736853685 -1.79688029292929
 1  10.36460148024802 -3.06642832843284 -0.22910117941794
 1  11.28685398279828  0.72982176227623  0.22026061126113
 1  11.30689665316532 -0.96909214571457  0.77691762196220
 1  12.67865257585759 -1.74099567076708 -0.75420863386339
 1  12.83813196539654 -0.17796787578758 -1.74359589328933
 1  13.45265642054205  1.02274198499850  0.13505641654165
 1  13.97415164216422 -0.46230265806581  1.00977782368237
 1  15.32714505870587  0.37174838093809 -1.59163117641764
 1  15.04166971987199 -2.08509109090909 -1.40067940114011
 1  16.86591046454645 -1.79968400500050 -1.02977876177618
 1  15.82773805260526 -1.92506763936394  0.35925519691969
 1  15.68792906610661  1.73755032533253  0.52954341334133
 1  16.29307396419642  0.51115173847385  1.43506692929293
 1  18.16719794149415 -0.14644885538554 -0.24227409520952
 1  17.59232381798180  1.22646453475348 -1.22671110361036
 1  18.23530822032203  2.87592398829883  0.86988237793779
 1  18.59108136233623  0.99102491199120  1.57782493249325
 1  20.29445577797780  0.66496445744574  0.08428958515852
 1  19.80585794239424  3.49215748584859 -1.35318722112211
 1  21.17348459215922  2.28610668036804 -1.84574768136814
 1  19.41294626762676  1.96133175487549 -2.07123930543054
 1  20.89969520602060  1.79100056805681  2.05849688628863
 1  22.16894975217522  2.27949797719772  0.97179133623362
 1  20.68375800520052  3.43255645524553  1.34689342724272
 1 -6.96556838993900  1.65675454865487  0.63547539363936
 1 -7.24548609700970 -0.41208138413841 -0.24891501910191

