%nproc=3
%Mem=2GB
# td=(NStates=1) B3LYP/SVP 

TD

0 1
 6 -5.09637733583358 -1.85851209330933  0.48081295719572
 6 -4.84931525052505  2.82188864056406  1.40690707660766
 6 -9.38393830353035  3.37699849904990 -0.27457592549255
 6 -9.97604565906591 -1.55781658505851 -0.87026958035804
 7 -5.18535769806981  0.50625224812481  0.75084352135214
 6 -4.57033564966497 -0.70582730373037  0.81766520992099
 6 -3.05952563906391 -0.50297673237324  1.27389238503850
 6 -3.15141010641064  0.91407029932993  1.84556366216622
 6 -4.44973416651665  1.48609842774277  1.34627822482248
 6 -3.07268583708371  0.88621613391339  3.36094395699570
 6 -2.03741581228123 -0.64976493819382  0.13308125372537
 6 -0.63315652785279 -0.60649886648665  0.54801725442544
 6  0.35186884828483 -0.82070894379438 -0.63498505610561
 8  0.00976274387439 -1.19823218981898 -1.75342895439544
 8  1.66248644574457 -0.67500427352735 -0.18245068776878
 7 -7.12720731533153  2.67409468126813  0.44474398359836
 6 -6.03275485088509  3.28662308060806  0.99649050595059
 6 -6.47878106380638  4.77338377787779  1.16153264606461
 6 -7.68881797859786  4.92056089158916  0.60067659505951
 6 -8.13283422932293  3.61360985468547  0.26838699409941
 6 -5.51430194669467  5.90046556165617  1.73568483448345
 6 -8.37577486018602  6.24312832443244  0.42898139943994
 6 -9.15689358755876  6.63933365526553 -0.57255973477348
 7 -9.30325852645264  0.85396262926293 -0.53228569696970
 6 -9.97066092899290  2.06139863856386 -0.64794406360636
 6 -11.34357822432243  1.77138069906991 -1.10451428532853
 6 -11.44883883438344  0.49726706680668 -1.29895485018502
 6 -10.12660488618862 -0.14874482618262 -0.91419466196620
 6 -12.28882738363836  2.93165166676668 -1.28927201750175
 6 -12.64646238573857 -0.31022350185018 -1.71777273697370
 6 -12.61650178087809 -0.79302256665667 -3.23874204550455
 7 -7.48073703130313 -1.25927761296130 -0.17131566006601
 6 -8.62299388688869 -2.09738846564656 -0.56745010741074
 6 -8.16522896189619 -3.46525340754075 -0.47827039433943
 6 -6.85935084418442 -3.43119994829483 -0.15208283218322
 6 -6.51019212261226 -2.13791661026103 -0.00036496029603
 6 -9.04301705930593 -4.72080282978298 -0.72033102750275
 6 -5.62371931713171 -4.28546358145815  0.00834177977798
 8 -5.50124961516152 -5.46982651275127 -0.05158242414241
 6 -4.50994862346235 -3.30818157975798  0.42266132823282
 6 -3.92781657955796 -3.83980807430743  1.68307483318332
 8 -4.21778685218522 -3.48519645354535  2.82103017111711
 8 -3.03415210281028 -4.93517849074907  1.54934536243624
 6 -2.35360006380638 -5.32598204430443  2.67308944854485
 6  2.63919608820882 -0.75306920452045 -1.09834386018602
 6  3.87122036883688 -0.38828933133313 -0.54041614171417
 6  4.92853511011101  0.27270832573257 -1.03294725132513
 6  5.06505570127013  0.85408614031403 -2.44556167296730
 6  6.26942868806881  0.39527726692669 -0.39317823202320
 6  7.46295753615362 -0.33138932183218 -0.89205607250725
 6  8.77590919201920 -0.07187117221722 -0.14970331783178
 6  10.06821774747475 -0.87527185378538 -0.83002035683568
 6  9.91278731733173 -2.41674547744775 -0.67744702960296
 6  11.39129297949795 -0.32739705440544 -0.08397895359536
 6  12.78022969716972 -0.67151246844684 -0.76667119021902
 6  13.86732532193219 -0.02460968716872  0.11706376187619
 6  15.31095000680068 -0.13956483798380 -0.52259581748175
 6  15.70433000480048 -1.59541840724072 -0.69630839913991
 6  16.40953169746975  0.67329184648465  0.38694771707171
 6  17.86587147594760  0.63455637333733 -0.13741764316432
 6  18.77022794709471  1.45921024992499  0.68849966616662
 6  20.31295319691969  1.44498230283028  0.23515524302430
 6  20.43172387128713  1.96330290639064 -1.20949902770277
 6  21.23186570787079  2.22768410721072  1.12847463566357
 1 -4.20213787408741  3.39611084308431  1.97964284518452
 1 -10.08276612971297  4.17825506760676 -0.49682100480048
 1 -10.67237149354935 -2.15279243474347 -1.31285075817582
 1 -3.03817614461446 -1.10443967916792  2.03311418711871
 1 -2.25108642314231  1.66337656085609  1.35217813001300
 1 -1.91081133913391  0.44112048044805  3.51945104910491
 1 -3.24144963686369  1.83025807550755  3.67216741194119
 1 -3.79668926582658  0.04540972547255  3.50756593279328
 1 -2.26875238363836 -1.61207594069407 -0.42098654585459
 1 -2.22978631803180  0.05577176817682 -0.65365205940594
 1 -0.42601842164216  0.21848570217022  1.19875023632363
 1 -0.35325566486649 -1.40252221082108  1.05292280068007
 1 -4.76276109260926  5.85344971307131  1.04846764656466
 1 -6.15500070647065  6.69190410511051  1.58754804940494
 1 -5.10324841164116  5.70820886488649  2.75936007000700
 1 -8.10014502390239  6.95756563106311  1.18555010891089
 1 -9.37305265716572  6.08239840034003 -1.57164875097510
 1 -9.79710445704570  7.63079180668067 -0.55199542244224
 1 -12.06087044904491  3.57167635483548 -0.37146495959596
 1 -12.13023687198720  3.46030998839884 -2.16576589338934
 1 -13.35985700850085  2.60259809550955 -0.98979333473347
 1 -12.77402977617762 -1.14619354605461 -0.91635638673867
 1 -13.55526255075508  0.28343249794979 -1.57869022782278
 1 -12.45420105000500  0.11933874697470 -4.06635397969797
 1 -11.98945391339134 -1.71746932053205 -3.40163911601160
 1 -13.54806155965596 -1.12898199299930 -3.48705624792479
 1 -9.71680822962296 -4.85285460526053  0.17522522052205
 1 -9.50740471937194 -4.58689663566357 -1.75080197839784
 1 -8.34691986668667 -5.46764503150315 -0.97535549104911
 1 -3.68944079547955 -3.31510780098010 -0.11027237583758
 1 -1.57568796179618 -6.09840493619362  2.42510584468447
 1 -1.90799924632463 -4.54073755765577  3.27811225382538
 1 -3.11604462086209 -5.88623371497150  3.22090896649665
 1  2.88057196469647 -1.85240288378838 -1.69201036803680
 1  2.50173506800680 -0.06420400120012 -2.17404517171717
 1  4.01772454415441 -0.62753506780678  0.58133603660366
 1  5.31211304050405  1.79499200820082 -2.37972269206921
 1  5.98845546274628  0.44008997149715 -3.13324472607261
 1  4.01291140934093  0.66704789158916 -2.87278810391039
 1  6.48255627182718  1.46674279927993 -0.07978816991699
 1  6.27646569126913  0.04151426182618  0.76271397879788
 1  7.37585437033703 -1.42268899349935 -0.99971073067307
 1  7.72907244974497  0.03939596019602 -2.04963979297930
 1  8.92577806520652  1.04186302760276 -0.07786763846385
 1  8.73474653745374 -0.38591274277428  0.89465227762776
 1  9.95148781738174 -0.48872631593159 -1.77450202520252
 1  8.76035635183518 -2.87646633983398 -0.79200774857486
 1  10.73045807690769 -2.80034163396340 -1.36181678657866
 1  10.21558657875788 -2.59668135373537  0.42730446114611
 1  11.36032132953295  0.76550533063306 -0.08738015281528
 1  11.21682764626463 -0.77466270277028  0.83546347654765
 1  13.02848755935594 -1.70918248944895 -0.80053326632663
 1  12.71470962316232 -0.25181526052605 -1.84033556725673
 1  13.72051320622062  1.18251796259626  0.34293720462046
 1  14.14709893689369 -0.51720814861486  1.10419726562656
 1  15.38551089528953  0.28963016911691 -1.58953096639664
 1  15.22355790869087 -2.30564314611461 -1.48393772697270
 1  16.69293316681668 -1.78818285488549 -0.82406819071907
 1  15.40938621742174 -2.19163429602960  0.21359063046305
 1  16.19305957915791  1.78960553085309  0.20613107210721
 1  16.19399405620562  0.14565518881888  1.23549697229723
 1  18.36974819651965 -0.33198740924092 -0.05196506430643
 1  17.83714830043004  1.04136602490249 -1.05072350485049
 1  18.52488717821782  2.34447084298430  0.91256664636464
 1  18.82802505670567  1.19181499099910  1.82177932793279
 1  20.75417174957496  0.31364932593259  0.35279643584358
 1  20.08249560616062  2.82875114521452 -1.43422532493249
 1  21.48008525222522  1.91885995569557 -1.63052615921592
 1  20.08047302030203  1.36122174387439 -2.12788496999700
 1  21.73078831533153  1.80066153415341  2.14158519511951
 1  22.10349320652065  2.07104713211321  0.55894005110511
 1  20.90183981338134  3.19033223282328  1.19258799669967
 1 -7.23363519661966  1.59218809200920  0.31255310141014
 1 -7.52589413781378 -0.22160233623362 -0.28466859445945

