%nproc=3
%Mem=2GB
# td=(NStates=1) B3LYP/SVP 

TD

0 1
 6 -5.18943664176418 -1.94206044814481  0.42858773467347
 6 -4.63654397339734  2.67631408310831  1.51870825672567
 6 -9.17035694539454  3.32454325352535 -0.26082455035504
 6 -9.77526558105811 -1.37597840124012 -1.02642519591959
 7 -5.13370253255326  0.44351597449745  0.81550998799880
 6 -4.53883249934993 -0.80549727072707  0.85437888128813
 6 -3.06089577607761 -0.70036647134713  1.26871186698670
 6 -2.98746371177118  0.78676756905691  1.80713981978198
 6 -4.22988218131813  1.32629244714471  1.31892548954895
 6 -2.75712428092809  0.97137464976498  3.30885874847485
 6 -1.97546961766177 -0.97935789748975  0.17744569016902
 6 -0.53649686188619 -0.92001021762176  0.56947940064006
 6  0.38643230463046 -1.20020689358936 -0.55535709330933
 8  0.07256902450245 -1.70838320492049 -1.67873148464846
 8  1.69228942604260 -0.96442321542154 -0.22169461216122
 7 -6.93373796839684  2.84926219801980  0.47637714691469
 6 -5.76192776817682  3.36670108840884  1.02993385028503
 6 -6.01536472217222  4.74244068356836  0.99098559135914
 6 -7.40642973977398  5.04094292979298  0.50927745514551
 6 -7.96948789468947  3.73916240994099  0.15370552595260
 6 -5.16345686218622  5.88841435653565  1.45743700970097
 6 -7.97566484918492  6.31903591519152  0.42645114641464
 6 -8.87509540774077  6.85632535443544 -0.51799427822782
 7 -9.24829302990299  0.81825905890589 -0.60440290869087
 6 -9.76815067796780  2.07487998669867 -0.64747401660166
 6 -11.19118298479848  1.98865242624262 -1.07581141504150
 6 -11.41002495299530  0.63057039713971 -1.22482743744374
 6 -10.14773699939994 -0.08174812651265 -0.88798204070407
 6 -12.17991649254926  3.05599410101010 -1.08234132443244
 6 -12.72002974247425 -0.06504898439844 -1.74631559125913
 6 -12.64346447714771 -0.19042230663066 -3.26813498479848
 7 -7.54088304590459 -1.21423310851085 -0.27573610211021
 6 -8.62551413891389 -1.97472619941994 -0.65746910931093
 6 -8.28594103310331 -3.43489037123712 -0.66694926222622
 6 -6.97407231633163 -3.47123395169517 -0.21488911281128
 6 -6.48067917131713 -2.04922774137414  0.04521959815982
 6 -9.06583934153415 -4.63237398689869 -0.85004399879988
 6 -5.79069601480148 -4.34910994609461  0.05905685128513
 8 -5.81539102930293 -5.53250278037804 -0.04700196609661
 6 -4.60852848144815 -3.34891565316532  0.46403546564656
 6 -4.01102490039004 -3.98920301380138  1.81039756545655
 8 -4.25898097159716 -3.51668960286029  2.89170723882388
 8 -3.22323101070107 -5.00516548944895  1.71808223612361
 6 -2.71272597639764 -5.66830627672767  2.91740387998800
 6  2.64882705130513 -1.20525442304230 -1.22877690349035
 6  3.99269251605160 -0.90447094949495 -0.63351545164516
 6  4.96483874047405 -0.01332027712771 -1.04905886248625
 6  4.71509070477048  0.76677740944094 -2.42650976777678
 6  6.24546629182918  0.17694543374337 -0.34067298149815
 6  7.53231447184718 -0.49370555345535 -0.96265313221322
 6  8.80754235533553 -0.18372235733573 -0.12337068456846
 6  10.02692361806181 -0.64480880748075 -0.87364471927193
 6  10.13646968556856 -2.12272607550755 -1.06744602950295
 6  11.25780963116312 -0.23187750245025  0.08920836513651
 6  12.60733240744075 -0.51468678587859 -0.46308083118312
 6  13.76310489988999 -0.04592181838184  0.33623567906791
 6  15.14049296109611 -0.11902278377838 -0.34981853975398
 6  15.60988055985598 -1.63118198359836 -0.42479124742474
 6  16.20235097939794  0.71051556885689  0.35024404670467
 6  17.60747563636364  0.87014993269327 -0.31872577397740
 6  18.52824374867487  1.71645597449745  0.58870968716872
 6  19.93104500610061  1.82659046364636  0.05060678817882
 6  20.14592529142914  2.48616519261926 -1.28781685948595
 6  20.72158467976798  2.59856119491949  1.12227401560156
 1 -4.01613927422742  3.40268150015002  2.08376325722572
 1 -10.01096894999500  4.18505574767477 -0.44208553125313
 1 -10.69448370477048 -2.11347850335033 -1.11351082418242
 1 -2.71474380138014 -1.25161439663966  2.22843371907191
 1 -2.10428174267427  1.53355357855786  1.45118803100310
 1 -1.71270152815282  0.66050241864186  3.71215031903190
 1 -2.81218671057106  2.02215726542654  3.38735893109311
 1 -3.51180077697770  0.50140532503250  3.82274745094509
 1 -2.25410091849185 -1.97492222532253 -0.40991543874387
 1 -2.14906824622462 -0.19547335633563 -0.55306200040004
 1 -0.27255307510751  0.18641249484948  0.89855021632163
 1 -0.48139847914791 -1.68887084568457  1.26164367276728
 1 -4.22129694619462  5.96885125322532  0.80350315011501
 1 -5.55913111951195  6.85653056775678  1.73398269286929
 1 -4.82680076687669  5.48011605560556  2.56584071807181
 1 -7.77770277967797  7.07404727922792  1.35405695959596
 1 -9.06231158305830  6.33926408690869 -1.54583616971697
 1 -9.33978872547255  7.77542627012701 -0.41227145004500
 1 -12.30756511851185  3.95470465766577 -0.27408522162216
 1 -12.04693854215422  3.78651260866087 -1.91365068186819
 1 -13.22642366516652  2.73498133383338 -1.15343969936994
 1 -12.70559293249325 -1.11319024572457 -1.12643739483948
 1 -13.64157118161816  0.48163231793179 -1.41099345814581
 1 -12.52892852275227  0.72767958105811 -3.84636198049805
 1 -11.70441540954095 -0.80837841144114 -3.37681663376338
 1 -13.37483423692369 -0.76724581938194 -3.67015455775578
 1 -9.77699424822482 -4.76784610441044  0.21728942694269
 1 -9.96730070897090 -4.40055800180018 -1.65942284048405
 1 -8.16632180688069 -5.31537980498050 -1.21729968546855
 1 -3.89815166656666 -3.58697498769877 -0.41054240284028
 1 -2.00697109010901 -6.45317041274127  2.47373070717072
 1 -2.08198664506451 -4.76219970387039  3.44460890349035
 1 -3.41445446184618 -5.86085117671767  3.74199107470747
 1  2.43978788628863 -2.33713135663566 -1.57645881288129
 1  2.47633252775278 -0.54360194099410 -2.02481024822482
 1  4.17723049474947 -1.40661297559756  0.38983688668867
 1  4.71862369156916  1.80051256025603 -2.16371109090909
 1  5.63555017221722  0.62682864536454 -3.29256065766577
 1  3.70265038323832  0.54463565036504 -2.90874169926993
 1  6.41454947114711  1.19444556955696 -0.43234342544254
 1  5.94690273497350  0.01867197759776  0.66704441184118
 1  7.30203698859886 -1.55383210781078 -0.72658341794179
 1  7.72392193469347 -0.14549252865287 -2.16555138413841
 1  8.94837032443244  0.91241008230823 -0.17283713541354
 1  8.50200326312631 -0.33005715721572  0.84823763616362
 1  10.08090075867587 -0.15963340664066 -1.64535911091109
 1  9.22414273047305 -2.51962065526553 -1.52759130693069
 1  10.91521655275528 -2.31737333713371 -2.00065066996700
 1  10.34514953505351 -2.96213789938994 -0.18419668896890
 1  11.26157145454546  0.90422920302030  0.26926551175118
 1  11.08066402990299 -0.79741497799780  0.98120805100510
 1  12.67167187778778 -1.64234580578058 -0.74197741074107
 1  12.72196034823482 -0.13206328532853 -1.46250778447845
 1  13.50268142304230  0.97576728752875  0.48912182308231
 1  13.95347957495749 -0.50569699749975  1.44572141804180
 1  14.94654699889989  0.35347655375538 -1.41368338163816
 1  14.94525007790779 -2.22952553435344 -1.02794212741274
 1  16.48141201470147 -1.70051408800880 -0.76269205310531
 1  15.69582486128613 -2.16982211481148  0.62670194159416
 1  15.79040931413141  1.84134070437044  0.35397585658566
 1  16.34156881368137  0.26817744104410  1.38522194479448
 1  18.06830805250525 -0.14889910041004 -0.21177104490449
 1  17.45788037363736  1.35097698599860 -1.29853828632863
 1  18.25178986848685  2.86355275117512  0.51035642534253
 1  18.57163941814181  1.30199600910091  1.61414856485649
 1  20.63136946934694  0.82726068706871 -0.01720056385639
 1  19.84464182078208  3.42276054615462 -1.22066396879688
 1  21.23199044274428  2.48200627032703 -1.46325943254325
 1  19.57149212221222  2.08170379207921 -2.11841402290229
 1  20.92095733223323  1.81496296429643  1.99412044864486
 1  21.78380123732373  2.74011403880388  0.73413757085709
 1  20.11314094349435  3.55924912451245  1.65805454335434
 1 -7.06042787588759  1.83069194239424  0.56239808590859
 1 -7.56057760616062 -0.13680385638564 -0.17781790939094

