%nproc=3
%Mem=2GB
# td=(NStates=1) B3LYP/SVP 

TD

0 1
 6 -5.12901059915992 -1.91848809090909  0.45279015491549
 6 -4.86212653165317  2.80759721142114  1.62803918981898
 6 -9.42327223692369  3.28161896109611 -0.17074554245425
 6 -9.76444449894989 -1.57093789718972 -0.98137069046905
 7 -5.20879004130413  0.41804342724272  0.91935037203720
 6 -4.56586520262026 -0.73348006900690  0.93899734313431
 6 -3.00329001550155 -0.53839027372737  1.28531352715271
 6 -3.11048601400140  0.86549544184418  1.93684279007901
 6 -4.39154834793479  1.41270108800880  1.45837943494349
 6 -2.99988855735574  0.87550506280628  3.47466532913291
 6 -2.09320139083908 -0.69927988968897  0.15716366196620
 6 -0.61174438663866 -0.64187240384038  0.45538799149915
 6  0.24578824022402 -0.88410528342834 -0.67593915151515
 8 -0.07934616701670 -1.16381874847485 -1.79511312281228
 8  1.61460165726573 -0.75873264636464 -0.25975841854185
 7 -7.13332792739274  2.68998627042704  0.52853236243624
 6 -5.99943151855186  3.36774119241924  1.13929478637864
 6 -6.35747893359336  4.78607504700470  1.16190268306831
 6 -7.58198729552955  4.91508034353435  0.46097262466247
 6 -8.06935788168817  3.57882637633763  0.17601775717572
 6 -5.31636215271527  5.88032354745475  1.40912217821782
 6 -8.25052233493349  6.16121013261326  0.37900640194019
 6 -9.13373127132713  6.51523124502450 -0.64275675447545
 7 -9.12665086568657  0.79961719471947 -0.48491095949595
 6 -9.89699356225623  1.96108860756076 -0.63873314251425
 6 -11.21511537803780  1.79398295929593 -1.13227706160616
 6 -11.39965391589159  0.38282562266227 -1.24678963366337
 6 -10.10589281498150 -0.16398635033503 -0.92577582008201
 6 -12.27668616951695  2.90685918751875 -1.29292238253825
 6 -12.59504724422442 -0.31928440794079 -1.63596455615562
 6 -12.58976910761076 -0.67881114551455 -3.21569974127413
 7 -7.51370032763276 -1.26927861306131 -0.27780630913091
 6 -8.58712029952995 -2.07850657745775 -0.70496385878588
 6 -8.09630206920692 -3.48320520272027 -0.56879944724472
 6 -6.79652456155616 -3.43438026632663 -0.20320794469447
 6 -6.41834293769377 -2.05695851445145  0.05404048024802
 6 -8.93021577917792 -4.67082783228323 -0.88284727912791
 6 -5.63332027722772 -4.27937297239724  0.12029297489749
 8 -5.48318780898090 -5.46241577167717  0.09192192629263
 6 -4.43529115771577 -3.28156891849185  0.42825188728873
 6 -3.81845564346435 -3.79455354885489  1.79412593829383
 8 -4.05493056655666 -3.24753268716872  2.80527859595960
 8 -2.99895858345835 -4.78441341424142  1.57681810971097
 6 -2.34242894669467 -5.39710915701570  2.75578771837184
 6  2.63799596819682 -0.93647754535454 -1.24845887168717
 6  3.91738498529853 -0.61475197759776 -0.66049814991499
 6  4.87736999359936  0.23656471137114 -1.15696965356536
 6  4.84490368606861  1.02513324502450 -2.47960507730773
 6  6.23729547474747  0.43121086028603 -0.39728864306431
 6  7.49105034543454 -0.18301448434843 -0.97986485338534
 6  8.72367396849685 -0.11151513661366 -0.08200654815482
 6  9.99017994369437 -0.51818614521452 -0.72603995879588
 6  10.02753879247925 -2.10741454435444 -1.19201848674868
 6  11.25143899409941 -0.25015933063306  0.07583702800280
 6  12.65007668186819 -0.34855017221722 -0.51821634473447
 6  13.82922151155116  0.19036180998100  0.30622267776778
 6  15.10183909570957 -0.17189807130713 -0.35858941684168
 6  15.57365693749375 -1.67611647704770 -0.51787055535554
 6  16.25462620692069  0.55737025432543  0.43669269156916
 6  17.64154904370437  0.54183710141014 -0.32125602700270
 6  18.69072999729973  1.39339366826683  0.57107792399240
 6  20.13128503010301  1.30724852945295  0.16212794029403
 6  20.29331002990299  1.88739531563156 -1.22741081888189
 6  21.16935945724573  1.88395973477348  1.23044483268327
 1 -3.96967462776278  3.46256748874887  2.05923080398040
 1 -9.97241509460946  4.10667790989099 -0.47001832453245
 1 -10.63109736613661 -2.19071622712271 -1.33693316641664
 1 -2.81070339733973 -1.13504273947395  2.07904878057806
 1 -2.18384969946995  1.30941116431643  1.27504041624162
 1 -1.99410966896690  0.49902627102710  3.87060616461646
 1 -3.00341583348335  1.80683573327333  4.06062625782578
 1 -3.76588618551855  0.27046223072307  3.85532070827083
 1 -2.24700020842084 -1.74621935503550 -0.09803425062506
 1 -2.33364670407041  0.06462265326533 -0.46666336053605
 1 -0.39507532733273  0.16844069766977  0.96338669997000
 1 -0.48347868716872 -1.50725268386839  1.26819432783278
 1 -4.57106192269227  5.89104347244724  0.50929372917292
 1 -5.80831603800380  6.82184709940994  1.59881917651765
 1 -4.66277436423642  5.66849489348935  2.14814894889489
 1 -7.94931994139414  7.02647252175217  1.07730928482848
 1 -9.53393874577458  5.86601676217622 -1.61393297939794
 1 -9.39876462306231  7.53515224272427 -0.80310053295330
 1 -12.61707606960696  3.53684287148715 -0.32883069616962
 1 -12.02856670497050  3.93691764916492 -1.76797611441144
 1 -13.09688071087109  2.41176901260126 -1.66607096249625
 1 -12.80361273447345 -1.27598652535254 -1.23976872797280
 1 -13.31028805330533  0.43576773147315 -1.41047340614061
 1 -12.65588121802180  0.25354216731673 -3.61423876817682
 1 -11.76503147114711 -1.24941251485149 -3.46435538763876
 1 -13.51384813831383 -1.33396249104911 -3.40718826112611
 1 -10.11309785858586 -4.67528684848485 -0.43804610661066
 1 -9.12769674857486 -4.65647359335934 -2.08305520372037
 1 -8.33557873257326 -5.55700396739674 -0.42017997349735
 1 -3.89172102350235 -3.32681897209721 -0.54302565116512
 1 -2.05192558555856 -6.46956205190519  2.24612794689469
 1 -1.49836828322832 -4.77898138203820  3.18974341694169
 1 -3.23629664606461 -5.51346643824382  3.71967884348435
 1  2.57999190669067 -1.91137878137814 -1.73085425242524
 1  2.49408430293029 -0.10025760656066 -2.14597236443644
 1  4.18652142384238 -1.16225854015402  0.28709661266127
 1  5.16173800300030  2.06718922792279 -2.21762648244825
 1  5.77431404860486  0.84340030253025 -2.92568396999700
 1  3.92548266646665  0.93436462326233 -3.12537336243624
 1  6.29009702590259  1.51650777577758 -0.37306749784979
 1  6.02677072177218  0.12346245664567  0.78403611101110
 1  7.15807259215922 -1.13417014161416 -1.42795355495550
 1  7.71166070857086  0.51286330693069 -1.88958378737874
 1  8.77109259665967  0.85830467176718  0.16602675097510
 1  8.43783684648465 -0.79938408990899  0.78657146954695
 1  10.06699936853685 -0.12598004130413 -1.91949652465247
 1  9.31244156035604 -2.41036973017302 -1.98611715951595
 1  11.00964599569957 -2.38277987778778 -1.58370897579758
 1  9.82590761086109 -2.73601528712871 -0.28645691499150
 1  11.11856715411541  0.75380416051605  0.24670325552555
 1  11.25154111761176 -0.59133436993699  1.21769169936994
 1  12.89572428302830 -1.47869944114411 -0.57868108110811
 1  12.73906205840584  0.14560448144814 -1.56346788048805
 1  13.66570772567257  1.29101881268127  0.50688359925993
 1  13.74447867486749 -0.31839826762676  1.32698954485449
 1  14.99236158035803  0.35941714781478 -1.25388740204020
 1  15.06707226012601 -2.20752333413341 -1.30343967716772
 1  16.52115598909891 -1.63285732233223 -0.85732151605160
 1  15.71244652345234 -2.28598373097310  0.46104537593759
 1  16.17360763396340  1.74040061036104  0.71294175317532
 1  16.22837749454946  0.24624524782478  1.42535595819582
 1  18.31402262396239 -0.39595380588059 -0.28877874567457
 1  17.63812839843984  1.01238312661266 -1.40763919641964
 1  18.42319700920092  2.54390078597860  0.56608199789979
 1  18.51582383658366  1.21729753925393  1.63703085308531
 1  20.43309964236424  0.25289325032503  0.12318347454746
 1  19.93733108970897  3.05901417151715 -1.35063696609661
 1  21.23666090979098  2.04942301200120 -1.65420852745275
 1  20.03611858485849  1.19269489118912 -2.05432761426143
 1  20.80149538603861  1.25096656465647  2.10769180578058
 1  22.38725158235824  1.61785181258126  1.16974113121312
 1  20.99983961336133  3.00436363596360  1.33732247014701
 1 -7.23229506260626  1.72834170737074  0.28078992509251
 1 -7.86563811221122 -0.37009718571857 -0.09806993459346

