%nproc=3
%Mem=2GB
# td=(NStates=1) B3LYP/SVP 

TD

0 1
 6 -5.13902160026003 -1.83926016811681  0.42894777067707
 6 -4.90238055705571  2.76234268596860  1.51640802670267
 6 -9.38589849954995  3.23735453465347 -0.25834430233023
 6 -9.80740879537954 -1.49913071647165 -1.07215976937694
 7 -5.18857802010201  0.51027265016502  0.64223266026603
 6 -4.53259187528753 -0.66601332233223  0.72392583598360
 6 -3.04685437193719 -0.45693212791279  1.23890888668867
 6 -3.17926289168917  0.89849874217422  1.95713481928193
 6 -4.45455464856486  1.43514333223322  1.25684928192819
 6 -3.16263483198320  1.03604111641164  3.43367122972297
 6 -2.10001207190719 -0.64452441414141  0.12542048764876
 6 -0.52046525872587 -0.69176739333933  0.54062651535154
 6  0.47298095949595 -0.72960983388339 -0.64501605920592
 8  0.07780954855486 -0.93686605320532 -1.81451506300630
 8  1.71846204330433 -0.76990376347635 -0.18102054475448
 7 -7.11408600320032  2.73747101890189  0.42091160036004
 6 -6.13874544994499  3.39424384268427  0.96916777367737
 6 -6.48589177487749  4.76866330583058  1.16151264406441
 6 -7.78994809160916  4.95400423592359  0.58956548394839
 6 -8.17846879277928  3.62136062976298  0.14622477787779
 6 -5.54605512201220  5.80417593269327  1.69759102510251
 6 -8.49731701440144  6.33701771337134  0.52828132943294
 6 -9.15231312951295  6.66779650155016 -0.49927240604060
 7 -9.24594279487949  0.81264849784979 -0.50277274567457
 6 -9.99291315421542  1.93707620632063 -0.37519678887889
 6 -11.38189205570557  1.67070063106311 -0.84344817871787
 6 -11.47756170667067  0.37361470157016 -1.17155210991099
 6 -10.12412463816382 -0.21907185888589 -0.93072631513151
 6 -12.49107760866087  2.69310781238124 -0.98074116441644
 6 -12.67093483298330 -0.38979145864586 -1.83173413311331
 6 -12.53298342904290 -0.52570583498350 -3.39575774707471
 7 -7.45823478107811 -1.20576226142614 -0.31554008250825
 6 -8.48198978647865 -2.03812253905391 -0.67591095349535
 6 -8.04038647764776 -3.47231411361136 -0.74717728502850
 6 -6.74640955005500 -3.46730355865587 -0.41221884578458
 6 -6.36915801920192 -2.05032785138514 -0.08131305510551
 6 -8.90207296489649 -4.61116186568657 -1.11738073247325
 6 -5.56506345154515 -4.24482951805181 -0.02053110751075
 8 -5.38928841904190 -5.41431096119612 -0.07026429232923
 6 -4.36250387898790 -3.23545430703070  0.49079814191419
 6 -3.89220301820182 -3.63703779727973  1.80833735943594
 8 -4.21186626012601 -3.30847878177818  2.89747781588159
 8 -3.02822150975098 -4.64397937083708  1.56889731763176
 6 -2.46358106190619 -5.21369081518152  2.77496963656366
 6  2.66799896849685 -0.92314621222122 -1.27938196399640
 6  4.02406565336534 -0.78714921732173 -0.61841394149415
 6  5.09370162676268  0.02744379927993 -0.97976193279328
 6  5.17166636233623  0.69830056175618 -2.26321343814381
 6  6.27086883208321  0.20518825802580 -0.12247116131613
 6  7.58706994739474 -0.46418260116012 -0.70160702760276
 6  8.85904750585058 -0.41095508060806  0.20119177167717
 6  10.11261218691869 -0.87323164976498 -0.55398275307531
 6  10.05771180978098 -2.37413121602160 -0.66935622052205
 6  11.28869271947195 -0.22019633433343  0.12248169246925
 6  12.69367104130413 -0.56295161236124 -0.44819934303430
 6  13.92699128852885 -0.01755898209821  0.32101415691569
 6  15.26931584338434 -0.18352923442344 -0.40121367926793
 6  15.62382195399540 -1.62245111051105 -0.45382415071507
 6  16.28057880218022  0.72154667196720  0.34301332363236
 6  17.68451334013401  0.68997191489149 -0.22612651405141
 6  18.71718264256426  1.51556588548855  0.52350316651665
 6  20.07867976957696  1.39515732033203 -0.09915818831883
 6  20.21852255115511  1.94005058115812 -1.56429450725073
 6  21.13390591189119  2.16984832363236  0.71820360856086
 1 -4.13750141044104  3.65674690669067  1.88130301120112
 1 -10.09507736083608  4.25252249434943 -0.28367969066907
 1 -10.55856011241124 -2.36161331683168 -1.23627310041004
 1 -2.72007433443344 -1.29342857805781  2.22661353705371
 1 -2.47911922642264  1.52941316451645  1.30024293649365
 1 -2.11470172817282  0.77684405280528  3.89585868986899
 1 -3.46073156505651  2.08795384508451  3.80906110131013
 1 -4.02726232313231  0.15038022252225  3.81967714391439
 1 -2.35758126652665 -1.54424915801580 -0.38615306250625
 1 -2.19892323172317 -0.00028383738374 -0.71715841004100
 1 -0.42150797059706  0.35091894549455  1.08502886418642
 1 -0.46927726702670 -1.62267422602260  1.23562107050705
 1 -4.50994581108111  5.79075344344434  0.91976477627763
 1 -6.06206141254125  6.81503641834183  1.70497979257926
 1 -5.24972305910591  5.58900694469447  2.49420355435544
 1 -8.42437744714471  7.08259813431343  1.45531708560856
 1 -9.36545189708971  6.06186634713471 -1.41897348344834
 1 -9.79038378497850  7.79145787328733 -0.46785700860086
 1 -12.62595695769577  3.18747793499350 -0.17373518661866
 1 -12.35266911521152  3.63065702310231 -1.69004832163216
 1 -13.43104412721272  2.20371820752075 -1.42620697609761
 1 -12.95331770497050 -1.54749367606761 -1.50795554665467
 1 -13.52529955445545  0.25441959665967 -1.40629298809881
 1 -12.49696532643264  0.42082889598960 -3.94998234253425
 1 -11.54164913291329 -1.03252082568257 -3.57340629272927
 1 -13.50141689518952 -0.98559765456546 -3.69942748504850
 1 -9.83339988878888 -4.74109342914291 -0.57794009600960
 1 -9.07130110901090 -4.80533847984798 -2.40529742794279
 1 -8.31119629432943 -5.57315558255826 -0.88520647614761
 1 -3.74362621402140 -3.32946923712371 -0.35534688328833
 1 -2.11405179817982 -6.37780287598760  2.35779911401140
 1 -1.43206165256526 -4.59593307720772  3.16737117971797
 1 -3.32631564796480 -5.08877396899690  3.62265914151415
 1  2.34714862236224 -1.86235387888789 -1.65850701770177
 1  2.33344823932393 -0.26133371417142 -2.03269103630363
 1  4.28647141884188 -0.98575088938894  0.26924482748275
 1  5.62009383858386  1.76794930393039 -1.99866458625863
 1  5.86331294849485  0.24166012851285 -3.12403380498050
 1  4.25608572677268  0.68318950575058 -2.70514133923392
 1  6.37380539673967  1.41431755675568 -0.01560175127513
 1  6.07904594929493 -0.24743463306331  0.89209691709171
 1  7.24079086398640 -1.59600632523252 -0.99374013361336
 1  7.76151569406941  0.13539556015602 -1.59721455045505
 1  8.97817330473047  0.69038788008801  0.35936608490849
 1  8.62504556735674 -0.92205635713571  1.14546735913591
 1  10.12704537313731 -0.25492293559356 -1.68465304030403
 1  9.09910022622262 -2.70830952415242 -1.07279582738274
 1  10.83468849994999 -2.69589118891889 -1.61354195909591
 1  10.22762778287829 -2.73239492509251  0.26897862856286
 1  11.31685698309831  0.99021780188019  0.17505609080908
 1  11.46096205970597 -0.45319055555556  1.16523645384538
 1  12.63985869646965 -1.76798837003700 -0.46365957895790
 1  12.74130228242824 -0.05073515251525 -1.25911744544454
 1  13.67289844474447  1.13003271407141  0.23311622252225
 1  13.96913114011401 -0.38781520932093  1.36418326422642
 1  15.29249159335934  0.25602680878088 -1.51582359565957
 1  14.99357491039104 -2.28915149694970 -1.02854218741874
 1  16.59916378987899 -1.68244228082808 -0.80828661256126
 1  15.75890116891689 -2.05677080968097  0.40225949734974
 1  16.07194746794680  1.80611718201820  0.04682514151415
 1  16.27985264206421  0.26415703900390  1.40183360596060
 1  18.00327154885488 -0.30869508000800 -0.38101796959696
 1  17.41513609920992  0.99776166446645 -1.35835426792679
 1  18.34208889838984  2.63342973887389  0.58828421812181
 1  18.68995124932493  1.35523133263326  1.60183733373337
 1  20.29121545394539  0.45459342034203 -0.20527937173717
 1  19.96974433103311  3.11011928202820 -1.47873977637764
 1  21.22983022672267  1.82691076077608 -1.95828893549355
 1  19.51155612861286  1.35047066876688 -2.22411459295930
 1  21.11610684718472  1.85833730173017  1.72292332893289
 1  22.14754761196120  1.86717674507451  0.37278143524352
 1  21.15830545994600  3.30653385298530  0.54729346724673
 1 -7.25583741684168  1.63361223442344  0.06327817391739
 1 -7.52242379077908 -0.24268444444444  0.05416528892889

