%nproc=3
%Mem=2GB
# td=(NStates=1) B3LYP/SVP 

TD

0 1
 6 -5.10891858995900 -1.93492973507351  0.37691256715672
 6 -4.73827414641464  2.64937138883888  1.62204859075908
 6 -9.14741465116512  3.42553335253525 -0.25609407730773
 6 -9.80218827332733 -1.34021482488249 -0.98859141254125
 7 -5.24285344764477  0.44369599249925  1.00697913491349
 6 -4.53384200030003 -0.81577829882988  0.84611805520552
 6 -3.02004169066907 -0.65227166186619  1.32026702250225
 6 -3.18574353975398  0.74693358565857  2.06231533733373
 6 -4.49126831993199  1.32208202610261  1.50527412441244
 6 -3.06377494599460  0.80374788708871  3.52740060266027
 6 -1.93441551225122 -0.73568353005301  0.21894984058406
 6 -0.55634884708471 -0.80864908150815  0.62486493919392
 6  0.33109677107711 -1.06478335123512 -0.51658321592159
 8 -0.00876910931093 -1.43059542614261 -1.61416502800280
 8  1.68439863696370 -0.96983375647565 -0.06789923262326
 7 -7.02347694229423  2.74692196399640  0.67497700690069
 6 -5.89407098249825  3.35466988528853  1.19929078597860
 6 -6.15803898959896  4.71901834133413  1.10637713051305
 6 -7.42916201300130  5.02979181468147  0.42808933633363
 6 -7.92919386528653  3.60539903360336  0.32196235163516
 6 -5.23379389588959  5.79513502860286  1.66585785178518
 6 -8.04278156085608  6.21538555015502  0.40985948724872
 6 -8.93642154035403  6.65152487438744 -0.60674315311531
 7 -9.08729693029303  0.96497373037304 -0.60855332373237
 6 -9.70657452035204  2.11104360306031 -0.64036330553055
 6 -11.14595846234624  1.95549911091109 -1.19995382928293
 6 -11.36676062656266  0.55438277837784 -1.35421037573757
 6 -10.02832505820582 -0.01044099579958 -1.05581882438244
 6 -12.15249375027503  3.06566506810681 -1.39459254955496
 6 -12.53135087458746 -0.22976545604560 -1.81422238193819
 6 -12.46307643834384 -0.33391665606561 -3.35414358565857
 7 -7.49901885948595 -1.22859454465447 -0.27510603910391
 6 -8.62301388888889 -2.04978370517052 -0.61985534793479
 6 -8.15050748974898 -3.50635751795180 -0.67601016831683
 6 -6.86736164526453 -3.39262609090909 -0.31999962386239
 6 -6.48526963036304 -2.02562538113811 -0.00102502630263
 6 -9.03511626922692 -4.68535928542854 -1.03283227762776
 6 -5.75632257745775 -4.28415345044504 -0.01588064246425
 8 -5.60514000420042 -5.49928945904590 -0.07853511941194
 6 -4.61578920752075 -3.36225698729873  0.45507456955696
 6 -3.92908670657066 -3.80899499299930  1.82165869156916
 8 -4.43275834933493 -3.47105503940394  2.81797986608661
 8 -3.03277196479648 -4.75020999389939  1.45725615351535
 6 -2.59933463726373 -5.39452889898990  2.73267540714071
 6  2.64254642324232 -1.14689858745875 -1.20808483428343
 6  3.96203945074507 -0.81349185158516 -0.61885398549855
 6  4.96611886848685 -0.04114305940594 -1.06955091169117
 6  4.95335453115312  0.70769150085008 -2.40329744654465
 6  6.24118586378638  0.20247798699870 -0.24138305250525
 6  7.41267250765076 -0.46770295319532 -0.86402326922692
 6  8.76847844894490 -0.36442042714271 -0.05311365886589
 6  10.03213413911391 -0.85915024162416 -0.67845520032003
 6  10.01790782938294 -2.39524332723272 -0.74872415731573
 6  11.19405325552555 -0.21545586028603  0.04916436073607
 6  12.56762843704371 -0.42337765496550 -0.52682720582058
 6  13.77129571897190  0.18789156295630  0.19331138663866
 6  15.20539945174517 -0.16680756225623 -0.31835539343934
 6  15.67620719251925 -1.73255212061206 -0.21354012231223
 6  16.18153889818982  0.83730824812481  0.28636765906591
 6  17.63413830263026  0.70473339103910 -0.20805470687069
 6  18.45257618191819  1.88316264516452  0.30720153635364
 6  19.92854475607561  1.72031983658366 -0.03841211371137
 6  20.25851655055505  2.05598217431743 -1.56050412821282
 6  20.82880540184019  2.75247658645865  0.77469925812581
 1 -3.73688134843484  3.36036726872687  1.79135401630163
 1 -9.75766361946195  4.25632287438744 -0.46436775947595
 1 -10.77221147754775 -2.02224938043804 -1.45127460056006
 1 -2.71485381238124 -1.38486772197220  2.10106098179818
 1 -2.22765407990799  1.29864008720872  1.76639955215522
 1 -2.05992625062506  0.29837620602060  4.05171427542754
 1 -3.19476496839684  1.70549559925993  4.02029222442244
 1 -3.96846644354435  0.20414559905991  3.97453262946295
 1 -2.26514202260226 -1.67836256935694 -0.37645209240924
 1 -2.16916025542554 -0.01280508950895 -0.56531322552255
 1 -0.45249106890689  0.12455630923092  1.02444280558056
 1 -0.36613695299530 -1.54911687028703  1.54409191759176
 1 -4.27240205670567  5.80698506660666  1.17328012781278
 1 -5.72971817821782  6.81150606530653  1.46801609620962
 1 -5.04882296909691  5.40040808480848  2.76465059905991
 1 -7.67331234063406  6.79796967146715  1.38257981188119
 1 -9.15511086298630  6.12777293779378 -1.43756534263426
 1 -9.36746149274927  7.61168989648965 -0.63069329222922
 1 -12.47243160516052  3.81101028822882 -0.57934574767477
 1 -11.67899174747475  3.54645860326033 -2.21199051585159
 1 -12.92706372917292  2.70900873657366 -2.00239459485949
 1 -12.69349172237224 -1.13990291699170 -1.33876862796280
 1 -13.40359738423842  0.35569972467247 -1.66761912071207
 1 -12.34705033493349  0.66830364346435 -3.85281262556256
 1 -11.55289025702570 -0.92422999659966 -3.72310126222622
 1 -13.58373512701270 -0.73123221802180 -3.59187672997300
 1 -10.02318886768677 -4.40310963076308 -0.44230653265326
 1 -9.14835881478148 -4.56795474147415 -2.06952385058506
 1 -8.29916509120912 -5.36935520252025 -0.92608056355636
 1 -3.90897274867487 -3.57050334053405 -0.38906025462546
 1 -1.56482687568757 -5.80183527922792  2.36385972007201
 1 -2.57747619401940 -4.66247973187319  3.79376381898190
 1 -3.29022203860386 -6.40252534413441  2.97254413001300
 1  2.51570547804781 -2.15740338383838 -1.51850301730173
 1  2.29089398389839 -0.57695527632763 -2.12983075027503
 1  4.25055782748275 -1.28762107640764  0.51675957895790
 1  4.83804563376338  1.89659216821682 -2.21815653545355
 1  5.74913153035304  0.48786474897490 -3.14503590519052
 1  4.04757487568757  0.37268845564556 -3.12370319541954
 1  6.34048206440644  1.43657978297830 -0.16920711181118
 1  5.87502554725473  0.00530064046405  0.81039874727473
 1  7.20767755265526 -1.51890861546155 -1.14747550715072
 1  7.48985852835284  0.00498251885189 -1.87330215921592
 1  8.95600108750875  0.67460630193019  0.20321046934693
 1  8.50909397219722 -0.84293844534453  0.95864867726773
 1  9.99289195779578 -0.63146058935894 -1.89186376137614
 1  8.83051336753675 -2.92186087928793 -1.13304185198520
 1  10.73801883298330 -2.91497309710971 -1.33692429732973
 1  10.12202722282228 -2.91828351395140  0.38050978167817
 1  11.10011530893089  0.95779455955596 -0.04429584438444
 1  11.12959892339234 -0.34178941544154  1.08107803800380
 1  12.70688539913991 -1.60408197939794 -0.47813102610261
 1  12.43390154235423 -0.05221530053005 -1.70171170487049
 1  13.74980613551355  1.17214692549255  0.26681959285929
 1  13.76110033703370 -0.31044747254725  1.18577542344234
 1  15.19799214341434 -0.04773356725673 -1.50609262256226
 1  14.79429498239824 -2.32841542334233 -0.52919225242524
 1  16.49482335583558 -1.81577561416142 -0.92547833173317
 1  15.86502178097810 -2.05696082868287  0.81412068346835
 1  15.82162243544354  1.83682025232523  0.03078353735373
 1  16.18223288008801  0.69329995329533  1.45150857345735
 1  18.27376859855985 -0.27819202970297  0.17402753495350
 1  17.58973355895590  0.75364725302530 -1.37595602810281
 1  17.99366405590559  2.81619801570157  0.29589497919792
 1  18.21148340254026  2.05017082658266  1.56971412141214
 1  20.40001633403340  0.77110507150715  0.13426458265827
 1  20.00764812141214  3.28849711981198 -1.83823572597260
 1  21.33511075477548  1.78244631433143 -1.84451755835584
 1  19.65468044104410  1.47219284098410 -2.20404258575858
 1  20.62371760826083  2.58174964296430  1.94101513811381
 1  21.87199005620562  2.40053008040804  0.57156131323132
 1  20.58405803520352  3.88193139273927  0.40790952885288
 1 -7.04988682178218  1.81730060326033  0.51607345344534
 1 -7.63851539993999 -0.31093126912691  0.03669354175417

