%nproc=3
%Mem=2GB
# td=(NStates=1) B3LYP/SVP 

TD

0 1
 6 -5.14200189828983 -1.95552179427943  0.44142901880188
 6 -4.63447376637664  2.75131158285829  1.26272265816582
 6 -9.37618752845284  3.28022882208221 -0.28493696159616
 6 -9.85476353085308 -1.46471727512751 -0.92545509890989
 7 -5.21781094339434  0.44007563046305  0.77006544354435
 6 -4.51244986108611 -0.76241296229623  0.76345978937894
 6 -3.00808049454946 -0.67043347804780  1.17748274407441
 6 -3.07542250765077  0.81699059135914  1.78316742254225
 6 -4.42532172527253  1.40247006490649  1.25983958095810
 6 -2.92877144564456  0.89586709900990  3.27478534113411
 6 -2.00726279697970 -0.82531249294929  0.08143608920892
 6 -0.59892310451045 -0.66135435203520  0.60492294499450
 6  0.44421808320832 -0.94806167906791 -0.45480703830383
 8  0.18837060466047 -1.30818318491849 -1.58144175567557
 8  1.71276147324732 -0.72577935103510 -0.07010945364536
 7 -6.90965556015602  2.83151042284228  0.48989849904990
 6 -5.86910848624862  3.39760417871787  0.86013687058706
 6 -6.14651783748375  4.77078351785179  0.82862935573557
 6 -7.49713881068107  4.97427626312631  0.42512904030403
 6 -8.07897884378438  3.67514600830083  0.13377353275328
 6 -5.15818633513351  5.81160667576758  1.36729799579958
 6 -8.14443172587259  6.36408041964196  0.34832333363336
 6 -8.99092699089909  6.69229895179518 -0.58975145394539
 7 -9.28036623722372  0.81707894089409 -0.31501396979698
 6 -9.93439730263026  2.00904340304030 -0.55440470967097
 6 -11.27023088958896  1.90159372037204 -0.94146798069807
 6 -11.44816876737674  0.58621596169617 -1.13727868256826
 6 -10.19099132483248 -0.03349330103010 -0.80457369986999
 6 -12.22818131903190  3.02411091269127 -1.11980507080708
 6 -12.70507824732473 -0.09770224972497 -1.57588854855486
 6 -12.71273140384038 -0.43173643804380 -3.13002117341734
 7 -7.51282023962396 -1.27518920412041 -0.18215674417442
 6 -8.57664925242524 -2.11028975577558 -0.59081244364436
 6 -8.23675611461146 -3.52416929912991 -0.63982654995500
 6 -6.88812372147215 -3.48474530283028 -0.22792041594159
 6 -6.53142424582458 -2.04260707930793  0.09186426262626
 6 -9.08887164476448 -4.60414116361636 -0.89756875127513
 6 -5.78846579177918 -4.34653968906891  0.06344729032903
 8 -5.68143763396340 -5.52684221432143 -0.10630789668967
 6 -4.56565419401940 -3.36778754035404  0.39656871897190
 6 -3.98595239313931 -3.91770586408641  1.72033855955596
 8 -4.25977105060506 -3.38771670557056  2.75531359945995
 8 -3.00739942754275 -4.79689466236624  1.50314074197420
 6 -2.56487119091909 -5.39783923002300  2.76112825242524
 6  2.70458262686269 -1.10806470407041 -0.96756078187819
 6  4.01004425122512 -0.70289079147915 -0.32226432653265
 6  4.92875513211321  0.08843989888989 -0.89373332993299
 6  4.85028422412241  0.80721145284528 -2.16477359415942
 6  6.31763350855085  0.17553529272927 -0.11920083428343
 6  7.55849709010901 -0.43308949184918 -0.85604247114711
 6  8.82266386748675 -0.37051103620362 -0.19802815031503
 6  10.09460038573857 -0.74182850945094 -0.88139549434944
 6  10.04668070667067 -2.24869867276728 -1.30172945784578
 6  11.36633048324833 -0.47080139483948 -0.01908246394639
 6  12.67038871307131 -0.55241055825583 -0.82060658375838
 6  13.85507409680968 -0.19309653585359  0.07743979947995
 6  15.32476138793879 -0.20811169266927 -0.43356691459146
 6  15.67322689448945 -1.71184004940494 -0.66767553585358
 6  16.32494323862386  0.38958347564756  0.46169519181918
 6  17.72245713451345  0.77183010071007 -0.24986888828883
 6  18.55361628592859  1.65625995489549  0.68885970217022
 6  19.95958786038604  1.90621842644264  0.16828855635564
 6  20.09779047794779  2.39852642874287 -1.26384446224622
 6  20.76405892719272  2.69908124692469  1.23111489968997
 1 -4.01297895819582  3.42763399539954  1.56644152505250
 1 -10.02317017011701  3.99093633573357 -0.48915023772377
 1 -10.73322757915792 -2.03522067756776 -1.05964543764376
 1 -2.77272959996000 -1.36914614981498  1.94212508820882
 1 -2.22818413291329  1.52742296549655  1.23324623682368
 1 -2.00583084108411  0.43180954935494  3.69131823582358
 1 -3.10318581048105  1.85217026672667  3.70795099029903
 1 -3.59208880578058  0.15992117661766  3.81059623582358
 1 -2.13947945634563 -1.73330806390639 -0.46287073427343
 1 -2.23631697109711 -0.04369817881788 -0.73867056125613
 1 -0.37008282808281  0.45634948854886  1.09959032033203
 1 -0.40485082438244 -1.41570352895289  1.34399190759076
 1 -4.32757757425743  5.78450281838184  0.81143394319432
 1 -5.69195440184019  6.76827174187419  1.17369666426643
 1 -4.90077816461646  5.58713675767577  2.42572670667067
 1 -7.81357636703670  6.99826970147015  1.04742629652965
 1 -9.18463381528153  5.93055321582158 -1.27266885298530
 1 -9.55334008060806  7.79461818931893 -0.67090731363136
 1 -12.18264262626263  3.64162334953495 -0.32962077517752
 1 -11.98027187548755  3.56495045244524 -2.18124744154415
 1 -13.22410343314331  2.54662249794980 -1.35797015241524
 1 -12.67118949214921 -1.09512843954395 -1.14479923102310
 1 -13.54649167366737  0.37753190789079 -1.24839719851985
 1 -12.83888951885188  0.54523133623362 -3.60609795409541
 1 -11.92930789878988 -0.95174274787479 -3.66853580568057
 1 -13.65027178067807 -0.99633872867287 -3.45541308360836
 1 -10.10018656745675 -4.64352367216722 -0.21496379837984
 1 -9.55485946484648 -4.53483142914291 -1.85748264646465
 1 -8.53166834153415 -5.70723899089909 -0.80488844434443
 1 -3.84920677207721 -3.53553984418442 -0.45947729632963
 1 -1.78460885388539 -6.13313840954095  2.41785511961196
 1 -2.35153359975998 -4.63784726862686  3.41047549014902
 1 -3.50851386778678 -6.04374946654666  3.17371424702470
 1  2.79062296979698 -2.16562420592059 -1.25334650165016
 1  2.60388528302830 -0.57258483928393 -1.95684345154515
 1  4.31892466416642 -1.44178649294929  0.45603350635063
 1  5.69159098829883  1.74261677067707 -1.92508722852285
 1  5.36938355555556  0.17980394289429 -3.03865526712671
 1  3.92005212341234  1.27765895269527 -2.42533335843584
 1  6.60318833503350  1.23555968096810  0.07312712161216
 1  6.45448349304931 -0.52114200380038  0.88277598499850
 1  6.91265805070507 -1.45478220282028 -1.16310707030703
 1  7.72097163966397  0.09506152675268 -1.86180100910091
 1  8.96955244264426  0.70077891919192  0.27354750305031
 1  8.73843690649065 -1.20769492099210  0.79943275567557
 1  10.19621228982898 -0.16755419871987 -1.95814038903890
 1  9.36969728592859 -2.67121581478148 -2.20367891569157
 1  11.09068409950995 -2.62790439023902 -1.70208081298130
 1  9.56642166226623 -2.86142782838284 -0.36504477377738
 1  11.31237653505351  0.57437621772177  0.41013959915992
 1  11.44107007050705 -1.34301953845385  0.77104703490349
 1  12.85839054965497 -1.53806537773777 -1.30276348934894
 1  12.54423257545755  0.25209513051305 -1.67558909260926
 1  13.60877203210321  0.93118282908291  0.34894780568057
 1  13.87023125012501 -0.89298572637264  0.96288313421342
 1  15.33258560276028  0.28907011311131 -1.40721273457346
 1  14.72783833673367 -2.04776735853585 -1.38981831503150
 1  16.66910078357836 -1.85322935953595 -0.93088887278728
 1  15.68980425922592 -2.50565569816982  0.36060533193319
 1  15.88812908610861  1.38441501180118  0.90749120812081
 1  16.61679633643364 -0.22948232493249  1.41329475207521
 1  18.20600182188219 -0.14826903740374 -0.24897476527653
 1  17.52239682528253  1.11006289458946 -1.23626205870587
 1  18.20062475197520  2.79146554245424  0.92083747344734
 1  18.53866612081208  1.24273008250825  1.68890604060406
 1  20.46454278667867  0.88792675367537  0.42819397559756
 1  19.67773513011301  3.50061833193319 -1.07578948134813
 1  21.09729697339734  2.52501057075708 -1.43055616221622
 1  19.75855082808281  1.81032665436544 -2.06054823632363
 1  20.86185142164216  2.02423389138914  2.23621465806581
 1  21.83194605180518  2.89418944634463  0.94854901200120
 1  20.37349697909791  3.71090429002900  1.41062980088009
 1 -7.11902373547355  1.78121699489949  0.59664151025103
 1 -7.61624317271727 -0.18021819781978 -0.22197232483248

