%nproc=3
%Mem=2GB
# td=(NStates=1) B3LYP/SVP 

TD

0 1
 6 -5.11635933403340 -1.91511775387539  0.31517639353935
 6 -4.84420473947395  2.75711216291629  1.57640402630263
 6 -9.35201511121112  3.34841564076408 -0.16904537243724
 6 -9.81995004950495 -1.51744254765477 -0.91465401880188
 7 -5.23564272657266  0.41525314821482  0.81502993999400
 6 -4.58525714181418 -0.76121284228423  0.81242468586859
 6 -3.15990567706771 -0.63732016671667  1.27760275607561
 6 -3.26330129552955  0.70346923922392  1.88051715751575
 6 -4.48337753085308  1.38119793769377  1.37890148714872
 6 -3.18690725922592  0.80466797909791  3.47450531313131
 6 -2.05144721542154 -0.84401436313631  0.11725967156716
 6 -0.51561477367737 -0.68988720532053  0.62036448914891
 6  0.41620528192819 -0.79781665456546 -0.52607416501650
 8  0.05739750735074 -0.77543991059106 -1.80099371087109
 8  1.77281747884788 -0.90809758285829  0.00955851315132
 7 -7.23885848044804  2.75426269806981  0.57495700490049
 6 -6.09470104550455  3.22838725702570  1.09414027092709
 6 -6.35215840154015  4.71112755225523  1.14169066186619
 6 -7.59766886368637  4.95968480398040  0.54264079147915
 6 -8.10678162406241  3.65767426112611  0.24831498689869
 6 -5.43251376787679  5.73310882598260  1.59950121612161
 6 -8.23544082678268  6.32830684228423  0.47370587188719
 6 -9.01306920512051  6.68127784968497 -0.66013849264926
 7 -9.24968316891689  0.94185141814181 -0.46670913931393
 6 -9.92749661256126  2.09691218991899 -0.58778804800480
 6 -11.26149001550155  1.86013957495750 -1.13395722962296
 6 -11.42098604910491  0.54321166126613 -1.28934388908891
 6 -10.11128335403540 -0.06369632133213 -0.91595483798380
 6 -12.23073157405741  3.06749525112511 -1.29823291359136
 6 -12.57864560406041 -0.23504598409841 -1.80658161786179
 6 -12.44875500620062 -0.57489075347535 -3.38764693599360
 7 -7.42675163276328 -1.29841152635264 -0.42976150465046
 6 -8.53989557705771 -2.03829255605561 -0.71920528292829
 6 -8.19971241024103 -3.45851273347335 -0.71568413571357
 6 -6.87508241734173 -3.49984681298130 -0.35917354125413
 6 -6.40843194659466 -2.02886570517052 -0.12359728352835
 6 -9.04549730733073 -4.71905265476548 -1.11935092949295
 6 -5.73733067826783 -4.28339337443744  0.10699164476448
 8 -5.76853634383438 -5.57144667476748  0.12612534663466
 6 -4.50206783538354 -3.35307606920692  0.40474953705371
 6 -3.77156095399540 -3.89233332683268  1.67125365106511
 8 -4.25650072357236 -3.77495542944294  2.83345141324132
 8 -2.83221190879088 -4.75595056795680  1.37660808870887
 6 -2.20915561936194 -5.23529297539754  2.53158529812981
 6  2.70294246284628 -1.10908480608061 -1.05685971177118
 6  4.03842708950895 -0.85813631603160 -0.38452055215522
 6  4.97433969056906  0.08669972487249 -0.88878283488349
 6  4.85161435713571  0.80443117481748 -2.18080519731973
 6  6.22740448564856  0.36142388158816 -0.12779169336934
 6  7.48438967936794 -0.21085726862686 -0.81641850875087
 6  8.82362396349635  0.10064607950795 -0.05513386088609
 6  10.12176310201020 -0.60484481108111 -0.60874822962296
 6  10.06100213881388 -2.18969277217722 -0.55635492039204
 6  11.25402925312531 -0.09760407510751  0.22112155645565
 6  12.61925359955996 -0.40993631083108 -0.30124464756476
 6  13.83945253465347  0.19496227002700  0.38364041954195
 6  15.22957186898690 -0.22424330583058 -0.17276083398340
 6  15.51374094589459 -1.81980084548455 -0.13555232353235
 6  16.40591133543354  0.65755027232723  0.37572659495950
 6  17.82691758055806  0.39710262796280 -0.19867376877688
 6  18.70532145644565  1.67604193309331  0.31716253245325
 6  20.04550645224522  1.50392819741974 -0.23291156365637
 6  20.25595629452945  1.54074065016502 -1.94400247804780
 6  21.09944246554656  2.48482982178218  0.40416220442044
 1 -4.11792945324532  3.55600683268327  1.73484836573657
 1 -9.92108996209621  4.28702594469447 -0.31538286098610
 1 -10.74452870927093 -2.23199035453545 -1.21015048814881
 1 -3.07455978297830 -1.46775601080108  1.96065694139414
 1 -2.38054936943694  1.50610083328333  1.58268118031803
 1 -2.28814907290729  0.21251762016202  3.82080118411841
 1 -3.08919441134113  1.81164621432143  4.03375357055705
 1 -4.16922651955196  0.23643882838284  3.83965914211421
 1 -1.91107661606161 -1.82473720682068 -0.41410585778578
 1 -2.23571691109111 -0.06150995999600 -0.62422911711171
 1 -0.44387020682068  0.39123297689769  1.16967732903290
 1 -0.44176451575158 -1.44303626222622  1.54233174157416
 1 -4.44665948244825  5.81728609670967  1.21217401720172
 1 -5.86714192059206  6.60297521222122  1.58682797739774
 1 -5.29469755655566  5.81164920892089  2.67435156915692
 1 -8.31673668306831  7.05389526402640  1.30309186308631
 1 -9.18566391829183  6.15849601010101 -1.76391797789779
 1 -9.51015576217622  7.66208493599360 -0.76250647354736
 1 -12.27030139213921  3.87441662886289 -0.50986879998000
 1 -12.22608645694569  3.56516047344734 -2.40714003080308
 1 -13.38197922072207  2.54332216791679 -1.37060141554155
 1 -12.47704007720772 -1.13073199989999 -1.24430918201820
 1 -13.60246727122712  0.46045019971997 -1.71560391919192
 1 -12.46822245214521  0.27494430753075 -4.06691403570357
 1 -11.54684965296530 -1.02080965456546 -3.42821177327733
 1 -13.18289504300430 -1.34408350315031 -3.49312685498550
 1 -9.69598614741474 -5.15429474927493 -0.33172547454745
 1 -9.52172615151515 -4.29927787378738 -2.06798369656966
 1 -8.08387356205620 -5.52309057605761 -1.57452540804080
 1 -3.90283213461346 -3.49000529072907 -0.29171051965196
 1 -1.47316770977098 -6.04345944164416  2.18645197929793
 1 -1.79563801020102 -4.48285176907691  3.27060150275027
 1 -2.86835985238524 -6.00686577817782  2.97256413201320
 1  2.62398630613061 -2.13921156465647 -1.28475964296430
 1  2.38593348784879 -0.34449203000300 -1.85322308950895
 1  4.09634240594059 -1.26367868216822  0.69702760576058
 1  5.20352218141814  1.98808131713171 -2.12594731453145
 1  5.50102671987199  0.38950491299130 -3.01438283988399
 1  3.70301041924192  0.79883106990699 -2.55067589268927
 1  6.41520953715372  1.41262738773877 -0.01100129122912
 1  6.08805685038504 -0.06594648424842  0.99413712111211
 1  7.55972275717572 -1.27832455705571 -0.71074183378338
 1  7.50597013951395  0.11996401700170 -1.75795062406241
 1  8.89973546094609  1.26063490479048 -0.22863271497150
 1  8.41790485328533 -0.24314846634663  1.06181899429943
 1  10.35957862646265  0.00401295799580 -1.72603717871787
 1  9.21299161536153 -2.74959365256526 -1.05721426922692
 1  10.91799683078308 -2.50051165096510 -1.05923652855286
 1  10.20161518161816 -2.42832451805180  0.57838956965697
 1  11.12433773117312  1.03272205230523  0.24515310051005
 1  11.34784074757476 -0.09226446294629  1.35035496569657
 1  12.96845155575558 -1.52515408660866 -0.21599481248125
 1  12.49281743394339 -0.27533761276128 -1.55301683538354
 1  13.92466362126213  1.24643435423542  0.69402231313131
 1  13.78202242924292 -0.16220264806481  1.46420326622662
 1  15.35759810401040  0.11080228632863 -1.27959997329733
 1  14.81758731163116 -2.27032961476148 -0.84293362656266
 1  16.65082895639564 -1.91412544914491 -0.53737952185219
 1  15.51480675947595 -2.37612274487449  0.71233050445044
 1  16.10697097029703  1.71327789808981  0.47368782778278
 1  16.44484914171417  0.42705332863286  1.72469589218922
 1  18.26550777247725 -0.53641785228523  0.12269240144014
 1  17.70231481708171  0.51469335763576 -1.40990942344234
 1  18.38463315281528  2.68377477337734 -0.34012862316232
 1  18.44375662986299  1.67723353285329  1.56959410941094
 1  20.50215654805481  0.39420738173817  0.17060821702170
 1  19.89560691729173  2.56199446954696 -2.34232613501350
 1  21.26435367906791  1.56748481818182 -2.48636174277428
 1  19.72853782678268  0.66076169786979 -2.37326950845085
 1  20.83883912041204  2.39477094509451  1.66522755935594
 1  22.12704556175618  2.02592261966197  0.16515067216722
 1  20.90689031843185  3.57913111271127  0.03150188808881
 1 -7.70657249034903  1.77598647184718  0.61455330143014
 1 -7.68266981538154 -0.31141131713171 -0.24490461806181

