%nproc=3
%Mem=2GB
# td=(NStates=1) B3LYP/SVP 

TD

0 1
 6 -5.03608130623062 -1.97078332043204  0.42828770467047
 6 -4.73040335933593  2.75623207490749  1.41254764066407
 6 -9.37773768346835  3.36289708890889 -0.16679514741474
 6 -9.82375042954295 -1.50153095649565 -0.86933948734874
 7 -5.09305846814681  0.43017464036404  0.83607204420442
 6 -4.46454507060706 -0.84262098309831  0.84812825622562
 6 -3.02346203270327 -0.56326276097610  1.22179717551755
 6 -3.04043900930093  0.95648454075408  1.83337244304430
 6 -4.45307450055005  1.31734155205521  1.29434303130313
 6 -2.97361593009301  0.81217873017302  3.38590645324532
 6 -2.02027409810981 -0.66160612231223 -0.11547360176018
 6 -0.62966617881788 -0.76110432703270  0.37128958165817
 6  0.32305596699670 -0.95666253915392 -0.70188174577458
 8  0.04232600020002 -1.33623599019902 -1.79936354785479
 8  1.66073627072707 -0.76778355145515 -0.38632107480748
 7 -7.13890848544855  2.73453072487249  0.38494800400040
 6 -5.96982855825583  3.28790320862086  1.02222307920792
 6 -6.24472765846585  4.74617105660566  1.07430392319232
 6 -7.56589568636864  4.95750458595860  0.48772529992999
 6 -8.08737968386839  3.61980047374737  0.13921407680768
 6 -5.39772028852885  5.77754326942694  1.73629489548955
 6 -8.19970725342534  6.27265127672767  0.46817531883188
 6 -9.29709760796080  6.51741146304630 -0.40317279607961
 7 -9.18358655925593  0.87243447644764 -0.57544001240124
 6 -9.80075393829383  2.01907440614061 -0.58259752895290
 6 -11.29911377787779  1.81518507950795 -0.99867370127013
 6 -11.46195014551455  0.54958229832983 -1.23848880358036
 6 -10.12015424112411 -0.12238218991899 -0.86064930743074
 6 -12.18972747364736  2.91721022262226 -1.18119120942094
 6 -12.67206494599460 -0.15987846734673 -1.62706366606661
 6 -12.62107223792379 -0.49067233163316 -3.09819799109911
 7 -7.56836579417942 -1.17759944514451 -0.03949247774777
 6 -8.67238882638264 -1.96213494029403 -0.55102846524652
 6 -8.25149758875888 -3.37306418861886 -0.44914748204820
 6 -6.92416732583258 -3.33941076937694 -0.13914153805381
 6 -6.47523862726273 -2.05514833343334  0.05664074027403
 6 -9.06366912451245 -4.55121587108711 -0.89980897529753
 6 -5.73402034723472 -4.19875491059106  0.05840678627863
 8 -5.69125861606161 -5.39806933703370 -0.07895516141614
 6 -4.53550117871787 -3.41827258885889  0.46369543164316
 6 -3.93731752965297 -3.79850394389439  1.71100762646265
 8 -4.17145221872187 -3.26686462036204  2.74344241234123
 8 -3.11877056465647 -4.87769274217422  1.55489591749175
 6 -2.46894159795980 -5.46837628372837  2.74099623922392
 6  2.70952312091209 -1.05676957455746 -1.28280230603060
 6  4.08389163596360 -0.60580108250825 -0.61900400050005
 6  5.04522677927793  0.11176223112311 -1.28556251285128
 6  5.08165736143614  0.59509024072407 -2.70121723852385
 6  6.35289703490349  0.36868460766077 -0.52374128832883
 6  7.61425266566657 -0.50687687058706 -1.01639850675067
 6  8.75027662876288 -0.14296828192819 -0.18144649214921
 6  10.12818374407441 -0.95977030363036 -0.70596795159516
 6  10.02486852545255 -2.40764456735674 -0.81523080798080
 6  11.28670252045205 -0.47679199389939  0.09643908820882
 6  12.68891056525653 -0.58771408860886 -0.56093061616162
 6  13.83282187158716 -0.00151737793779  0.31864391989199
 6  15.27057596939694 -0.16857773927393 -0.23147670557056
 6  15.67122669446945 -1.63329219461946 -0.27041580988099
 6  16.33614435873588  0.75086960426043  0.54605362766277
 6  17.77458234703471  0.64267718541854 -0.05874977637764
 6  18.56738766306631  1.68580290919092  0.55529634583458
 6  20.10501240284028  1.71390919551955  0.11940366786679
 6  20.21580227912791  2.10837741384138 -1.32625070287029
 6  20.89039156045605  2.54271561036104  1.02702449064906
 1 -3.95040270057006  3.30411164316432  2.06987186808681
 1 -9.95843369646965  4.18598584068407 -0.26027735043504
 1 -10.62179643604360 -2.33658081358136 -1.02292176527653
 1 -2.60275260226023 -1.25865510071007  1.96923779947995
 1 -2.30824213871387  1.51212143534353  1.42526543874387
 1 -2.00492075007501  0.54152052045204  3.86152525652565
 1 -2.94006949884989  1.77407245694569  3.82017221242124
 1 -3.77086668356836  0.32048723322332  3.88711388758876
 1 -2.41207671607161 -1.64991972507251 -0.54560900810081
 1 -2.08133147254725  0.25383157415741 -0.61745844004400
 1 -0.25314113391339  0.24488834243424  0.78507886918692
 1 -0.41976231553155 -1.45134709330933  1.17572508090809
 1 -4.41783660016002  5.94284865296530  1.05957875767577
 1 -5.97064227062706  6.72083699839984  1.98178747334734
 1 -5.20558864566457  5.58385642964296  2.79101323532353
 1 -7.77662267166717  7.18903877837784  1.08656020992099
 1 -9.72550790269027  5.79701986248625 -1.21630321642164
 1 -9.62243699029903  7.47509623712371 -0.25698592149215
 1 -12.24608897089709  3.62661184838484 -0.34339215231523
 1 -11.97789163746375  3.55046900430043 -2.12550186698670
 1 -13.16888791159116  2.64494232993299 -1.28332268766877
 1 -12.85597797099710 -1.06927585428543 -0.93533828492849
 1 -13.53019004350435  0.64082823752375 -1.44680703950395
 1 -12.48270390029003  0.46928374147415 -3.75121246554656
 1 -11.76913188118812 -0.91419899349935 -3.18451740384038
 1 -13.66240299379938 -1.16854594939494 -3.52531007330733
 1 -10.11423797259726 -4.33209252905290 -0.42200450245024
 1 -9.03008698759876 -4.94560250625062 -2.08647554575458
 1 -8.41868704340434 -5.54798306530653 -0.35967392289229
 1 -3.85040689208921 -3.65809209940994 -0.38724007260726
 1 -1.81631202420242 -6.02630772647265  2.39746308040804
 1 -1.82103054945495 -4.65952943684368  3.04664910751075
 1 -3.24017703410341 -5.78645373697370  3.61032790839084
 1  2.58216212371237 -2.05043268676868 -1.35082624962496
 1  2.68050294479448 -0.29135671647165 -2.22816058325833
 1  4.34685745744574 -0.97761007530753  0.20872877587759
 1  5.05607743694369  1.67173968296830 -2.81265598539854
 1  5.98920553775377  0.12989895239524 -3.29103050465047
 1  4.10659077727773  0.27038822562256 -3.28855968106811
 1  6.56523453965397  1.41608773377338 -0.59045923702370
 1  6.23054109880988  0.19777988838884  0.65420312771277
 1  7.25478226312631 -1.50166689128913 -0.93677443704370
 1  7.71536107860786 -0.16865484488449 -2.03569839883988
 1  8.86409189658966  0.99282812411241 -0.13508336003600
 1  8.39384244704470 -0.62295644714471  0.94637745014501
 1  10.40678334693469 -0.74153159645965 -1.75947052205221
 1  9.09354967116712 -2.68999769296930 -1.38697724552455
 1  10.99115414651465 -2.82423402320232 -1.29602020692069
 1  9.96727174727473 -3.13591527712771  0.07646937763776
 1  11.29388468586859  0.73066184628463  0.32175076027603
 1  11.30309627312731 -0.87747298379838  1.19914984518452
 1  12.66403111371137 -1.66370794199420 -0.96620983398340
 1  12.73514166636664 -0.03875395439544 -1.73959549324932
 1  13.44699585448545  1.03360307110711  0.53462637353735
 1  13.73381760876087 -0.49049547734773  1.30372721862186
 1  15.33313565776578  0.19644085018502 -1.32644465776578
 1  15.01649720262026 -2.25942852465247 -1.04753408660866
 1  16.70937481098110 -1.56575061166117 -0.63166895079508
 1  15.59129440824082 -1.95783091569157  0.75326459785979
 1  16.05053532673267  1.78065463576358  0.74210466946695
 1  16.57365202200220  0.14681530483048  1.39225264786479
 1  18.40793201490149 -0.25446965746575 -0.06639650745074
 1  17.58128271387139  0.97970985928593 -1.22193062556256
 1  18.19332402190219  2.70730712661266  0.42745813551355
 1  18.50670292449245  1.57196300580058  1.69311646164616
 1  20.34397072947295  0.50213817481748  0.49006016221622
 1  19.78960631723172  3.20111838193819 -1.53023492589259
 1  21.13776101980198  2.13833190289029 -1.61561466806681
 1  19.57787276027603  1.38536415811581 -2.05018720022002
 1  20.79535477197720  2.34301576957696  2.24333537013701
 1  21.99494235143515  2.51616164356436  0.82295645274527
 1  20.65039466886689  3.57725092469247  1.06911564946495
 1 -7.41688352145214  1.73485235843584  0.14147599369937
 1 -7.77711926032603 -0.18798897489749  0.12796266866687

