%nproc=3
%Mem=2GB
# td=(NStates=1) B3LYP/SVP 

TD

0 1
 6 -5.05202290039004 -1.93343958605861  0.53334821072107
 6 -4.85762608160816  2.76175262696270  1.46611299719972
 6 -9.34442435213521  3.23705450465047 -0.22568103600360
 6 -9.82215026952695 -1.56895769916992 -0.86372892629263
 7 -5.20458962126213  0.45451707460746  0.91840027702770
 6 -4.53946256235624 -0.69969669066907  0.87119056245625
 6 -2.99416910341034 -0.54306074077408  1.23285828162816
 6 -3.06190115551555  0.95335422772277  1.83800290609061
 6 -4.43172236533653  1.49324914281428  1.33719731673167
 6 -2.98506707520752  1.04766227852785  3.31176903950395
 6 -2.06631870257026 -0.76545650735074  0.00345829142914
 6 -0.58690190239024 -0.66694491109111  0.52715516821682
 6  0.37789145054505 -0.80086695959596 -0.64752631023102
 8  0.09643141074107 -1.24525689228923 -1.77255086658666
 8  1.58786898399840 -0.57103387648765 -0.30681312401240
 7 -7.07194178877888  2.68521579337934  0.46329583878388
 6 -5.95263683908391  3.38418283658366  0.98758961586159
 6 -6.40636382208221  4.76178261776178  1.07244373717372
 6 -7.55752484928493  4.93873270877088  0.49719624702470
 6 -8.14823576947695  3.58473696739674  0.07105726112611
 6 -5.52648316481648  5.81171668676868  1.60485175117512
 6 -8.28687597029703  6.22374638623862  0.33755225652565
 6 -9.01338923712371  6.59567928982898 -0.71918439723972
 7 -9.25573377397740  0.75726295929593 -0.49927239563956
 6 -9.87706156905691  1.95472797149715 -0.60281955115512
 6 -11.29657352385239  1.68712227322732 -0.98160199409941
 6 -11.37544149464946  0.33648098819882 -1.22699765446545
 6 -10.15651787748775 -0.21423137483748 -0.87435067756776
 6 -12.31986048694869  2.79298780038004 -1.34894798509851
 6 -12.69236697619762 -0.35144762426243 -1.79223018271827
 6 -12.62100223092309 -0.53069633403340 -3.30317848914892
 7 -7.49919887748775 -1.32477416261626 -0.22489101760176
 6 -8.54599618711871 -2.04457318411841 -0.62130549294929
 6 -8.24943738273828 -3.50644752695270 -0.58888145544554
 6 -6.78088299739974 -3.44571139943994 -0.08248587248725
 6 -6.45285638903890 -2.10172299089909  0.00852592879288
 6 -8.89449220682068 -4.77800855035504 -0.99249824422442
 6 -5.63240018521852 -4.30308534363436  0.11922286788679
 8 -5.48277776797680 -5.50414994509451  0.12866560066007
 6 -4.42494012261226 -3.31271203280328  0.46662572467247
 6 -3.85139893779378 -3.72075616911691  1.80774730043004
 8 -4.17896296979698 -3.29407734163416  2.89587765586559
 8 -2.88565725332533 -4.68789376227623  1.72428285618562
 6 -2.39192389618962 -5.29733918001800  2.93114525412541
 6  2.71639380798080 -0.76913081068107 -1.35851987778778
 6  4.00794404120412 -0.70536103850385 -0.62875497559756
 6  4.95414767136714  0.26494754965497 -0.86056001260126
 6  4.75485468116812  1.62530326202620 -1.84813192999300
 6  6.27990973617362  0.22782052125213 -0.03417233143314
 6  7.54928616901690 -0.11197738063806 -0.85128199509951
 6  8.80960256135613 -0.21810579567957 -0.08774712221222
 6  9.97882880858086 -0.51161548814881 -1.01199855465547
 6  10.14697073567357 -1.97156095899590 -1.77995728062806
 6  11.40099394959496 -0.42825714041404 -0.00715127082708
 6  12.74007568176818 -0.52081739893989 -0.70034455755576
 6  13.84997358675868 -0.24797202340234  0.33641569706971
 6  15.23225213701370 -0.34678556005601 -0.30340389828983
 6  15.61722129392939 -1.75770463586359 -0.66482525082508
 6  16.28392913721372  0.40899541684168  0.53360238253825
 6  17.67637252605261  0.50898381608161 -0.02120602200220
 6  18.62258318261826  1.32910723962396  0.69130994719472
 6  20.04589649124912  1.36776458105811  0.06687841534153
 6  20.17775847474747  1.98521509760976 -1.28221629942994
 6  20.94631715301530  2.20167150595059  1.10198198639864
 1 -4.24881254155416  3.41405263726373  2.04521940284028
 1 -10.17093494659466  4.00788803090309 -0.50542186488649
 1 -10.60671492789279 -2.10291744724472 -1.04510398349835
 1 -2.63117544454445 -1.29603883908391  1.96191706740674
 1 -2.33641495599560  1.70863108630863  1.42858577077708
 1 -2.06963722172217  0.74963133153315  3.53833293729373
 1 -3.08518401030103  2.12702775247525  3.55374556975698
 1 -3.79262885978598  0.54476966146615  3.63484866106611
 1 -2.25151065946595 -1.81844657775778 -0.40760520772077
 1 -2.31896523592359  0.00893708470847 -0.75544223842384
 1 -0.40045586538654  0.32941679527953  1.11457181848185
 1 -0.40699103840384 -1.52930488908891  1.20293780218022
 1 -4.57715253175318  5.93368773687369  0.96052885268527
 1 -5.95688089448945  6.70509542424242  1.68491778637864
 1 -5.40810889768977  5.68294633863386  2.64347848184818
 1 -8.18533354275428  7.03826370087009  1.31389294319432
 1 -9.17058241014101  6.03002316281628 -1.68089967606761
 1 -9.62743749034903  7.52455118261826 -0.59865008790879
 1 -12.54005836783678  3.41178036523652 -0.51300911401140
 1 -11.81599544784478  3.48590254765477 -2.03192250905091
 1 -13.32062308510851  2.53588142384238 -1.54354871027103
 1 -12.72693506670667 -1.38712763946395 -1.34365911701170
 1 -13.61197822232223  0.07141129582958 -1.47587994679468
 1 -12.60785641554155  0.46304311741174 -3.94964230853085
 1 -11.79816478447845 -1.08172574617462 -3.60453940604060
 1 -13.47912466596660 -0.95649474427443 -3.71621916421642
 1 -9.79131568036804 -4.76063538333833 -0.31695399739974
 1 -9.25261924082408 -4.79127707370737 -2.02724962316232
 1 -8.17089226392639 -5.52877114411441 -0.95787374287429
 1 -3.78036988838884 -3.46953324352435 -0.38288963756376
 1 -1.75606599959996 -6.25099019471947  2.72502583668367
 1 -2.00288873527353 -4.38286177007701  3.45978042064206
 1 -3.22157517391739 -5.60310540214021  3.68723559915992
 1  2.34875878337834 -1.75799344284428 -1.88641980898090
 1  2.53522841734173 -0.05844342514251 -2.26348411561156
 1  4.32910568226823 -1.55800811511151  0.16857476047605
 1  4.75908773797380  2.56730923992399 -1.10894561436144
 1  5.55069168636864  1.50326628912891 -2.81141254285429
 1  3.66466658485849  1.76909809660966 -2.12987381248125
 1  6.17718573477348  1.38151427642764  0.38061787068707
 1  6.14821286598660 -0.52853274287429  0.84965267266727
 1  7.50055684058406 -1.17068379297930 -1.63467422702270
 1  7.61718126062606  0.66184820542054 -1.56326115511551
 1  8.77004249164916  0.74000284158416  0.36425657395740
 1  8.70443350615061 -1.11340549204921  0.74336714911491
 1  10.12690535913591  0.36410896759676 -1.85487006200620
 1  9.17287760396040 -1.98947764096410 -2.51281982978298
 1  10.89469450055005 -2.09754135393539 -2.44559516441644
 1  9.85465048514852 -2.71477316291629 -1.04909317861786
 1  11.22629792719272  0.55948472857286  0.76011459665967
 1  11.30673663716372 -1.24361959845985  0.85504543474347
 1  12.89121383198320 -1.41751332253225 -1.29288250125013
 1  12.78902705490549  0.49168908990899 -1.61748328202820
 1  13.69802095699570  0.71826153695370  0.73006591749175
 1  13.89265349234923 -1.01897832563256  1.31355820172017
 1  14.99683202740274  0.13646485258526 -1.45628764206421
 1  14.98469402230223 -2.29309189098910 -1.50335966916692
 1  16.53866774027403 -1.92145618221822 -1.23466925082508
 1  15.83453873267327 -2.20156528912891  0.39671894329433
 1  15.98083835703570  1.49794636493649  0.73830428942894
 1  16.18132278907891 -0.19689906660666  1.42274569716972
 1  17.89715093679368 -0.61942615311531 -0.29929979777978
 1  17.44789937553756  0.82331421972197 -1.09871830433043
 1  18.17259194869487  2.40227662356236  0.49155454515452
 1  18.73222547674768  0.97679348884889  1.86323347334734
 1  20.74993132553255  0.37954591559156  0.08194935113511
 1  19.63927128372837  3.01445971607161 -1.33614551695170
 1  21.12520976467647  2.11638970867087 -1.59265237183718
 1  19.66179115211521  1.22191781348135 -1.89771195269527
 1  21.45906114261426  1.57378884688469  2.14885592219222
 1  21.92014487168717  2.51713174057406  0.66381053815381
 1  20.37404703410341  3.14432763236324  1.14005274317432
 1 -7.05699753285329  1.72910178337834  0.19336118221822
 1 -7.52989453785378 -0.42251242724272 -0.31920204780478

