%nproc=3
%Mem=2GB
# td=(NStates=1) B3LYP/SVP 

TD

0 1
 6 -5.15119281738174 -1.91554779687969  0.60714559045905
 6 -4.78231855085509  2.74462091379138  1.31710809670967
 6 -9.32744265396540  3.29157995719572 -0.19440790869087
 6 -9.86388444294429 -1.52325312871287 -0.96046860026003
 7 -5.25890505280528  0.49486110901090  0.89206764376438
 6 -4.49385800190019 -0.66517323832383  0.86459990339034
 6 -3.10908059455946 -0.46945338003800  1.23103809960996
 6 -3.12852781818182  0.89192808510851  1.85742484828483
 6 -4.48272746584658  1.40854067196720  1.26244984198420
 6 -3.15162373087309  1.01885939823982  3.38824668726873
 6 -2.03266533723372 -0.50654061576158  0.05987393299330
 6 -0.59544275647565 -0.57337555415542  0.54133658635864
 6  0.37841150255026 -0.98589546244624 -0.58339989758976
 8  0.02191395899590 -1.43252561916192 -1.62565617711771
 8  1.62954315141514 -0.71882865596560 -0.25223766646665
 7 -7.11129572417242  2.69668694049405  0.57237674687469
 6 -5.99769134453445  3.39676409470947  0.98894975187519
 6 -6.30340352605261  4.82347878737874  1.06528302110211
 6 -7.66672576937694  4.94464329982998  0.64343087048705
 6 -8.09629057495750  3.61032952665267  0.24309446484648
 6 -5.37782829932993  5.93218873397340  1.66025729172917
 6 -8.31634891759176  6.25084909650965  0.42222072337234
 6 -9.17871576977698  6.55682540444044 -0.57792027082708
 7 -9.21793999459946  0.80236746974697 -0.51623409180918
 6 -9.83094695759576  2.01720421912191 -0.53523279247925
 6 -11.26011987848785  1.81529509050905 -1.05812964686469
 6 -11.40348429892989  0.47840518061806 -1.28057301200120
 6 -10.09506173187319 -0.21268121982198 -0.92538578107811
 6 -12.24705320622062  2.98797729932993 -1.14028711901190
 6 -12.60176791629163 -0.32179465896590 -1.77143810351035
 6 -12.65759589028903 -0.57700096449645 -3.30286845814581
 7 -7.61168012561256 -1.32269395459546 -0.06124465296530
 6 -8.65458704620462 -2.09946867366737 -0.55540890329033
 6 -8.17360979998000 -3.49675655785579 -0.57535010231023
 6 -6.82169707880788 -3.40403723202320 -0.13863148704870
 6 -6.46723782718272 -2.06293911251125  0.08798387458746
 6 -9.01666442404240 -4.67595834533453 -0.90807980238024
 6 -5.64917186238624 -4.36550158525853 -0.02042109650965
 8 -5.45080457065707 -5.58038756885689 -0.19828709460946
 6 -4.55059268786879 -3.32974373597360  0.41197025912591
 6 -3.87431122902290 -3.71521561506151  1.77627415311531
 8 -4.18318339183918 -3.29862779667967  2.82704077217722
 8 -2.88920760836084 -4.73170814371437  1.60566099399940
 6 -2.24772947674767 -5.12199164526453  2.79802194179418
 6  2.65086725532553 -0.97544144174417 -1.28596262206221
 6  3.96777002380238 -0.67932843524352 -0.70903300340034
 6  5.01880413701370  0.03840489538954 -1.17048100470047
 6  4.89332852855286  0.89892062376238 -2.37060417721772
 6  6.29956170137014  0.24274201340134 -0.46320523472347
 6  7.57331857225723 -0.41059724262426 -1.10087695459546
 6  8.83566516761676 -0.22776676177618 -0.18405675317532
 6  10.13675460116012 -0.73795812241224 -0.89149650445045
 6  10.07809384798480 -2.34393819671967 -1.12260154505451
 6  11.41570542074207 -0.36246056075608 -0.04091464716472
 6  12.73089476367637 -0.46032134933493 -0.76097062016202
 6  13.85208379777978 -0.12536976317632  0.25529758525853
 6  15.29609852165217 -0.23263414491449 -0.29118267616762
 6  15.59938951075107 -1.76678554395440 -0.45533430173017
 6  16.33850459475948  0.52624714201420  0.48110713301330
 6  17.77044193299330  0.63297621532153 -0.09169307070707
 6  18.62302322662266  1.48668299719972  0.79405022122212
 6  20.02185408700870  1.57828563316332  0.13672540004000
 6  20.24142484138414  2.16010258635864 -1.20596867466747
 6  20.89934245554556  2.38619995879588  1.10992278047805
 1 -3.84761242154215  3.32053328532853  1.85075995689569
 1 -10.15136298939894  4.10731797389739 -0.37996931963196
 1 -10.73215747214721 -2.17365452095210 -1.20785025812581
 1 -2.77909023602360 -1.16258549374937  1.91454232993299
 1 -2.28944025852585  1.48360858405841  1.58305121732173
 1 -2.13480373837384  0.68752512091209  3.83219232323232
 1 -3.33208870077008  2.04922997269727  3.86634682988299
 1 -3.84772436933693  0.22641782628263  3.86389156535654
 1 -2.24797030543054 -1.31996672977298 -0.82162660986099
 1 -2.15563890329033  0.46277246824682 -0.50888758295830
 1 -0.15457127692769  0.39257311091109  0.85762612391239
 1 -0.49950028932893 -1.21407336593659  1.42213972237224
 1 -4.55051986848685  6.09774414251425  0.94061686148615
 1 -5.90235544194420  6.72773768846885  1.58063735833583
 1 -5.15902398919892  5.71072911691169  2.73918805280528
 1 -7.97536254565457  6.94900477497750  1.09838139203920
 1 -9.47055240714071  5.99717987848785 -1.45971755785579
 1 -9.67648239483948  7.62072079957996 -0.46739696259626
 1 -12.90300466246625  3.44424361156116 -0.26306411951195
 1 -11.77752160046005  3.86331028842884 -2.05892520932093
 1 -13.29639066186619  2.72941077677768 -1.62044640004000
 1 -12.67144951815182 -1.46177510421042 -1.23408815991599
 1 -13.53834085858586  0.02147630233023 -1.34567692649265
 1 -12.44782041194119  0.46036284938494 -3.67594493879388
 1 -11.77835280328033 -1.16718429202920 -3.50828978107811
 1 -13.62740949444945 -0.94733382818282 -3.55684322662266
 1 -9.55785233403340 -4.92591191099110  0.16707440544054
 1 -9.90041402030203 -4.51979992599260 -1.82770966916692
 1 -8.37253242794279 -5.63168143514351 -0.99846780228023
 1 -3.67098895029503 -3.38066435663566 -0.29167051565156
 1 -1.42674306730673 -5.74716981268127  2.45309864396440
 1 -1.78448689508951 -4.21417490139014  3.28316275887589
 1 -2.91891490789079 -5.78025311691169  3.47222409800980
 1  2.52595650315032 -1.92585022852285 -1.53784495149515
 1  2.32056695119512 -0.55697327812781 -2.26393416061606
 1  4.09974274597460 -1.17376969126913  0.19992789578958
 1  5.11422325152515  1.84436694569457 -2.22069678947895
 1  5.57156377357736  0.53934989748975 -3.23582498409841
 1  3.92778289648965  0.79566075287529 -2.70427125222522
 1  6.72403041924192  1.40515664066407 -0.20501069216922
 1  6.10783882858286 -0.25538542814281  0.49095680308031
 1  7.35583236813681 -1.44856158075808 -1.44418517811781
 1  8.01025056755676 -0.00731871127113 -1.85175000400040
 1  8.89332481988199  0.87748658995900  0.07562771107111
 1  8.75786884968497 -0.73476762826283  0.81617442984298
 1  10.23697636623662 -0.11850929422942 -1.72799737473747
 1  9.33458377457746 -2.65140383358336 -1.68201674947495
 1  10.84863989508951 -2.62517411721172 -1.56545715061506
 1  9.97206222632263 -2.76985867146715 -0.15326359565957
 1  11.27637293469347  0.67789656975698  0.22785137033703
 1  11.22623858735874 -1.09086432293229  0.78942887308731
 1  12.78911362196220 -1.49906147734773 -1.16910012301230
 1  12.79709786198620  0.19363928492849 -1.62715424912491
 1  13.67190834573457  0.86088579937994  0.67823073397340
 1  13.79496372337234 -0.67676410421042  1.07739458535854
 1  15.30067241144114  0.09290049614961 -1.22409442274227
 1  14.80482603550355 -2.03405598739874 -1.12905223842384
 1  16.61264513801380 -1.88976301290129 -0.96853263716372
 1  15.40852613141314 -2.36293142574257  0.26493576497650
 1  15.77069734293429  1.47342391269127  0.57485794479448
 1  16.49601425822582 -0.15959533623362  1.35813923652365
 1  18.08777999969997 -0.40154436493649 -0.41426129392939
 1  17.67132171777178  1.16893878217822 -1.21828026052605
 1  18.19788447794780  2.51075747164716  0.83438882858286
 1  18.61475372957296  1.00920673017302  1.83681083108311
 1  20.25049138153815  0.55849381038104  0.00250140634063
 1  20.16021337793779  3.32780105020502 -1.11270317271727
 1  21.20376762046205  2.19266733643364 -1.50374348094810
 1  19.57511248424843  1.84600022172217 -1.95147732923292
 1  20.83327856435644  1.87992946094609  2.19670070667067
 1  22.12491534873487  2.41642166956696  0.79455361246125
 1  20.40353998339834  3.32866606620662  1.23730246814681
 1 -7.13422525562556  1.73801267446745  0.17540938703870
 1 -7.63054460286029 -0.31105128112811  0.14807467986799

