%nproc=3
%Mem=2GB
# td=(NStates=1) B3LYP/SVP 

TD

0 1
 6 -5.19618731683168 -1.95885212731273  0.43542841874187
 6 -4.67020733973397  2.69360581228123  1.38963534943494
 6 -9.22561247094709  3.56802760196020 -0.27770623852385
 6 -9.95988404290429 -1.29867067046705 -0.79785233863386
 7 -5.13679284158416  0.45074669756976  0.61400983798380
 6 -4.46768538463846 -0.79204592559256  0.73648709210921
 6 -3.06276596309631 -0.68205464016402  1.18459345514551
 6 -2.84009897529753  0.71861075337534  1.74723382918292
 6 -4.23117231033103  1.29560937883788  1.20937453445345
 6 -2.95182375087509  0.66651416371637  3.25675353795380
 6 -2.11025309600960 -0.94560452215222 -0.00614266866687
 6 -0.59020223242324 -0.91490970757076  0.42790524322432
 6  0.36781044244424 -1.25432230513051 -0.60179173677368
 8  0.20707247484748 -1.70417278387839 -1.73095670717072
 8  1.53491368846885 -0.82102887598760 -0.25336777947795
 7 -6.94572916751675  2.76450372217222  0.40603011221122
 6 -5.83173474887489  3.32180659895990  0.88944980188019
 6 -6.04171735743574  4.82572901240124  1.06433292609261
 6 -7.31512060886089  4.98104694019402  0.40273680108011
 6 -7.87066801270127  3.69781827552755  0.15671582698270
 6 -4.93181369786979  5.83891940704070  1.38928019401940
 6 -8.01296857955795  6.27653166476648  0.35449395069507
 6 -8.66928482668267  6.72737245914591 -0.64947742654265
 7 -9.16155435603560  0.95598283128313 -0.49143161156116
 6 -9.77399126202620  2.21050354905491 -0.50512978217822
 6 -11.20169403590359  2.00137369836984 -0.95880971487149
 6 -11.41756570707071  0.65552289238924 -0.98271322602260
 6 -10.14347657335733  0.00312036033603 -0.69423266576658
 6 -12.05963446434643  3.18329683128313 -1.16261935223522
 6 -12.62722046154616  0.03819133963396 -1.42888384808481
 6 -12.67015714641464 -0.31074433883388 -2.96916508780878
 7 -7.54794375197520 -1.25681736693669 -0.07141567006701
 6 -8.72697428492849 -1.95486421322132 -0.48930229262926
 6 -8.36025846484648 -3.29954683688369 -0.50087265456546
 6 -7.05778068716872 -3.49004583288329 -0.17311493539354
 6 -6.48118922232223 -2.11150396899690  0.05553062926293
 6 -9.28243100070007 -4.52000274977498 -0.83525251965197
 6 -5.82248919411941 -4.34420945604560 -0.01978103250325
 8 -5.78938842904290 -5.56447597769777 -0.21166843274327
 6 -4.58321595019502 -3.43983474507451  0.40323938603860
 6 -4.02406620452045 -3.91099519301930  1.74048057375738
 8 -4.37420249374937 -3.49830776467647  2.80547861596160
 8 -3.25664435203520 -4.95871084398440  1.57456788468847
 6 -2.71475617941794 -5.56482592869287  2.76865900550055
 6  2.63183535213521 -1.14773867146715 -1.21129515531553
 6  3.90154340114011 -0.86639714211421 -0.60427252735274
 6  4.98920117671767 -0.08655760086009 -1.04937889448945
 6  4.94195339103910  0.49090982268227 -2.37791490829083
 6  6.30260200540054 -0.03977623842384 -0.28382729692969
 6  7.47396863726373 -0.62373855675568 -1.01150801770177
 6  8.79189079017902 -0.37131111621162 -0.22412075957596
 6  10.16585751145115 -1.00378470507051 -0.81068842364236
 6  10.04510054865487 -2.49846364926493 -0.91743102800280
 6  11.31303515371537 -0.46500081478148  0.05989543384338
 6  12.69924159835984 -0.57964328152815 -0.63832835593559
 6  13.84016260566057 -0.00982820902090  0.21207326282628
 6  15.20831974377438 -0.09045992749275 -0.36788034593459
 6  15.76604617641764 -1.45467433283328 -0.55024379267927
 6  16.17384812911291  0.67176169346935  0.61241026332633
 6  17.58399328812881  0.97920083778378 -0.02523642504250
 6  18.44028495279528  1.98669299819982  0.71190200640064
 6  19.89650155175518  2.09987779237924  0.10550227772777
 6  20.02085278417842  2.67950452655265 -1.24122220002000
 6  20.80768328962897  2.91093243204320  1.16470825902590
 1 -3.97213487378738  3.51707293929393  1.89747462836284
 1 -9.67554540764077  4.63278052015202 -0.41422274497450
 1 -10.77299155555555 -1.97242439793979 -0.84101357445745
 1 -2.70865319231923 -1.31746098129813  2.08519939563956
 1 -1.96977829232923  1.05670589378938  1.30195310751075
 1 -2.05026528452845  0.27386375477548  3.74444354835483
 1 -3.03966945884588  1.60339538923892  3.67397759295930
 1 -3.77775737263726  0.07855303980398  3.55912108830883
 1 -2.34519002740274 -1.97083181628163 -0.51706615381538
 1 -2.21299463886389 -0.25679948894889 -0.77339403360336
 1 -0.35155097489749  0.13992784638464  1.02141250255026
 1 -0.48240858015802 -1.68500045864586  1.18081558995900
 1 -4.30808562506251  6.16265063316332  0.48910170997100
 1 -5.36476168256826  6.79036395109511  1.69993928852885
 1 -4.29121720852085  5.34688273227323  2.21145527952795
 1 -8.01642665206521  7.07007688218822  1.18333988788879
 1 -8.68008336023602  6.12596275677568 -1.53344493059306
 1 -8.99773452005200  7.75396412391239 -0.61796201910191
 1 -12.25884024602460  3.69019820702070 -0.05858367146715
 1 -11.52259610791079  3.91706566396640 -1.90315963276328
 1 -13.06995801860186  2.93887172287229 -1.85988034343434
 1 -12.78954132733273 -0.85389431613161 -0.79311406250625
 1 -13.56003302780278  0.69731388608861 -1.13529588838884
 1 -12.85256088598860  0.59827664076408 -3.68053539783978
 1 -11.76100106810681 -0.80199777337734 -3.27707665976598
 1 -13.62692944644464 -0.91792088688869 -3.21843938623862
 1 -10.18772532133213 -4.53207252705271 -0.10976327832783
 1 -9.78822280118012 -4.46580452645264 -1.89417631583158
 1 -8.75038021272127 -5.38747701470147 -0.88607656315632
 1 -3.94039589098910 -3.65025131533153 -0.50191153975398
 1 -1.84759515251525 -6.14066916261626  2.35131846594659
 1 -2.43822226862686 -4.71209469336934  3.29826426902690
 1 -3.34980799719972 -6.19531462306231  3.23497037263726
 1  2.61505541304130 -2.12119976347635 -1.55904707170717
 1  2.66280117461746 -0.50304788558856 -2.07097486468647
 1  4.14848762046205 -1.64764707900790  0.24198210121012
 1  5.43253508270827  1.50179268826883 -2.65730044984498
 1  5.63994061126113 -0.25148918641864 -2.92213361496150
 1  3.95898601680168  0.60573175997600 -2.85456628172817
 1  6.40068808500850  1.12733885888589  0.00600040894089
 1  6.24156220092009 -0.27488737833783  0.72028973637364
 1  7.21896868176818 -1.87523424802480 -1.16097685728573
 1  7.78116765926593 -0.20862884228423 -2.04877970697070
 1  8.85322080948095  0.67490633193319 -0.04268412011201
 1  8.57839090189019 -0.89258340984098  0.74046685908591
 1  10.25871854045404 -0.31321876517652 -1.86034060906091
 1  9.11453176937694 -2.85970466366637 -1.51481002880288
 1  10.86925195629563 -2.87791939173917 -1.58893949884989
 1  10.08359337943794 -2.88035972157216  0.12223395409541
 1  11.13575887328733  0.55797457755776  0.12857144234423
 1  11.41821778527853 -0.76518175467547  0.94556448664866
 1  12.74153886448645 -1.56320789198920 -0.89854306730673
 1  12.61876002820282  0.06008592959296 -1.48104963866387
 1  13.59963111801180  1.02995270607061  0.38758166906691
 1  13.90320454745475 -0.64683111091109  1.08674552045205
 1  15.42946529072907  0.38288949504951 -1.48237025032503
 1  15.18526407930793 -2.14359694149415 -1.15117445064506
 1  16.73887776127613 -1.39788382498250 -1.07855363926393
 1  16.03497877667767 -2.06771190379038  0.49788906030603
 1  15.41288156135614  1.53808037833783  0.70834129312931
 1  16.37020167696770  0.21376199949995  1.56502992559256
 1  18.29230045174517  0.16910269976998 -0.42038190599060
 1  17.59649423502350  1.42045393369337 -1.12901133363336
 1  17.89613430293029  2.98152454835484  0.56567195689569
 1  18.62915516971697  1.75400120962096  1.92446959695970
 1  20.34038037043704  0.99278723972397  0.05066622282228
 1  19.51266862346235  3.66880515061506 -1.27839974237424
 1  20.99424666836684  2.95684375407541 -1.68130123672367
 1  19.70323529652965  2.01125674737474 -2.12980516201620
 1  20.79456469296930  2.65796726472647  2.23361439803980
 1  21.80096295349535  2.79886991439144  0.80030418751875
 1  20.55309493889389  4.02054525412541  1.01259999789979
 1 -7.12265409850985  1.80908978217822  0.33625547164716
 1 -7.52830437883788 -0.22683285928593 -0.16821694929493

