%nproc=3
%Mem=2GB
# td=(NStates=1) B3LYP/SVP 

TD

0 1
 6 -5.17994569266927 -1.91705794789479  0.48857373327333
 6 -4.76239655865587  2.77162361406141  1.44816120202020
 6 -9.41835174487449  3.29369016821682 -0.17922639053905
 6 -9.75756381088109 -1.45057586098610 -1.02138469186919
 7 -5.19638880118012  0.43199482238224  0.83562199919992
 6 -4.51382999909991 -0.71679840084008  0.84506795019502
 6 -3.00418010451045 -0.58268470317032  1.19535453125313
 6 -3.06543150855086  0.86205509780978  1.79990909670967
 6 -4.44361355445545  1.42114193209321  1.38492208920892
 6 -2.99309787828783  0.85799331163116  3.37335519811981
 6 -2.05876794749475 -0.69383934563456  0.08663660926093
 6 -0.57282049424942 -0.79623784038404  0.63335578827883
 6  0.31890555195520 -0.89538641154115 -0.57564912251225
 8  0.01317308490849 -1.11817418401840 -1.73481709320932
 8  1.64227442454245 -0.69181595469547 -0.12406484918492
 7 -7.06737133173317  2.72269954175417  0.50474998419842
 6 -6.02234380978098  3.39895431373137  1.02569342624262
 6 -6.31384457015702  4.75144158365837  1.02301879467947
 6 -7.56980607740774  4.96114494999500  0.52510903830383
 6 -8.07559850575058  3.61649014271427  0.21363151855186
 6 -5.40138065456546  5.89877539263926  1.63351461746175
 6 -8.29589687238724  6.19044305590559  0.47551605290529
 6 -9.20516841504150  6.69468919081908 -0.48594107290729
 7 -9.26944514511451  0.84465169816982 -0.60169263766377
 6 -9.95759962286229  1.94836733543354 -0.53606287548755
 6 -11.29717358385839  1.84638819981998 -1.17068090199020
 6 -11.38830278077808  0.41008834893489 -1.29962491719172
 6 -10.10939316501650 -0.11760171187119 -0.91562480498050
 6 -12.18582708360836  2.99360786238624 -1.31621471177118
 6 -12.66512425192519 -0.29427190669067 -1.71757271697170
 6 -12.71305143584358 -0.64998826322632 -3.21254942624262
 7 -7.50743970157016 -1.17670935613561 -0.25370389888989
 6 -8.45283687118712 -2.02419114591459 -0.71998536093609
 6 -8.07368980798080 -3.35038192039204 -0.72544511181118
 6 -6.77608251735174 -3.48488531683168 -0.29728735263526
 6 -6.53074417781778 -2.10720353895390  0.03746882308231
 6 -9.02637539513951 -4.47122787228723 -1.10536953135314
 6 -5.59689663486349 -4.30934596969697  0.06961790739074
 8 -5.51432092229223 -5.49710924102410 -0.06475374127413
 6 -4.51812944154416 -3.26067682928293  0.51601066316632
 6 -3.93712751065107 -3.76781087458746  1.79693621932193
 8 -4.22601767526753 -3.37696563046305  2.93316138423842
 8 -3.17780646824682 -4.88300327322732  1.67363779167917
 6 -2.55588029182918 -5.42704215031503  2.78066020562056
 6  2.64461663026303 -0.91174507210721 -1.11687571337134
 6  3.94153740054005 -0.47573807620762 -0.34371647174717
 6  5.04970722732273  0.06893794869487 -0.88304226082608
 6  5.02359155485548  0.56077680938094 -2.26861397819782
 6  6.37931967716772  0.21800954015402 -0.18165707990799
 6  7.59246048644864 -0.38256443934393 -0.91884875177518
 6  8.80668226932693 -0.28109209430943 -0.11369971747175
 6  10.15989691539154 -0.76178050465046 -0.79139649444944
 6  10.03212925152515 -2.27294109700970 -1.09000828572857
 6  11.30810466066607 -0.42489680438044  0.18848829312931
 6  12.55815748994899 -0.59543486068607 -0.60124464756476
 6  13.80015860526053 -0.15722294849485  0.24603665916592
 6  15.16780569236924 -0.20926180768077 -0.37786134403440
 6  15.68728830063006 -1.65945481088109 -0.58578734703470
 6  16.28255900020002  0.66177069436944  0.29698872117212
 6  17.67141203000300  0.65219813751375 -0.23301720312031
 6  18.61600252455246  1.76714104300430  0.48790960716072
 6  20.19868176977698  1.61980978557856  0.05060678817882
 6  20.35761646054605  2.07243381948195 -1.41007908570857
 6  20.96412893419342  2.45617695649565  1.00567235543554
 1 -3.95491315161516  3.44566579857986  1.96848172907291
 1 -10.06942479557956  4.22433967606761 -0.31634295699570
 1 -10.45026928332833 -2.22109926542654 -1.37160663376338
 1 -2.69835216221622 -1.32181141634163  1.98744962066207
 1 -2.23780509500950  1.31553177637764  1.47683059525953
 1 -1.99026928492849  0.57463383178318  3.79801890589059
 1 -3.03688918081808  1.87198224792479  3.66024621982198
 1 -3.71494109100910  0.35363054755476  4.09296447264726
 1 -2.38920442884288 -1.58198293139314 -0.55479992719272
 1 -1.97530086948695  0.19396558755876 -0.56711340554055
 1 -0.50918673847385  0.23588744234423  1.07498786008601
 1 -0.67610795009501 -1.49734169276928  1.50695820422042
 1 -4.32196701320132  5.99158352645265  1.00914371417142
 1 -6.03456866326633  6.82700761546155  1.43529282388239
 1 -5.01379946674667  5.72175021902190  2.63032716671667
 1 -8.00550555995600  6.87365724022402  1.42187374127413
 1 -9.64848019991999  5.98755891639164 -1.37684927102710
 1 -9.68747349394939  7.76355508300830 -0.51591181408141
 1 -12.30658502050205  3.32584177137714 -0.35990380348035
 1 -11.90444429272927  3.67001095849585 -2.24819413621362
 1 -13.24878590139014  2.66668450415042 -1.55025938133813
 1 -12.67736010921092 -1.35588451515152 -1.24275902700270
 1 -13.39115614011401  0.37999215391539 -1.55691805060506
 1 -12.26983261316132  0.37041385448545 -3.85900324462446
 1 -11.98499346734673 -1.28461603520352 -3.32067101920192
 1 -13.71220797429743 -1.06936603140314 -3.64351189348935
 1 -9.90393694249425 -4.60153947374737 -0.48833113511351
 1 -9.53987796669667 -3.94985293129313 -2.05173207140714
 1 -8.36703187788779 -5.45374364136414 -1.43342129762976
 1 -3.63034488588859 -3.50513680388039 -0.08898024662466
 1 -1.87161755475548 -6.41860695639564  2.55766910101010
 1 -2.28855730213021 -4.67382086598660  3.38808325092509
 1 -3.34540755715572 -6.03369846144615  3.49128600420042
 1  2.54473838133813 -1.88336598009801 -1.54991615861586
 1  2.47092198669867 -0.23758133893389 -1.99159692689269
 1  4.08430120182018 -0.97797011131113  0.67619552255225
 1  5.92845467466747  1.40118262726273 -2.10957567736774
 1  5.66086270347035 -0.18917295479548 -2.83725512711271
 1  4.11826194439444  0.86909809660966 -2.70637146224622
 1  6.46131414761476  1.37188331333133 -0.00254044514451
 1  6.23061110581058 -0.20990087968797  0.79482719011901
 1  7.17827461236124 -1.28157488208821 -1.28272903250325
 1  7.79542908540854  0.02878489908991 -1.89779460846085
 1  8.90911639903990  0.92916175747575  0.08519866816682
 1  8.69565262806281 -0.91571572307231  0.74609742214221
 1  10.21370403900390 -0.15638308160816 -1.67067164216422
 1  9.09830014621462 -2.22977167036704 -1.68162671047105
 1  10.91351638273827 -2.93429502930293 -1.64252485738574
 1  9.81370639073907 -2.70650233583358  0.01768349904990
 1  11.42672797019702  0.62884166426643  0.55980456565657
 1  11.10972693619362 -1.15841107760776  1.09963989418942
 1  12.57268197879788 -1.63239481068107 -0.94442765576558
 1  12.58856700890089  0.04572449344934 -1.33168470217022
 1  13.40612176707671  0.95289500030003  0.40673358425843
 1  13.94712893989399 -0.60785721352135  1.28404525042504
 1  15.11339368356836  0.15779698579858 -1.36956897019702
 1  15.10465601850185 -2.40043262506251 -1.20469980318032
 1  16.63469734323432 -1.68688272487249 -1.04959074297430
 1  15.75910118891889 -2.07711284388439  0.52095136653665
 1  15.80347062026203  1.77955452575258  0.19622008100810
 1  16.15043970077008  0.36846747004700  1.14451787438744
 1  17.89821104280428 -0.34934914541454 -0.10040990879088
 1  17.62899748534853  0.89512140044004 -1.25946437893789
 1  18.35580026952695  2.75780217611761  0.29592498219822
 1  18.58315056925693  1.56630243974397  1.41647879787979
 1  20.42516884928493  0.62287024802480  0.17319847604761
 1  20.44866222282228  3.22062033213321 -1.50470237263726
 1  21.46327357105710  1.83304137383738 -1.55102820942094
 1  19.68075304830483  1.63066868856886 -2.17179936143614
 1  20.90689592609261  2.33261472947295  2.01564260086009
 1  22.12190504770477  2.34000402780278  0.81983614071407
 1  20.50183981338134  3.41465466506651  0.75092383028303
 1 -6.91691352445245  1.60338921212121  0.30978282438244
 1 -7.48301985038504 -0.13609378537854 -0.19956008360836

