%nproc=3
%Mem=2GB
# td=(NStates=1) B3LYP/SVP 

TD

0 1
 6 -5.07039473757376 -1.93781002310231  0.45048992489249
 6 -4.78097841684168  2.72222867456746  1.33039942584258
 6 -9.31896180588059  3.30610140934093 -0.12738120602060
 6 -9.79683773827383 -1.44896569997000 -0.85030758415842
 7 -5.23747290959096  0.49152077497750  0.72306074307431
 6 -4.51351996809681 -0.77885460646065  0.84633807720772
 6 -3.11152083858386 -0.53807024172417  1.30667566336634
 6 -3.09089405480548  0.93336222852285  1.83661276707671
 6 -4.33080227332733  1.40513033093309  1.23625722272227
 6 -2.88223679217922  1.12228974127413  3.43985184778478
 6 -2.14990706140614 -0.79918988068807  0.09700764636464
 6 -0.63569678187819 -0.85345356195620  0.56446889958996
 6  0.34649831123112 -1.00118699159916 -0.69501105870587
 8 -0.00098833123312 -1.57605997259726 -1.65381899339934
 8  1.65214541164116 -0.75403217631763 -0.29668211091109
 7 -7.04870946554655  2.76145341714171  0.44103361256126
 6 -5.95118669406941  3.42262668096810  0.94396525342534
 6 -6.25306849254925  4.84796123562356  1.06017251005101
 6 -7.53387248404840  5.00980981648165  0.60259678707871
 6 -8.04766571247125  3.70246874057406  0.22048220362036
 6 -5.20258077457746  5.83423893899390  1.40455172117212
 6 -8.21317860056006  6.30617462906291  0.37678617991799
 6 -9.14234213241324  6.70672039393939 -0.54747722652265
 7 -9.18765696629663  0.86258349134913 -0.40034250265027
 6 -9.87362122502250  2.00694319301930 -0.54438370757076
 6 -11.18228209470947  1.82834639563956 -1.03455728962896
 6 -11.31581553205321  0.49091643174317 -1.21608656335634
 6 -10.10901312701270 -0.08966891859186 -0.84954819731973
 6 -12.13174167506751  3.04603310491049 -1.18465155545555
 6 -12.51854959445945 -0.28089056855686 -1.70200115981598
 6 -12.40674080478048 -0.73910717511751 -3.20318849014901
 7 -7.51153011061106 -1.25603728892889 -0.12330085858586
 6 -8.68306989448945 -2.04991371817182 -0.47716107850785
 6 -8.27563000200020 -3.52092897509751 -0.38179074637464
 6 -6.88479338843884 -3.44942177047705 -0.01282890679068
 6 -6.44727583098310 -2.07061988058806  0.09853492969297
 6 -9.15854861246125 -4.60321107060706 -0.82239123352335
 6 -5.78313525872587 -4.35082011711171  0.14410535613561
 8 -5.63866335653565 -5.51157068716872  0.08081081518152
 6 -4.51158878747875 -3.35430619221922  0.49107816991699
 6 -3.81424522242224 -3.89153324682468  1.66818334403440
 8 -3.98452352585258 -3.43193112701270  2.78614668276828
 8 -2.91568025562556 -4.87554252715272  1.43139356725673
 6 -2.29789449324932 -5.46688613471347  2.54457659725973
 6  2.62791496009601 -1.03081697929793 -1.29183320912091
 6  4.01466471327133 -0.77161766416642 -0.70061216131613
 6  4.91275353195319  0.00641169606961 -1.15594955155516
 6  4.81109030473047  0.74324505620562 -2.55012212901290
 6  6.24143588878888  0.22938067726773 -0.30613952815282
 6  7.51866310671067 -0.21243742664266 -1.04206107300730
 6  8.73501510261026 -0.09293327842784 -0.22052039953995
 6  10.08192911861186 -0.43384771137114 -0.94053140794079
 6  10.10132617121712 -1.90690449334933 -1.42157144204420
 6  11.20296414661466 -0.02898721342134 -0.09236979267927
 6  12.62495416961696 -0.21995731293129 -0.71350587368737
 6  13.77093568296830  0.07236000980098  0.27885994149415
 6  15.15050396219622 -0.15116599809981 -0.29815337323732
 6  15.52453202500250 -1.60033889928993 -0.59210797909791
 6  16.27026777107711  0.51324584188419  0.70837986028603
 6  17.59997488628863  0.51945486318632  0.08133423202320
 6  18.52928385268527  1.38731306020602  0.74862567876788
 6  19.94210611221122  1.44219202380238  0.26052778027803
 6  20.19399009790979  1.87308388448845 -1.13630170797080
 6  20.91348386968697  2.27423876267627  1.22826461466147
 1 -4.17391505180518  3.48052928492849  1.79879476037604
 1 -10.04070192329233  4.26357359945995  0.03102177947795
 1 -10.62346660306031 -2.07801495699570 -1.07080655375538
 1 -2.92876520352035 -1.17266650185018  2.18707958365837
 1 -2.27872918741874  1.45314553775378  1.35567848004801
 1 -2.08886914491449  0.60941731013101  3.60455955995600
 1 -2.92891838373837  2.11241629132913  3.73678387358736
 1 -3.81676127302730  0.87571275577558  3.90444562076208
 1 -2.24222973137314 -1.83856858995900 -0.50659510671067
 1 -2.24373771317132  0.07307349834983 -0.56165285948595
 1 -0.38042386218622  0.02151600520052  1.06742710401040
 1 -0.32226256555656 -1.75243720232023  1.33501100950095
 1 -4.39187400390039  5.80175454355436  0.60677347714771
 1 -5.54668987538754  6.91748666336634  1.41648094269427
 1 -4.61417950475048  5.51478952295229  2.18962309630963
 1 -7.92138714811481  7.02840271477148  1.03693524742474
 1 -9.29235458735874  6.12443260376038 -1.54766635273527
 1 -9.74597934453445  7.62380110761076 -0.35204542744274
 1 -12.41810617261726  3.44035322252225 -0.36097391049105
 1 -11.62752660096010  3.96810076747675 -1.67085640244024
 1 -13.18590961376138  3.05165300100010 -1.83213756915692
 1 -12.63805617881788 -1.21875080178018 -1.03544829592959
 1 -13.58624564906491  0.09964411911191 -1.56454881368137
 1 -12.53239886978698 -0.00943413031303 -3.95685302960296
 1 -11.51064603260326 -1.43983155675568 -3.22276122822282
 1 -13.34175092859286 -1.37327642244224 -3.49121666396640
 1 -9.97095364416442 -4.76902622242224  0.07466516451645
 1 -9.58977295619562 -4.55585353135313 -1.87635453365337
 1 -8.69044421912191 -5.45053332033203 -0.94697265276528
 1 -3.74071592299230 -3.44861115131513 -0.19629097769777
 1 -1.72486287928793 -6.19765486118612  2.12590592469247
 1 -1.66977542394239 -4.69531301520152  3.03553799639964
 1 -3.07474049044904 -5.83233832543254  3.26761363696370
 1  2.53175708320832 -2.12944058755876 -1.36134730173017
 1  2.53495839033903 -0.47016459725973 -2.39627739493949
 1  4.28733150485048 -1.57756007030703  0.01388929192919
 1  5.08864069326933  1.77664017301730 -2.35417013681368
 1  5.49294591179118  0.26675263776378 -3.12282368396840
 1  3.74369448764877  0.67399858665867 -2.81434225932593
 1  6.03546156235624  1.26315244024402 -0.07272746384638
 1  6.13051109580958 -0.43700358995900  0.69045675307531
 1  7.22545933083308 -1.22658938353835 -1.41915267486749
 1  7.66899644214422  0.47776979757976 -2.06962179117912
 1  8.82919840724072  1.03047188848885  0.16506665496550
 1  8.85168823162316 -0.82864701620162  0.70175298769877
 1  10.45343801240124  0.11633419011901 -1.87243181818182
 1  9.39298961516152 -2.22077077027703 -2.14910345814581
 1  10.92985801690169 -2.17344894469447 -1.93645425032503
 1  9.98561358145815 -2.51687337293729 -0.57545581488149
 1  11.13849914731473  1.11663044314432  0.17025561076108
 1  10.96163212671267 -0.38805404190419  0.89958988918892
 1  12.60151486208621 -1.31443301450145 -0.85057827082708
 1  12.81497965016502  0.28526844784478 -1.67232876657666
 1  13.57899905480548  1.19124883568357  0.53338624952495
 1  13.79584381138114 -0.35943237103710  1.24345119101910
 1  15.28074041824182  0.33809501560156 -1.22260427372737
 1  14.88531408430843 -1.99314189598960 -1.16813614681468
 1  16.61095496899690 -1.56072010861086 -0.87689347324732
 1  15.41178645744574 -2.30341547414741  0.30976024742474
 1  15.83694396759676  1.51149772007201  0.76834729372937
 1  16.24778943574357 -0.26279565626563  1.50888431103110
 1  17.97315853755375 -0.49210342084208 -0.06609647744774
 1  17.45665025062506  0.77730961926193 -1.10935936843684
 1  18.06737142664267  2.34752114801480  0.74367975767577
 1  18.52026428062806  1.22265807530753  1.75465261526153
 1  20.22662899529953  0.27318527952795  0.23389454565457
 1  20.12131948854886  3.08623689378938 -1.36603850625062
 1  21.29608685238524  1.85780385008501 -1.40197330393039
 1  19.78548352135213  1.33587920962096 -1.87075925742574
 1  20.96313154965497  1.67334880288029  2.18588962556256
 1  21.93138599579958  2.53465349274928  0.76012016911691
 1  20.59154878427843  3.34458765836584  1.49338807670767
 1 -7.04809664276428  1.85575444864486  0.33444529062906
 1 -7.43637518591859 -0.27858803480348 -0.08692882048205

