%nproc=3
%Mem=2GB
# td=(NStates=1) B3LYP/SVP 

TD

0 1
 6 -5.11974967306731 -1.92083832593259  0.44460933683368
 6 -4.79116943594359  2.75451190289029  1.48136452235224
 6 -9.33394330403040  3.37366816601660 -0.43942241014101
 6 -9.71189924442444 -1.45666647004700 -1.08361091449145
 7 -5.23405256755676  0.46103772667267  0.83241167816782
 6 -4.51610022612261 -0.71527824882488  0.81179462286229
 6 -3.05737542404240 -0.50307674237424  1.25365036083608
 6 -3.08824378977898  0.86438533083308  1.86396550235024
 6 -4.51066025912591  1.38301811971197  1.35468906590659
 6 -2.92269083758376  0.99360687298730  3.40370823342334
 6 -1.99099116981698 -0.68211817351735  0.06387433303330
 6 -0.54952816501650 -0.74793300990099  0.61937439013901
 6  0.37446110751075 -1.08370524342434 -0.45681723932393
 8  0.10184195179518 -1.60529289588959 -1.44187779927993
 8  1.68468866596660 -0.78651542464246 -0.11160360306031
 7 -7.05212980758076  2.75590286208621  0.53875338453845
 6 -5.93052462786279  3.36735115341534  1.05383624052405
 6 -6.34414760046005  4.82640908040804  1.14040053285329
 6 -7.61989108590859  4.96035487098710  0.60219674707471
 6 -8.02213315921592  3.62855134883488  0.16198635403540
 6 -5.47954847134713  5.87681319641964  1.82254352035204
 6 -8.30223750645064  6.21245525712571  0.37349585088509
 6 -9.12476037423742  6.69309903180318 -0.51975445424542
 7 -9.18872707330733  0.84705193819382 -0.62515498389839
 6 -9.89701356425643  2.04788728742874 -0.71007027622762
 6 -11.28963282978298  1.77489105010501 -1.20816465036504
 6 -11.31449540004000  0.44704204430443 -1.26290124482448
 6 -10.07203942964296 -0.07011696339634 -0.91375461796180
 6 -12.25267376827683  2.86039454105411 -1.49318240854085
 6 -12.56287402690269 -0.32811529102910 -1.70671163086309
 6 -12.42657278797880 -0.61190445484548 -3.19168734003400
 7 -7.34848380598060 -1.22432411761176 -0.31160968946895
 6 -8.48041962946295 -1.96000472727273 -0.70056341874187
 6 -8.14113655265527 -3.37267414961496 -0.60898346564656
 6 -6.79717462656266 -3.35646247454745 -0.30486811071107
 6 -6.38349945334534 -2.05407822642264 -0.02429735353535
 6 -8.92108486608661 -4.58368911841184 -1.00925992039204
 6 -5.71393833903390 -4.32936797189719  0.14623556915692
 8 -5.54289377957796 -5.50648017811781 -0.04034130003000
 6 -4.49934756335634 -3.40232099369937  0.50984004610461
 6 -3.98702250015001 -3.71858595209521  1.89628615431543
 8 -4.29292436593659 -3.26014394829483  3.00310837893789
 8 -3.11012970057006 -4.79317429032903  1.74266469436944
 6 -2.58214291809181 -5.37103654975498  2.92545468506851
 6  2.65276744534453 -1.01835573317332 -1.20657468326833
 6  4.06296954375438 -0.71382188458846 -0.54431653175318
 6  5.01634389098910  0.12171322622262 -0.93682763936394
 6  4.74830402610261  1.06654738643864 -2.13002011881188
 6  6.24129587478748  0.15552329152915 -0.17208612281228
 6  7.48364960536054 -0.56756293919392 -0.79458632553255
 6  8.76621822292229 -0.27857184228423 -0.07541588908891
 6  10.09653057875788 -0.58595292189219 -0.91832918771877
 6  9.91594763336334 -2.14839864276428 -1.30276956185619
 6  11.23350720092009 -0.51584589928993  0.00067951225123
 6  12.62047372157216 -0.41468678587859 -0.80233475657566
 6  13.80069865926593 -0.13578080428043  0.16627868336834
 6  15.19822873467347 -0.13826470797080 -0.59845340324032
 6  15.65619519131913 -1.63847271267127 -0.98541731003100
 6  16.33559430373037  0.51850636793679  0.38487751005101
 6  17.72741763056306  0.74760767846785 -0.19167306870687
 6  18.54150507480748  1.48788311721172  0.65783659985999
 6  20.05230713231323  1.61650945554555  0.08334006150615
 6  20.02471317021702  2.41912848894889 -1.14552263006301
 6  21.02851537283729  2.18240957975798  1.09391117931793
 1 -3.88093575387539  3.46831806380638  1.66344122502250
 1 -9.99412726582658  4.27004424652465 -0.58626994969497
 1 -10.43779803620362 -2.24991214671467 -1.44946441954195
 1 -2.85953828082808 -1.23075231043104  2.12390326602660
 1 -2.24500581508151  1.60289051225122  1.53704661686169
 1 -2.05960621862186  0.62763913231323  3.74533363736374
 1 -3.07285277717772  1.99804485418542  3.82949314451445
 1 -3.55974557145715  0.30558574307431  3.87352252845285
 1 -2.25357086548655 -1.50648538163816 -0.63823827102710
 1 -2.13566690609061  0.27910410141014 -0.45266196039604
 1 -0.06760258005801  0.18873272687269  1.15424578587859
 1 -0.64345468476848 -1.55615757435744  1.36316382478248
 1 -4.54787960446045  6.12022639073907  1.49067186698670
 1 -6.06727193359336  6.87230214491449  1.94129342394239
 1 -5.49718780558056  5.65914395839584  2.84129826382638
 1 -8.18655366476648  7.13127300180018  1.16334788868887
 1 -9.48063341524152  6.10823098359836 -1.38155974207421
 1 -9.45483022962296  7.82478120562056 -0.61278150105010
 1 -12.30842520452045  3.52441162836284 -0.69129694279428
 1 -11.80251409970997  3.62238619601960 -2.22595191199120
 1 -13.24297532033203  2.46929476517652 -1.81347570297030
 1 -12.54214658785878 -1.31470039673967 -1.23245799689969
 1 -13.40817784228423  0.18889304400440 -1.31013337213721
 1 -12.33989961986199  0.29545635873587 -3.80042738703870
 1 -11.38125309330933 -1.10293786738674 -3.30898985108511
 1 -13.23679043254325 -0.95942503730373 -3.71031857415742
 1 -9.77386393519352 -4.84050337013701 -0.37625992799280
 1 -9.64406838573857 -4.15973391939194 -1.93990088828883
 1 -8.48839401410141 -5.62615088208821 -1.06537449294929
 1 -3.61873372477248 -3.76725301550155 -0.21861320992099
 1 -1.86390678367837 -6.16115121082108  2.86213954805481
 1 -2.03804225062506 -4.54875835973597  3.30630507310731
 1 -3.46329934633463 -5.57039213081308  3.62505938153815
 1  2.62013592109211 -2.13614125762576 -1.52049321632163
 1  2.67613250775078 -0.61588916971697 -2.10588835603560
 1  4.30950372207221 -1.25149746404640  0.26599450245025
 1  4.93522535173517  2.33551606060606 -1.74248896869687
 1  5.49347596479648  0.77345330783078 -3.08096949854986
 1  3.65215533373337  1.05439662646265 -2.52473329842984
 1  6.29806782298230  1.29117524252425 -0.25191538263826
 1  6.49380742544254 -0.16492638223822  0.79028673607361
 1  7.22214899979998 -1.54179090369037 -0.74248500810081
 1  7.50127967046705 -0.26591457085709 -1.78917374637464
 1  8.80843633103310  0.81212005330533  0.39951009930993
 1  8.51833489628963 -1.13299745124512  0.91584439683968
 1  10.24572724132413 -0.04595203850385 -1.77183175817582
 1  9.16305662186219 -2.24200289348935 -2.05655420322032
 1  10.88208323942394 -2.73743534333433 -1.54104470937094
 1  9.47700272037204 -2.67741942754275 -0.35221349064906
 1  11.28883418081808  0.46195497559756  0.51736032123212
 1  11.18339430293029 -1.19998523502350  0.76835676587659
 1  12.75974068466847 -1.46974854605461 -1.29267248024803
 1  12.70398855105510  0.29845976697670 -1.65002653635364
 1  13.67988914381438  0.88837854865487  0.52140505140514
 1  13.88578280528053 -0.97552398019802  1.06106295219522
 1  15.07212955715572  0.39141034713471 -1.31824383768377
 1  15.05587114001400 -2.36929951175118 -1.73178251145115
 1  16.69465333883388 -1.58447248384838 -1.43237902180218
 1  15.68220349914991 -2.64497963056306 -0.20818154675468
 1  15.98808908210821  1.49480605090509  0.81757221622162
 1  16.57624228102810 -0.20959033573357  1.29385280788079
 1  18.01314253595359 -0.30102431293129 -0.32226209400940
 1  17.62738732433243  1.08645053335334 -1.14949338183818
 1  18.21141583108311  2.58309470537054  0.84718010771077
 1  18.67043929812981  1.37419322882288  1.94492164216422
 1  20.41230756315631  0.50425838683868 -0.10754959875988
 1  20.00019737633763  3.66696496659666 -0.78860076247625
 1  21.05727297099710  2.36386445614562 -1.52242534913491
 1  19.45008998199820  2.07317293899390 -2.04246642814281
 1  21.00074531103110  1.67391885988599  2.16364740134013
 1  22.05807866506651  2.10739076647665  0.62493665076508
 1  20.80226985638564  3.37241044064406  1.25716445434543
 1 -7.12596442954295  1.77981685488549  0.48605045114511
 1 -7.60659220762076 -0.21914209020902 -0.12818294589459

