%nproc=3
%Mem=2GB
# td=(NStates=1) B3LYP/SVP 

TD

0 1
 6 -5.08557625572557 -1.99633587568757  0.46742161806181
 6 -4.67655797479748  2.78983543524352  1.27962434833483
 6 -9.29340925062506  3.26452725192519 -0.09825829372937
 6 -9.79699775427543 -1.41364216761676 -0.96552910631063
 7 -5.15996515881588  0.53148477137714  0.71077951495149
 6 -4.55131374747475 -0.72225894689469  0.76739018241824
 6 -2.99099878637864 -0.52761919661966  1.22304730053005
 6 -3.02882784818482  0.95360425272527  1.73560266606661
 6 -4.38476766986699  1.48729854775478  1.23892748974898
 6 -2.82371093959396  1.01789930223022  3.30271813441344
 6 -2.09277134783478 -0.83532349404941  0.08714666026603
 6 -0.62133534573457 -0.82516073267327  0.48929138183818
 6  0.34596825822582 -1.08771564446445 -0.64389594719472
 8  0.11333310091009 -1.43846621322132 -1.75870948244824
 8  1.60575077217722 -0.94014078717872 -0.21640408310831
 7 -7.04521911651165  2.71910918271827  0.44439394859486
 6 -5.85665724112411  3.45271969026903  0.83095395229523
 6 -6.17578076377638  4.80610705020502  1.01053754655466
 6 -7.45395449224922  4.95256409190919  0.54911143854385
 6 -8.02502344824483  3.57293578727873  0.27019717511751
 6 -5.19570008650865  5.97092260736074  1.41183244924492
 6 -8.22508979167917  6.30452446404640  0.58798730003000
 6 -9.19077697589759  6.70633035493549 -0.30910338913891
 7 -9.20866906750675  0.87610484348435 -0.49708217661766
 6 -9.86689055195520  2.00859335803580 -0.39403867306731
 6 -11.34284815131513  1.83046660766077 -0.93496733063306
 6 -11.40364431493149  0.56865420552055 -1.16488144284428
 6 -10.07846007170717 -0.10387033873387 -0.92264550705071
 6 -12.30343884478448  2.94260276187619 -1.07090018031803
 6 -12.62168990849085 -0.19025150465046 -1.66470743044304
 6 -12.51581171187119 -0.30219348374838 -3.23804197549755
 7 -7.40476943454345 -1.28479016421642 -0.20877940644064
 6 -8.54086567406741 -2.03294202100210 -0.72837620002000
 6 -8.18898133713371 -3.33082996519652 -0.78311087838784
 6 -6.78996390549055 -3.39579640794079 -0.24900252415242
 6 -6.43368447184718 -2.08389120772077  0.01652672887289
 6 -9.04241699929993 -4.48192894239424 -1.14593358775878
 6 -5.75600254545455 -4.30298533363336  0.01299224482448
 8 -5.72116160636064 -5.53618314841484 -0.04345161106111
 6 -4.48459608820882 -3.34907566916692  0.40912997509751
 6 -4.04401819971997 -3.79596368986899  1.87500402610261
 8 -4.33204827832783 -3.34549248314831  2.85952402050205
 8 -3.09465815341534 -4.77143211611161  1.69964039193919
 6 -2.57411211501150 -5.38287773387339  2.85837797739774
 6  2.68973114171417 -1.09823372097210 -1.12830685648565
 6  4.03284653145314 -0.80712121452145 -0.52323442354235
 6  4.95501775837584 -0.09747869296930 -1.05650960756076
 6  5.05575477117712  0.67971870357036 -2.28980609740974
 6  6.36170791599160  0.02621036023602 -0.18548746294629
 6  7.56687792819282 -0.45232141504150 -0.94075094199420
 6  8.79331093219322 -0.49937392249225 -0.17490583808381
 6  10.13279420512051 -0.98903322992299 -0.74004135893589
 6  10.04586062466247 -2.47554135703570 -0.87696698159816
 6  11.29166301650165 -0.41380569526953 -0.01207176287629
 6  12.65071674587459 -0.79334465166517 -0.58609313241324
 6  13.80736932633263  0.06328910271027  0.06907896339634
 6  15.23802271407141 -0.17943882538254 -0.47976153405341
 6  15.58307787958796 -1.64014287968797 -0.38923769206921
 6  16.26309705400540  0.72873739103910  0.45675469776978
 6  17.57382227102710  0.91925484318432 -0.30363426482648
 6  18.43126405070507  1.82777710661066  0.58498931513151
 6  20.02049395099510  1.88359616421642  0.15192692019202
 6  20.18436913581358  2.39848642474247 -1.25916399419942
 6  20.88057057835784  2.59102044084408  1.11967375557556
 1 -4.05183284358436  3.55931716371637  1.48881376227623
 1 -10.02108996209621  3.86446368846885 -0.22836415911591
 1 -10.62413667006701 -2.19661681718172 -0.90328980208021
 1 -2.86483881088109 -1.42775201040104  2.06649752545255
 1 -2.30299161366137  1.55931615481548  1.39673258545855
 1 -1.93219347734773  0.64409077747775  3.38987809180918
 1 -2.97276276817682  1.97484253395340  3.70774096929693
 1 -3.64130372727273  0.36674185868587  3.70806598279828
 1 -2.34277978637864 -1.66607134023402 -0.21204565176518
 1 -2.14569790919092  0.04806099709971 -0.57811450565056
 1 -0.39940576037604  0.14502835643564  0.95645600690069
 1 -0.40273061236124 -1.53618557715772  1.29902741114111
 1 -4.27288210471047  5.92662703080308  0.96611941174117
 1 -5.76907211361136  6.82141705640564  1.45790508510851
 1 -4.92548063486349  5.71253929792979  2.40581471547155
 1 -7.98323333273327  6.89722959745975  1.28653020692069
 1 -9.32044739663966  6.06440660116012 -1.25814740084008
 1 -9.55537028362836  7.72250097759776 -0.25278550145014
 1 -12.82759712171217  3.26250543774377 -0.13327114021402
 1 -11.73690753905391  3.86521047844784 -1.66517583438344
 1 -13.20897191999200  2.73912174787479 -1.76384073947395
 1 -12.67920029322932 -1.09590851755175 -0.89890464156416
 1 -13.57028405290529  0.27869202390239 -1.31002336113611
 1 -12.51366699659966  0.70580739383938 -3.59581692599260
 1 -11.65747071507151 -1.01781935553555 -3.46115506760676
 1 -13.35167192069207 -0.81616071087109 -3.51831937423743
 1 -10.01673822262226 -4.59186850665067 -0.41800410241024
 1 -9.56442042094209 -4.56083402940294 -2.15218211641164
 1 -8.57519269396940 -5.46279454645465 -0.97461541704170
 1 -3.77427927932793 -3.39488577877788 -0.33132448104810
 1 -2.00529092209221 -6.43880897659766  2.58681201530153
 1 -1.91939038543854 -4.69976346024602  3.39421386398640
 1 -3.45586860326033 -5.83069816141614  3.54583145874588
 1  2.57965187268727 -2.10188783228323 -1.35371653865387
 1  2.38362325682568 -0.59669725052505 -2.03154092129213
 1  4.19677244894489 -1.09321163546355  0.75036293929393
 1  5.35188701790179  1.73061557055706 -2.14926964676468
 1  5.69370598779878  0.42049801230123 -3.05505690729073
 1  3.96213633183318  0.78752993979398 -2.86534735983598
 1  6.65205322152215  1.06918304330433  0.10086989588959
 1  6.04863290799080 -0.65770566016602  0.86599430683068
 1  7.31039782468247 -1.46526325092509 -1.29103986358636
 1  7.70691023352335  0.20894291489149 -1.83565839483948
 1  8.80994648204820  0.52121096239624  0.32079222752275
 1  8.51351441424142 -1.15426957845785  0.74386719911991
 1  10.30891355995600 -0.76809425272527 -1.84527910291029
 1  9.36030634683468 -2.75449414261426 -1.69885843364336
 1  11.05197022812281 -2.96611821162116 -1.21454205910591
 1  9.75121014111411 -2.97483916951695 -0.01352962226223
 1  11.17016231363136  0.69530831093109 -0.14093550835083
 1  11.23429939343935 -0.64118935543554  1.03930386058606
 1  12.89414412501250 -1.90205177637764 -0.46363957695770
 1  12.50262841504150 -0.77953803280328 -1.68644017771777
 1  13.61475263016302  1.04181389218922  0.17775068596860
 1  13.82328655565557 -0.27164359215922  1.20032687858786
 1  15.22632497669767  0.27518872497250 -1.55725773907391
 1  14.92751830473047 -1.97143972577258 -1.29811914511451
 1  16.54704857835783 -1.69159319591959 -0.73544932883288
 1  15.18479375817582 -1.98215334793479  0.53393266466647
 1  15.65817609080908  1.93525009530953  0.56258671767177
 1  16.35065972277228  0.26023664696470  1.43651707430743
 1  17.94312553425343 -0.17001121162116 -0.36628649644965
 1  17.43141772737274  1.25861775007501 -1.34362279477948
 1  18.03542823232323  2.92302869876988  0.42987837753775
 1  18.52444469866987  1.45322113161316  1.66461361136114
 1  20.38955528792879  0.87865582658266  0.17882903910391
 1  19.64420177677768  3.39136740684068 -1.26321822422242
 1  21.29863710741074  2.33398146784678 -1.51871497809781
 1  19.51095606860686  1.78115373707371 -1.93508569006901
 1  20.74751998849885  2.25164663266327  2.13999503610361
 1  21.94548740594059  2.53614364176418  0.84426858395840
 1  20.83595322472247  3.71710491009101  1.12052078997900
 1 -7.07133896699670  1.74460333353335  0.29262110821082
 1 -7.30183173157316 -0.19620979697970 -0.28567869546955

