%nproc=3
%Mem=2GB
# td=(NStates=1) B3LYP/SVP 

TD

0 1
 6 -5.13181087918792 -1.88443468556856  0.40677555345535
 6 -4.72969328832883  2.72878933063306  1.35947233313331
 6 -9.35647555725572  3.28057885708571 -0.28015648354835
 6 -9.88245630013001 -1.42362316571657 -0.85978853225323
 7 -5.18691785408541  0.41340296319632  0.93223166016602
 6 -4.45651426752675 -0.70414713571357  0.83858730213021
 6 -3.03155284178418 -0.59555599029903  1.36589158495850
 6 -3.07856282168217  0.92264115641564  2.00317942374237
 6 -4.45766495959596  1.31949176707671  1.44444804180418
 6 -2.96601517001700  0.99925743804380  3.55161302390239
 6 -2.05260733143314 -0.83604356605661  0.19327727332733
 6 -0.55038825102510 -0.76120433703370  0.64319677237724
 6  0.38587224862486 -1.11286815971597 -0.44689624722472
 8  0.02608437603760 -1.43927629422942 -1.62254586608661
 8  1.72929312641264 -0.76442321542154 -0.16484892759276
 7 -7.04559915451545  2.69363663546355  0.49973948314831
 6 -5.98675025042504  3.32723714201420  0.99106996389639
 6 -6.24231741744174  4.76410284978498  0.94504099689969
 6 -7.50344944174417  4.87001583708371  0.38545507290729
 6 -7.99432037793779  3.53720221392139  0.15743589898990
 6 -5.28730924742474  5.76104161926193  1.45867713371337
 6 -8.22784006670667  6.11085509710971  0.13176167746775
 6 -9.06730462866287  6.49096881878188 -0.78364084288429
 7 -9.19323752435244  0.89758699169917 -0.46897936633663
 6 -9.91954581748175  2.07582008070807 -0.60341961116112
 6 -11.33794766126613  1.86557011801180 -0.85885971987199
 6 -11.49120307080708  0.55666300640064 -1.09269422412241
 6 -10.19630185588559 -0.06666661836184 -0.80384362686269
 6 -12.32072057295730  2.98351685328533 -0.98655174547455
 6 -12.74104184368437 -0.15267774727473 -1.49239019871987
 6 -12.90824095479548 -0.42143540794079 -2.99876804810481
 7 -7.53928288588859 -1.23320500570057 -0.18150667916792
 6 -8.61983357085709 -2.04659338613861 -0.64116747914791
 6 -8.14410684968497 -3.32789967216722 -0.63987655495550
 6 -6.77934284338434 -3.34590141844184 -0.31247887178718
 6 -6.47495859925993 -2.01052387098710  0.09480455665567
 6 -8.97347010461046 -4.57639838933893 -0.92550154455446
 6 -5.62240918611861 -4.15453048814881 -0.02220127452745
 8 -5.59496898709871 -5.41254078417842 -0.16117338323832
 6 -4.53237086568657 -3.34574533613361  0.32759182128213
 6 -3.88053185108511 -3.87962205570557  1.64955148084808
 8 -4.20182525602560 -3.56934486838684  2.73614168226823
 8 -2.95631431903190 -4.81276624952495  1.42063249114911
 6 -2.31422612641264 -5.46345579167917  2.50892303190319
 6  2.69489165776578 -1.00263416101610 -1.18711273707371
 6  3.99668291509151 -0.59752025442544 -0.64443654375438
 6  4.92145440204020  0.16790784568457 -1.22479643624362
 6  4.88473766946695  0.60647137883788 -2.59185630243024
 6  6.29377112231223  0.41862960216022 -0.53955286948695
 6  7.46926816721672 -0.39317550045004 -1.09074594149415
 6  8.84769637073707 -0.12382636773677 -0.33511185868587
 6  10.06531745744575 -0.67411173777378 -0.96201355615562
 6  10.12214825342534 -2.30216401930193 -0.83314259915992
 6  11.38961281148115 -0.06136045074507 -0.17284784048405
 6  12.77538921312131 -0.48878419561956 -0.69744426752675
 6  13.84868345774577  0.00520329412941  0.24892694819482
 6  15.29758867066707 -0.27000788228823 -0.07060061796180
 6  15.66564613641364 -1.79775864126413 -0.18777754605461
 6  16.23963470777078  0.50094461176118  0.64072309460946
 6  17.65997088588859  0.49616253395340  0.04428052665267
 6  18.61711263556355  1.48553288218822  0.69225004120412
 6  20.05551745334533  1.64945274987499  0.06312804030403
 6  20.06059675857586  2.21674825092509 -1.26577465526553
 6  20.99780230153015  2.50156149494949  1.00554234243424
 1 -3.94910257055706  3.39425065706571  1.80295517641764
 1 -9.97711556465647  4.13886112821282 -0.42247357005701
 1 -10.63009726612661 -2.03156031153115 -1.13934340744074
 1 -2.81942426942694 -1.21363059825983  2.32251312701270
 1 -2.36227754225422  1.48858908210821  1.68718163036304
 1 -2.07581783978398  0.68957532593259  4.07950705470547
 1 -3.40838633053305  2.09502455215522  3.72510270547055
 1 -3.89943954085409  0.46219140364036  3.75007018321832
 1 -2.37330283868387 -1.76009074217422 -0.27344179137914
 1 -1.96646998639864  0.04788097909791 -0.50068676287629
 1 -0.40411623142314  0.02665651925193  1.07752811411141
 1 -0.47813815311531 -1.72288424702470  1.39651716011601
 1 -4.45915073157316  6.15518988708871  0.74668746854685
 1 -5.83094830123012  6.71565648034804  1.48184747934794
 1 -4.99832791959196  5.77654569856986  2.66944107810781
 1 -7.90354536393639  6.88778865336534  0.72727428132813
 1 -9.67457280918092  5.85689585008501 -1.56907849394940
 1 -9.47436218281828  7.60100882838284 -0.97181740464046
 1 -11.96096045804580  3.85697488468847 -0.14843265636564
 1 -12.41062491079108  3.59677363476348 -1.99040835763576
 1 -13.42052307510751  2.53305114081408 -0.87356171157116
 1 -12.80828320152015 -1.24493342004200 -0.87006175727573
 1 -13.59481650615061  0.38287244194419 -0.96397875667567
 1 -12.82768839873987  0.58389520262026 -3.59437678197820
 1 -12.05038000600060 -1.10101767536754 -3.34292324442444
 1 -14.06510326382638 -0.58295739053905 -3.38521606390639
 1 -9.88491504030403 -4.64962428222822 -0.39552185418542
 1 -9.14023800270027 -4.52466041204120 -2.06890378857886
 1 -8.40753592829283 -5.47701596859686 -0.67223517901790
 1 -3.76374822622262 -3.14805109530953 -0.34874622322232
 1 -1.33412380538054 -5.83060815651565  1.90682401650165
 1 -2.11337978437844 -4.67208069196920  3.20118456105611
 1 -2.81112412881288 -6.18677376897690  3.09392626822682
 1  2.57366127362736 -2.00334797829783 -1.52156332333233
 1  2.12210710521052 -0.46071365216522 -2.06679444664466
 1  4.24434720642064 -0.77067938223822  0.38042594559456
 1  5.08038986818682  1.79404191319132 -2.79997471727173
 1  5.51582820002000  0.07252321482148 -3.30654205580558
 1  3.85349546774677  0.69601078787879 -2.93655448054805
 1  6.47982599879988  1.55205133013301 -0.60186037713771
 1  6.11335938063806  0.32597270767077  0.64073178057806
 1  7.33152993789379 -1.41605833043304 -1.08984974457446
 1  7.57447699019902 -0.00759873927393 -2.16092092109211
 1  9.26721220862086  1.04328316961696 -0.03171302300230
 1  8.61561462426243 -0.35561971347135  0.76238905130513
 1  10.05295796439644 -0.45465290859086 -2.01561613661366
 1  9.16655697189719 -2.81146984018402 -1.44204275207521
 1  10.95407043814381 -2.76422802260226 -1.17648825372537
 1  9.78253327342734 -2.57890957655766  0.22871460216022
 1  11.46917221462146  0.95641442154215 -0.11797321212121
 1  11.13090905440544 -0.30846608310831  0.87971790199020
 1  12.85762047264726 -1.67606917811781 -0.69838305130513
 1  12.72755090729073 -0.16826690569057 -1.65305683938394
 1  13.57709886478648  1.02632234303430  0.43343625452545
 1  13.63336756375637 -0.42571899969997  1.22404925082508
 1  15.47435978017802  0.24858606470647 -1.14003601690169
 1  14.96968252115211 -2.31469405120512 -0.77315664886489
 1  16.64601847534754 -2.03864790139014 -0.68816460036004
 1  15.41322660146015 -2.19118425102510  0.79512878427843
 1  15.85063533673367  1.49099566986699  0.96933739273927
 1  16.09688434523452  0.33875449874987  1.74065748834883
 1  18.14013523522352 -0.49243345384538  0.11959209140914
 1  17.48447303290329  0.67530941924192 -0.99245767826783
 1  18.00337502700270  2.47309370527053  0.59457484718472
 1  18.88473072727273  1.35125093459346  1.73543069306931
 1  20.52084841724172  0.71384934593459 -0.09501834563456
 1  19.81846920352035  3.22825109520952 -1.51768367076708
 1  21.09587683138314  1.89701777147715 -1.70398350495049
 1  19.50781575457546  1.56066168786879 -1.80604278577858
 1  20.92247748424843  2.11858332633263  2.10841187778778
 1  22.00517337453746  2.29438946634663  0.46723088018802
 1  20.80789041844184  3.64538773837384  0.77250598849885
 1 -7.40978281138114  1.69490836403640  0.30666251235123
 1 -7.53531507990799 -0.31404158015802  0.04903477587759

