%nproc=3
%Mem=2GB
# td=(NStates=1) B3LYP/SVP 

TD

0 1
 6 -5.01918961706171 -1.92616885898590  0.57420229612961
 6 -4.68542886188619  2.75601205290529  1.33467985388539
 6 -9.26923683338334  3.39931073027303 -0.32889135703570
 6 -9.78018607310731 -1.40286108950895 -0.95587814121412
 7 -5.06822598489849  0.52961458435844  0.69651808880888
 6 -4.40657927402740 -0.72140886188619  0.70622406580658
 6 -3.02444213071307 -0.52844927962796  1.25065006080608
 6 -2.91594656005601  0.88548744104410  1.66355546134613
 6 -4.20476967006701  1.46723654155416  1.25682927992799
 6 -2.92316088458846  0.88808632093209  3.29234709730973
 6 -1.96955902660266 -0.82410237193719  0.11321926752675
 6 -0.48592180438044 -0.81335955255526  0.57857030973097
 6  0.42166582798280 -1.07599447234723 -0.61927348494849
 8  0.08075984358436 -1.57370973757376 -1.69561317281728
 8  1.68599879697970 -0.86219299239924 -0.29809225192519
 7 -6.99443403800380  2.71220849264926  0.44025353455346
 6 -5.92509408480848  3.39341375967597  0.91232208910891
 6 -6.22203538923892  4.75655209470947  0.96612310511051
 6 -7.49743884068407  4.94511334683468  0.46856338373837
 6 -7.96078702460246  3.56751524522452  0.07245740114011
 6 -5.35200571707171  5.79326484158416  1.45087635363536
 6 -8.14174145684568  6.19352336393639  0.49407790909091
 6 -8.98335623382338  6.68954867676768 -0.46107858665867
 7 -9.16542474307431  0.96730396339634 -0.41754422282228
 6 -9.87136099899990  2.10633313201320 -0.50061933113311
 6 -11.33884775127513  1.89801336233623 -0.82212604650465
 6 -11.40910486098610  0.51894923502350 -1.00372532723272
 6 -10.00608283398340 -0.12184213591359 -0.78388163066307
 6 -12.37817631853185  2.94217271887189 -1.01813490379038
 6 -12.57968570807081 -0.27642012151215 -1.52865382508251
 6 -12.71471160186019 -0.24110737513751 -3.10723889518952
 7 -7.45735469306931 -1.24377606280628 -0.23731225972597
 6 -8.48580016751675 -1.97812653945395 -0.76734009640964
 6 -8.13608604760476 -3.33259014121412 -0.62293486078608
 6 -6.79959486858686 -3.40421725002500 -0.21175879977998
 6 -6.36924802820282 -2.09043186178618  0.05980105630563
 6 -9.02251500910091 -4.54956570607061 -0.96696569096910
 6 -5.62684963016302 -4.23648868396840  0.09475042064206
 8 -5.51509099929993 -5.44255378547855 -0.06236350225022
 6 -4.45345297389739 -3.33707446904690  0.52669173127313
 6 -3.99559335723572 -3.79269336283628  1.81987851355136
 8 -4.01186626012601 -3.22141007490749  2.90260832893289
 8 -3.13988267586759 -5.02156712961296  1.56721714961496
 6 -2.36497120092009 -5.47115656175618  2.71864400400040
 6  2.65002717131713 -1.15267916551655 -1.25673969976998
 6  3.95767901470147 -0.78366886928693 -0.70573267336734
 6  4.91878413501350  0.02568362326233 -1.23076703330333
 6  4.86156535223522  0.62784351605161 -2.57613473027303
 6  6.17504925012501  0.34246198539854 -0.49864877907791
 6  7.53239447984798 -0.10911709460946 -1.20337720462046
 6  8.71400300140014 -0.13720770587059 -0.20432878037804
 6  9.97783870957096 -0.79336366296630 -0.79612696749675
 6  9.85670170877088 -2.30755455835584 -0.93112239713971
 6  11.18030188038804 -0.36691100580058  0.16819626392639
 6  12.53316499069907 -0.51832714991499 -0.50014453755376
 6  13.82260084948495 -0.13240046624662  0.38513056855686
 6  15.14704361616162 -0.26695757725773 -0.21407496539654
 6  15.43812338413841 -1.79363822922292 -0.62984175247525
 6  16.13618436273627  0.52951746904690  0.55220424272427
 6  17.53157804660466  0.61787470517052  0.01563766236624
 6  18.48558948324833  1.60840516941694  0.72406322252225
 6  19.93277517911791  1.78864666926693  0.17865959345935
 6  19.87951865076508  2.30430700680068 -1.25814389218922
 6  20.74456697799780  2.65394673347335  1.13711549974997
 1 -4.12067972827283  3.59432066406641  1.91609649054906
 1 -9.95488334143414  4.30677791989199 -0.69100042274227
 1 -10.64930918731873 -2.01260841634163 -1.26636610971097
 1 -2.80030235723572 -1.24714394959496  2.08460933663366
 1 -2.22637395189519  1.35775599879988  1.02474538673867
 1 -2.02026228422842  0.20845721412141  3.67065616961696
 1 -2.79052454435444  1.88612366206621  3.82023221842184
 1 -3.83013261016102  0.40965615011501  3.45077025322532
 1 -2.20128563696370 -1.85792052515252 -0.33447789498950
 1 -2.00157349674968 -0.11695550455045 -0.58172486668667
 1 -0.20512633243324 -0.02033818021802  0.94315467676768
 1 -0.46380671997200 -1.66124808340834  1.38058556695670
 1 -4.32126694319432  5.88669303740374  0.90318311811181
 1 -5.97036224262426  6.67764267896790  1.52641193579358
 1 -4.90196828362836  5.27267531153115  2.32532666666667
 1 -7.87706271567157  6.88123799829983  1.30890244414441
 1 -8.83805915781578  6.14893505400540 -1.57131871797180
 1 -9.58936368296830  7.61763049054906 -0.51994221712171
 1 -12.47025138713872  3.49355854305431 -0.17145495859586
 1 -12.01092494079408  3.58902285968597 -2.02144146094609
 1 -13.35901692449245  2.31569940564056 -1.18069242464246
 1 -12.36651902510251 -1.41969089578958 -1.14754950605061
 1 -13.65651267576758  0.12189634433443 -1.18613097189719
 1 -13.16096172607261  0.80450726382638 -3.54501184548455
 1 -11.75170013801380 -0.82142971657166 -3.79872882498250
 1 -13.62944969846985 -1.06564565936594 -3.19191673397340
 1 -10.01857840664067 -4.48737805760576 -0.56316861886189
 1 -8.98129210811081 -4.95773371937194 -2.06739363756376
 1 -8.63589876457646 -5.56445471247125 -0.24098205370537
 1 -3.74878673007301 -3.47503379357936 -0.26717806640664
 1 -1.89435982898290 -6.27862295799580  2.15575890999100
 1 -1.47085553195320 -4.91253473737374  3.04506894949495
 1 -3.02925594199420 -5.96373146474648  3.61216809240924
 1  2.74240814831483 -2.22476011951195 -1.56382754975498
 1  2.32212710721072 -0.59571715251525 -2.18742650985098
 1  4.29143191489149 -1.32600491479148  0.06576447944794
 1  5.23043487268727  1.62421493049305 -2.43283800360036
 1  5.42727934513451 -0.03405744324433 -3.26719812141214
 1  3.83153327152715  0.80943213001300 -3.08672949804980
 1  6.25968398459846  1.45666179117912 -0.37094728582858
 1  6.35890393509351 -0.16537642724272  0.51709941734173
 1  7.32905969086909 -1.17891461606161 -1.58816957655766
 1  7.80138968146815  0.35494751535154 -2.33855868486849
 1  8.82885837323732  1.12116095739574  0.01452160046005
 1  8.39306236903690 -0.63111726322632  0.77060987338734
 1  10.26708937753775 -0.49800724402440 -1.88482305730573
 1  9.03040335653565 -2.50400909410941 -1.84446299409941
 1  10.82128715981598 -2.64241584138414 -1.40568117301730
 1  9.59761478157816 -2.86952863846385 -0.07690595989599
 1  10.80182547994800  0.70746952705271  0.42033061826183
 1  11.07006296979698 -1.04261949844985  1.08579851005101
 1  12.67954266486649 -1.46974854605461 -0.95467868086809
 1  12.57610576277628  0.04871479247925 -1.37679921362136
 1  13.65003615851585  0.93964367516752  0.66419933083308
 1  13.98814304130413 -0.67085351315131  1.28512535843584
 1  15.25475781998200  0.21176238233823 -1.14720673397340
 1  14.67272282518252 -2.24343692549255 -1.03154248744874
 1  16.46239011251125 -1.72281631823182 -1.05215099899990
 1  15.89721500030003 -2.46759189178918  0.23422269366937
 1  15.67102737593759  1.48862543284328  0.49630008900890
 1  16.06761141794179  0.06088671197120  1.63014643724372
 1  18.12155337703770 -0.40028423892389 -0.06867673547355
 1  17.34239882548255  0.87693958225823 -0.98866729922992
 1  17.96393108260826  2.63862025792579  0.77821321102110
 1  18.57298955315532  1.47545335483548  1.65307245724572
 1  20.43938027042704  0.69051701270127 -0.02561140494049
 1  19.61847920452045  3.34878314841484 -1.22827472987299
 1  21.01244848854886  2.51036910661066 -1.58019112571257
 1  19.09454442744275  1.64437005870587 -1.93958614011401
 1  20.66638187468747  2.24963643164316  2.18081911851185
 1  21.82181503870387  2.62973300070007  0.97099125622562
 1  20.48692832223222  3.73234643424342  1.23329206710671
 1 -7.06999883298330  1.68091696489649  0.26305815191519
 1 -7.61976352475247 -0.15470564656466 -0.09981010861086

