%nproc=3
%Mem=2GB
# td=(NStates=1) B3LYP/SVP 

TD

0 1
 6 -5.16111380948095 -1.91049729182918  0.48142301820182
 6 -4.82653297229723  2.81708816051605  1.37982436833683
 6 -9.34096400610061  3.20162096129613 -0.19988845674567
 6 -9.85540359485949 -1.48005880928093 -1.05577813121312
 7 -5.17451661396140  0.49776139903990  0.83546198319832
 6 -4.51655027112711 -0.64768148914891  0.87874131753175
 6 -3.08015770227023 -0.47023345804580  1.24071906770677
 6 -3.03374834023402  0.93126201850185  1.82808191399140
 6 -4.44108330143014  1.49456927482748  1.32730632763276
 6 -3.03316188468847  1.05705321762176  3.38205606820682
 6 -2.08150022072207 -0.68541850355035  0.04430237583758
 6 -0.62344555675568 -0.72024024062406  0.55461791449145
 6  0.35816947834783 -0.98021489438944 -0.54638619621962
 8  0.09944171177118 -1.14059642624262 -1.77910152165217
 8  1.64219441654165 -0.85933270637064 -0.11011345404540
 7 -7.06501109570957  2.74442171397140  0.55026453565357
 6 -6.01905348074807  3.33038745704570  1.09549040594059
 6 -6.37117030273027  4.77002344184418  1.15029152195220
 6 -7.65889498629863  4.89769860536054  0.58466499389939
 6 -8.14374532043204  3.57432592629263  0.31019117451745
 6 -5.45182569906991  5.81303681878188  1.50790205620562
 6 -8.25062234493449  6.25374938653865  0.31528002930293
 6 -9.31731963016302  6.53213293519352 -0.58197067586759
 7 -9.27156535713571  0.79692692569257 -0.39508197659766
 6 -9.95532939583958  2.00255275397540 -0.61463073227323
 6 -11.30774464096410  1.82795635663566 -1.04070790469047
 6 -11.47971192169217  0.42919025912591 -1.22443739843984
 6 -10.12738496419642 -0.12429238093809 -0.92278552105211
 6 -12.39343784468447  2.78740724232423 -1.06500959125913
 6 -12.67006474597460 -0.24612709220922 -1.75874683438344
 6 -12.58127825852585 -0.56626989138914 -3.20914908620862
 7 -7.53480243784378 -1.33057474267427 -0.22350087858786
 6 -8.60800238773877 -2.10321904870487 -0.74455781818182
 6 -8.11451389038904 -3.40864774697470 -0.73321588888889
 6 -6.78640354945495 -3.40087691599160 -0.22567019091909
 6 -6.38195929932993 -2.10050286888689  0.01406648284828
 6 -8.94189694729473 -4.57633838333833 -0.95200419481948
 6 -5.60816776197620 -4.23950898599860  0.11477242284228
 8 -5.47361685188519 -5.38594812491249 -0.07419468536854
 6 -4.50340796939694 -3.27133789538954  0.50273933603360
 6 -3.86266006390639 -3.72174626812681  1.75611213691369
 8 -4.06638171167117 -3.30303823772377  2.93569163726373
 8 -2.93340202780278 -4.66808178107811  1.49510993889389
 6 -2.33808851265127 -5.28696814291429  2.66201834143414
 6  2.73399556815682 -1.10702460006001 -1.12319634543454
 6  3.95050829762976 -0.72386288868887 -0.58753085318532
 6  4.96338859545955  0.13773482838284 -0.98901285788579
 6  4.78979817551755  0.85666639833983 -2.38439555635564
 6  6.22621436663666  0.27092483168317 -0.28868778297830
 6  7.44228546894689 -0.38778496139614 -0.97803467036704
 6  8.73093469456946 -0.14215820092009 -0.20375872337234
 6  10.03618454415442 -0.75060938753875 -0.79065642044204
 6  10.04535057365737 -2.29254305720572 -1.09966925182518
 6  11.31689553975398 -0.27623193789379  0.01042048634863
 6  12.65046672087209 -0.55826114331433 -0.63525804890489
 6  13.84301289068907  0.04248702250225  0.17938999449945
 6  15.29923883568357 -0.29006988848885 -0.41798535643564
 6  15.58750832263226 -1.82026089148915 -0.44258302660266
 6  16.32617336163617  0.40905542284228  0.48064708700870
 6  17.78660354915491  0.60580349804980 -0.15164906630663
 6  18.69444036833683  1.64303863276328  0.54540535673567
 6  20.11875377697770  1.61055886048605  0.16749847734773
 6  20.40536123502350  2.10494707080708 -1.27260533833383
 6  21.04670719201920  2.30382172097210  1.16777856605661
 1 -4.02579023932393  3.46061729372937  2.01926680758076
 1 -10.10584843794379  4.06065330743074 -0.18866018871887
 1 -10.69759401580158 -2.17786494199420 -1.36353582668267
 1 -2.71203353035304 -1.24705394059406  2.14567544324432
 1 -2.14815613011301  1.45270549374938  1.35907882008201
 1 -2.17863812181218  0.56950331873187  3.51571067506751
 1 -2.95249074097410  2.17704275397540  3.62416261146115
 1 -3.65670526742674  0.56701188568857  3.84826000220022
 1 -2.19950545894590 -1.42466719981998 -0.57627207440744
 1 -2.33805714511451  0.22128831983198 -0.71016771097110
 1 -0.27300312011201  0.28783263686369  0.95162552385239
 1 -0.39792013131313 -1.41700365896590  1.31251876027603
 1 -4.61918673517352  5.84865923402340  0.74054685448545
 1 -5.87643284968497  6.86085099979998  1.67675697029703
 1 -4.80096818361836  5.75906395039504  2.47154128812881
 1 -8.01350636003600  6.87207708220822  1.06832838673867
 1 -9.45206055795579  5.86526668716872 -1.38201978807881
 1 -9.49362410901090  7.65215394289429 -0.75506572947295
 1 -12.21649601160116  3.48978816601660 -0.12313012611261
 1 -12.03859770807081  3.57404136153615 -1.91221053785379
 1 -13.31714273707371  2.42785062076208 -1.15866022142214
 1 -12.77456983018302 -1.20503943064306 -1.11798654975498
 1 -13.48820584508451  0.31213536823682 -1.56065842464246
 1 -12.49903553345334  0.26469328242824 -3.84446179047905
 1 -11.55824079207921 -1.07088466206621 -3.37401635373537
 1 -13.34699145264526 -1.14481357615762 -3.45105264756476
 1 -9.65059160796080 -4.81205052485249 -0.16639894189419
 1 -9.42493647254725 -4.50411835783578 -1.86746364456446
 1 -8.41956713141314 -5.54150241724172 -0.64645260076008
 1 -3.81948379977998 -3.55868215841584 -0.35931728032803
 1 -1.54485487848785 -5.98910400610061  2.09675300940094
 1 -1.87097554395440 -4.59210269416942  3.37000144274427
 1 -3.04705772217222 -5.84306939853985  3.16460333593359
 1  2.67410131763176 -2.22548019151915 -1.31000216721672
 1  2.44938983348335 -0.46539412021202 -2.10817858505851
 1  4.35206797849785 -1.14564687898790  0.30615851885188
 1  4.77959978917892  2.10451296029603 -2.17126184598460
 1  5.42382900010001  0.60571653415341 -3.11592299389939
 1  3.78391851005100  0.51709289608961 -2.89501032613261
 1  6.32627064326433  1.34150027502750 -0.27510770187019
 1  6.04783282798280  0.05782589298930  0.83259096649665
 1  7.18582536743674 -1.45752247684769 -0.96922768236824
 1  7.54821436393639 -0.12775075447545 -1.96732156115612
 1  8.89006449384938  1.01099994129413 -0.36223607530753
 1  8.62130519331933 -0.63389754125413  0.74653746614661
 1  10.33391606020602 -0.42327977127713 -1.74933950895089
 1  9.09077939413941 -2.79341803500350 -1.69346789458946
 1  10.81886691779178 -2.45495709550955 -1.64982558745875
 1  10.08463348344835 -2.73567525312531 -0.05229349864986
 1  11.25139043644364  0.88981776187619  0.14132271747175
 1  11.00597656115612 -0.68862409890989  1.15330526072607
 1  12.88543325392539 -1.67598917011701 -0.80292350535054
 1  12.73143129532953 -0.02331241024102 -1.67336887058706
 1  13.78803995889589  1.16682639343934  0.27495040594059
 1  13.91951617861786 -0.30701712951295  1.14902174807481
 1  15.22858520272027  0.02638384448445 -1.41893390669067
 1  14.81075662856285 -2.57398998079808 -0.90707004020402
 1  16.59433330683068 -1.82503654025402 -0.92027781168117
 1  15.64782006080608 -2.20439557215722  0.44649392079208
 1  15.93785405860586  1.41173774407441  0.42383284228423
 1  16.21585624242424 -0.14675405210521  1.40307372997300
 1  18.20723194489449 -0.35899010951095  0.00970110231023
 1  17.51541612721272  0.83536542484248 -1.23561199369937
 1  18.09995468496850  2.56087248314831  0.57783317301730
 1  18.66010826502650  1.31016682618262  1.57979512951295
 1  20.50587692009201  0.57739570057006  0.13027418361836
 1  19.97595495209521  3.10241851195119 -1.42235413781378
 1  21.37341458515852  1.85568363806381 -1.48759186578658
 1  19.89752472547255  1.37763338503850 -2.00977315881588
 1  20.89789502600260  1.94194566256626  2.27251828842884
 1  22.16248910611061  2.37531755915592  0.90142429952995
 1  20.43156278567857  3.22630583018302  1.26566530443044
 1 -7.10934276737674  1.70864973817382  0.20900274637464
 1 -7.70793234163416 -0.37223739973997 -0.26914704230423

