%nproc=3
%Mem=2GB
# td=(NStates=1) B3LYP/SVP 

TD

0 1
 6 -5.06305400350035 -1.95925216731673  0.28930380628063
 6 -4.67959827882788  2.73199965166517  1.40130651655166
 6 -9.24569447914791  3.31180197939794 -0.11401986988699
 6 -9.97824587908791 -1.52668347174717 -0.91163371677168
 7 -5.02015117741774  0.46197782068207  0.61741017801780
 6 -4.39978859495950 -0.83503022402240  0.73613705710571
 6 -3.01509119561956 -0.57254368906891  1.24685968176818
 6 -2.98086305170517  0.79171806410641  1.84915402120212
 6 -4.26358555165517  1.31874169206921  1.26350994799480
 6 -2.94840340884088  0.96556406870687  3.37811567416742
 6 -2.00252232293229 -0.87652761446145  0.02822076767677
 6 -0.63812702490249 -0.91110932753275  0.57445989868987
 6  0.42198585998600 -1.12746961986199 -0.48288984658466
 8  0.16629839743974 -1.72728509510951 -1.51915552705271
 8  1.68398859595960 -0.78421519461946 -0.01569401210121
 7 -6.93518811341134  2.71654892669267  0.38394790399040
 6 -5.86665824122412  3.33377779607961  0.94642549944995
 6 -6.14304749044905  4.78142458195820  0.96966345914591
 6 -7.46683578037804  4.86221505700570  0.50702723012301
 6 -7.94099504540454  3.53156164986499  0.20537069246925
 6 -5.14323483998400  5.86696221132113  1.46558782478248
 6 -8.09365664836483  6.14593860546055  0.30339884118412
 6 -9.01102900110011  6.62102182408241 -0.57305978477848
 7 -9.26546474707471  0.87518475147515 -0.42694516291629
 6 -9.80978484138414  2.03392589128913 -0.42823209240924
 6 -11.22475634213421  1.90932449344934 -1.03893772767277
 6 -11.43887783828383  0.60155749584959 -1.23245820052005
 6 -10.13584581028103 -0.12044199589959 -0.85270851335134
 6 -12.27836633753375  3.00211871347135 -1.23763685398540
 6 -12.62498023752375 -0.12681516101610 -1.66907786748675
 6 -12.67855798649865 -0.41433469786979 -3.12508067936794
 7 -7.51382033963396 -1.26091777697770 -0.23060158865887
 6 -8.61223281078108 -2.04548327512751 -0.66455981838184
 6 -8.32369480848085 -3.41123800600060 -0.61958452575258
 6 -6.87449235833583 -3.40120694899490 -0.12643026692669
 6 -6.47174827822782 -2.08866168476848  0.05422049824982
 6 -9.15052781038104 -4.59712046154615 -0.99818881328133
 6 -5.75764270947095 -4.36273130823082  0.10242118771877
 8 -5.69038852905291 -5.52748227832783 -0.09505677157716
 6 -4.61693932253225 -3.40059082068207  0.40784984708471
 6 -3.94514831273127 -3.84349844334433  1.76961348704870
 8 -4.32083715721572 -3.53390132403240  2.91184925302530
 8 -3.00937962556256 -4.81819679257926  1.40610103800380
 6 -2.41794649844985 -5.42253169926993  2.66209834943494
 6  2.77948011661166 -1.00294419201920 -1.01492551835184
 6  4.00325357215722 -0.57871837423742 -0.48162026212621
 6  4.90582283888389  0.30148120302030 -1.03583754035404
 6  4.85618481418142  0.99346007770777 -2.44092120892089
 6  6.21114285948595  0.48810654985499 -0.24256317051705
 6  7.37370861126113 -0.09873605650565 -0.85869273617362
 6  8.67031863296330  0.07916393129313 -0.05692403990399
 6  9.91238216391639 -0.57252157875788 -0.71257861266127
 6  9.92806884548455 -2.09741354425443 -0.82068135303530
 6  11.28095194539454 -0.06157047174717 -0.03558411411141
 6  12.58963063726373 -0.56080139733973 -0.71365588868887
 6  13.74416300570057  0.01339411321132  0.02807486298630
 6  15.20268918071807 -0.29397027852785 -0.39447300520052
 6  15.55412498429843 -1.77826669206921 -0.30045881418142
 6  16.24374511881188  0.60341485878588  0.40421944424442
 6  17.74378926772677  0.64585750345034 -0.16425032643264
 6  18.60596152045204  1.55221955085509  0.51106192239224
 6  20.08246014761476  1.56710451505150  0.05212694019402
 6  20.24230492939294  2.13602017811781 -1.36766484428443
 6  20.94335685698570  2.31619295809581  1.03873566176618
 1 -3.95592325262526  3.37135836783678  1.70374525542554
 1 -9.91379923302330  4.11015825792579 -0.21271259395940
 1 -10.60812506890689 -2.21829898539854 -1.20653012611261
 1 -2.77548987598760 -1.29274851005100  1.88287916361636
 1 -2.28279959445945  1.40276049924992  1.54707761996200
 1 -2.06005626362636  0.50588695709571  3.75773487748775
 1 -3.02973846574657  2.11422647234724  3.48910910611061
 1 -3.79113871077108  0.34916010051005  3.83136831303130
 1 -2.24761026942694 -1.83056778987899 -0.48816326352635
 1 -2.20234357375738  0.03330952195220 -0.74035072927293
 1 -0.51682750255025 -0.11136728312831  1.33654401570157
 1 -0.45448578787879 -1.76198815741574  1.22230973937394
 1 -4.19825464196420  5.76610097819782  0.99009180898090
 1 -5.65675088148815  6.86878179287929  1.29738903350335
 1 -5.03951203800380  5.91104914891489  2.66120025402540
 1 -7.85481049044905  6.76311618611861  1.26179773367337
 1 -9.61372672457246  6.01496165666567 -1.19132071817182
 1 -9.30352509910991  7.61769049654966 -0.48170839373937
 1 -12.52964732673267  3.50422961016102 -0.40422823592359
 1 -12.02445629392939  3.84579853725372 -1.94813413021302
 1 -13.26234725752575  2.45698353405341 -1.60130448584859
 1 -12.57671004420442 -1.02572149884988 -1.31886663776378
 1 -13.38870589508951  0.51863601830183 -1.13325568436844
 1 -12.97880351025102  0.31806861996200 -3.93933127742774
 1 -11.70269523752375 -0.83534110771077 -3.48621757385739
 1 -13.36716346984699 -1.07681677647765 -3.27172471477148
 1 -9.87995454425443 -5.00891021082108 -0.14512681468147
 1 -9.87736171507151 -4.44816276227623 -1.94531142934293
 1 -8.34431960666067 -5.52092035903590 -1.37702565806581
 1 -3.99614146554655 -3.89294558475848 -0.42647399599960
 1 -1.69050944394439 -6.32591768746875  2.23747708180818
 1 -1.88099654605460 -4.61551503540354  3.16828127072707
 1 -3.17704072047205 -5.90234532613261  3.30375725132513
 1  2.56181008850885 -2.14890253375338 -0.94741590859086
 1  2.48488338283828 -0.83699127992799 -2.05910367756776
 1  4.07834060576058 -0.96644895919592  0.62429033203320
 1  4.85443727292729  2.02156466546655 -2.20658537833783
 1  5.31999861706171  0.53058902140214 -3.37761916351635
 1  3.74251436963696  0.98048923572357 -2.60404122922292
 1  6.43831184738474  1.51438756375638 -0.49712990409041
 1  5.92475051975198  0.16659677007701  0.78572628002800
 1  7.14537132203220 -1.12324904950495 -0.91036179577958
 1  7.41909145164516  0.12515453605361 -1.85410023902390
 1  8.89215470287029  0.98830767206721  0.17035718401840
 1  8.54329739253925 -0.50943509500950  0.90576338873887
 1  10.05573824242424 -0.11578902220222 -1.67697227222722
 1  9.05729604580458 -2.53005169836984 -1.23519206700670
 1  10.93579861096110 -2.56246784658466 -1.34981558645865
 1  9.54297931803180 -2.23707539313931  0.18089982068207
 1  10.98067336473648  0.92172095219522  0.29359794499450
 1  11.10264622812281 -0.30182541904190  1.01418134833483
 1  12.47975268586859 -1.71229280048005 -0.63330654365437
 1  12.64082223442344  0.02734265526553 -1.59815134883488
 1  13.82886404130413  1.15065477627763 -0.09008609770977
 1  13.79224345134513 -0.38955538333833  1.07728457435744
 1  15.10110245444544  0.03753495959596 -1.38943095639564
 1  14.89943549644964 -2.52133471527153 -0.93374270747075
 1  16.47861173467347 -2.00288432503250 -0.71046683058306
 1  15.28061334013401 -2.15528066066607  0.91228049944994
 1  15.71021129432943  1.68713528382838  0.09841030003000
 1  16.14135879267927  0.58638926222622  1.65565898849885
 1  18.22655387708771 -0.48171238173817 -0.06261612941294
 1  17.70714530013001  0.74666655495550 -1.25694412691269
 1  18.23771846134613  2.45377177307731  0.51551694139414
 1  18.75123737793779  1.13208901840184  1.57218436843684
 1  20.36688302070207  0.54690265126513  0.13785494169417
 1  19.83642099869987  3.15271354145415 -1.08555045744574
 1  21.36123336703670  1.98083615331533 -1.61443455005501
 1  19.48109308230823  1.71252687438744 -1.95877805930593
 1  21.08120335683568  1.96398786678668  2.07251828842884
 1  21.83826668386839  2.49313934133413  0.68905306240624
 1  20.47859748914891  3.37565076467647  1.06476521442144
 1 -6.85096692979298  1.76845571877188  0.17351919801980
 1 -7.60196174457446 -0.34787496349635 -0.30704083168317

