%nproc=3
%Mem=2GB
# td=(NStates=1) B3LYP/SVP 

TD

0 1
 6 -5.11818951705171 -1.97422366446645  0.55407028292829
 6 -4.85474579357936  2.69412586428643  1.59851623752375
 6 -9.35781569126913  3.45075587478748 -0.42893136103610
 6 -9.69262731723172 -1.35958676207621 -1.05452800620062
 7 -5.28452761506151  0.39575119801980  0.89160759775978
 6 -4.49385800190019 -0.79824654565457  0.92269571297130
 6 -3.11317100360036 -0.54232066676668  1.30745574137414
 6 -3.15694065946595  0.96317520982098  1.88336744254425
 6 -4.47219641274127  1.39789960786079  1.36691028802880
 6 -2.96953552205221  0.87065457775778  3.39205706830683
 6 -2.11247331803180 -0.76284624632463  0.11589953555356
 6 -0.58164137633763 -0.79590780738074  0.57457991069107
 6  0.37603126452645 -1.13091996489649 -0.62846440404040
 8  0.02970473807381 -1.74294666126613 -1.70662427392739
 8  1.62052224932493 -0.89100587368737 -0.22942538523852
 7 -7.07944253885389  2.85206247804780  0.46804631383138
 6 -6.02259383478348  3.31087550585058  1.12031288818882
 6 -6.21938512421242  4.70260670017002  1.07184367716772
 6 -7.50889998679868  4.90348918441844  0.46963349074907
 6 -8.05874682058206  3.77779627332733  0.00535069046905
 6 -5.29041955845585  5.74078959405941  1.91042230823082
 6 -8.16486376907691  6.27546155775577  0.50844934623462
 6 -8.91169906810681  6.74237395929593 -0.45700817961796
 7 -9.18476667726773  1.05526275927593 -0.60465293369337
 6 -9.84869873277328  2.20008250695070 -0.65893516271627
 6 -11.19750361686169  1.91157471847185 -1.08658249214922
 6 -11.32962691319132  0.54583192329233 -1.37929288398840
 6 -9.99035126082608 -0.01934188588859 -1.05714895739574
 6 -12.29220772167217  3.00085858745875 -1.26748983928393
 6 -12.46861460096010 -0.19565204470447 -1.82276323602360
 6 -12.53991412211221 -0.50000326472647 -3.37660583188319
 7 -7.35730468806881 -1.28039972517252 -0.23083161166117
 6 -8.51542312981298 -1.99568829562956 -0.70585394779478
 6 -8.21308374737474 -3.38092497469747 -0.60249281658166
 6 -6.82010691979198 -3.44951177947795 -0.18510613451345
 6 -6.39529063246325 -2.12253507210721  0.13373845004500
 6 -8.97364012161216 -4.58144889438944 -1.10238923332333
 6 -5.75755270047005 -4.34567960306031  0.22965391099110
 8 -5.79843933413341 -5.54622415251525  0.31782451655166
 6 -4.46714434303430 -3.43191395299530  0.63760282238224
 6 -3.84853865176518 -3.91140523402340  1.91227775347535
 8 -4.06241131463146 -3.42121005490549  3.07854592269227
 8 -3.12887157475748 -4.98529350225023  1.80007043494349
 6 -2.50879558335834 -5.56280572667267  2.90326246584658
 6  2.63816598519852 -1.07343124072407 -1.25032905870587
 6  3.91731497829783 -0.60119062146215 -0.74611671177118
 6  4.90528278487849  0.15567662256226 -1.24618857545755
 6  4.90593978967897  0.69579031073107 -2.60381749854986
 6  6.23883562876288  0.34935267446745 -0.46506542074207
 6  7.45219646004600 -0.26752293519352 -1.06624349124912
 6  8.76154775587559 -0.20015400050005 -0.21708005550555
 6  10.09736066176618 -0.74847917451745 -0.93659101390139
 6  9.97319335793579 -2.24508831173117 -1.00139942484248
 6  11.25744959515952 -0.35164947964796 -0.05918647434743
 6  12.65027670187019 -0.54681999919992 -0.75983050615062
 6  13.81826041544154  0.00039281308131  0.10110216571657
 6  15.17575648744874 -0.13852473397340 -0.56109966786679
 6  15.68961853365336 -1.61688055345535 -0.56665543384338
 6  16.25688643294330  0.65408992629263  0.30234925722572
 6  17.68802369116912  0.70605352305231 -0.26243014441444
 6  18.54584550885088  1.48378270717072  0.69906072227223
 6  20.03970587218722  1.68393619821982  0.22201392889289
 6  20.10913161206120  2.48484506060606 -1.10729880768077
 6  20.89585210651065  2.34498583738374  1.36891868006801
 1 -3.93889154945495  3.42679391139114  1.98656353725373
 1 -9.94085193829383  4.37323456555656 -0.41965328802880
 1 -10.48401265766577 -1.97196435193519 -1.49278875197520
 1 -2.94894722172217 -1.27290652585258  2.25797667336734
 1 -2.39238055255526  1.64826504970497  1.41450436263626
 1 -2.18894915291529  0.36464283268327  3.86296540054005
 1 -2.96208170007001  1.75305035473547  3.79854004920492
 1 -3.94954455135514  0.45582076657666  3.80315549174917
 1 -2.52808831723172 -1.64412914601460 -0.40864531173117
 1 -2.12542588198820  0.13102929392939 -0.53490018421842
 1 -0.37599341914191  0.22520637423742  0.95486584788479
 1 -0.32701304060406 -1.50701265986599  1.36168367676768
 1 -4.41072588908891  5.75657002510251  1.43169596939694
 1 -5.73704891129113  6.82174708940894  1.68363765836584
 1 -5.20142822962296  5.35856390039004  3.00108424242424
 1 -7.55301031043104  6.98439831433143  1.12910446434643
 1 -9.37989334123412  6.10950111061106 -1.34288587468747
 1 -9.13108785538554  7.85297402490249 -0.53886410931093
 1 -12.43362772477248  3.63559274647465 -0.39139695279528
 1 -12.01299514781478  3.73914787218722 -1.89566888368837
 1 -13.19042006480648  2.54556239193919 -1.60640499589959
 1 -12.53798617181718 -1.08444737143714 -1.18958370947095
 1 -13.41251827632763  0.39324347904790 -1.45802816161616
 1 -12.65704133403340  0.50361717481748 -3.88458580288029
 1 -11.56486145414542 -0.94820239383938 -3.70334928702870
 1 -13.30343709720972 -1.20055915071507 -3.54125166746675
 1 -9.88787533633363 -4.60530985078508 -0.68755105710571
 1 -9.18229220812081 -4.50509845584558 -2.22534943314331
 1 -8.25214038873887 -5.36695496249625 -0.90286824232423
 1 -3.72102395379538 -3.49966625682568 -0.07761911051105
 1 -1.64906529952995 -6.24084918061806  2.66931026512651
 1 -2.25141358775878 -4.61641512541254  3.47124156675668
 1 -3.47485050145015 -5.74494958655866  3.69353622922292
 1  2.56847075457546 -2.22062970647065 -1.52192335933593
 1  2.40304519901990 -0.38761634243424 -2.19494726192619
 1  4.21974474617462 -1.05880819511951  0.25890379337934
 1  5.13669549874987  1.69988249724973 -2.47045176497650
 1  5.84210082728273  0.15731169366937 -3.31022242384238
 1  3.87435755395540  0.67351853865387 -3.17464828992899
 1  6.34921293749375  1.43175930093009 -0.33441363246325
 1  6.04447249194920  0.00795090549055  0.59610731813181
 1  7.34604138903890 -1.36062278687869 -1.53828458805881
 1  7.45785532803280  0.47280930153015 -1.95559038803880
 1  8.91358684608461  0.88701754305430  0.01038118641864
 1  8.58809187198720 -0.55501965346535  0.72007481988199
 1  10.07223989258926 -0.16987443074307 -1.95486006100610
 1  8.94085440164016 -2.46554524772477 -1.71211975977598
 1  10.91486651775178 -2.60299189898990 -1.50899150405041
 1  9.95525054515452 -2.63573525912591  0.06614834553455
 1  11.27653295069507  0.76452523262326  0.16678526372637
 1  11.14363032653265 -0.77202243874387  0.85426535673567
 1  12.82208691929193 -1.52743431463146 -1.04651786478648
 1  12.67303545574557 -0.06451653065307 -1.76672820652065
 1  13.78611976687669  1.04164387518752  0.14755766666667
 1  13.57100132713271 -0.35113154095409  1.13515036093609
 1  15.07937028122812  0.15125633173317 -1.43345535883588
 1  15.07325287818782 -2.24706728852885 -1.17635696889689
 1  16.59939381288129 -1.65559959655966 -1.11442722662266
 1  15.81949722852285 -1.86181131373137  0.32296156755676
 1  15.97767804100410  1.63208977927793  0.63042350135013
 1  16.32476713351335 -0.00255963266327  1.32432585518552
 1  17.96901812351235 -0.35592980348035 -0.57325719351935
 1  17.48864344994499  1.34536642494249 -1.14253268576858
 1  18.19792448194820  2.57433382928293  0.82505789548955
 1  18.86213846804680  0.78936474597460  1.54377152715272
 1  20.62009834223422  0.70385834683468  0.16096725292529
 1  19.54298165476548  3.56564483458346 -0.73108501090109
 1  21.12152939663967  2.63118118781878 -1.34387749434944
 1  19.58968394139414  1.84311993369337 -1.78553073457346
 1  20.71208644514451  1.73710517851785  2.19597063366337
 1  22.02015487268727  2.34414444184418  0.91919607670767
 1  20.47627725712571  3.30041324092409  1.67043578147815
 1 -7.18246007910791  1.78995786898690  0.46372821892189
 1 -7.34064561296130 -0.09241941794179 -0.39054918251825

