%nproc=3
%Mem=2GB
# td=(NStates=1) B3LYP/SVP 

TD

0 1
 6 -5.12762046014601 -2.05854209630963  0.52923779967997
 6 -4.77575789478948  2.78340479217922  1.51998838473847
 6 -9.24362427212721  3.30488128732873 -0.27264573247325
 6 -9.81502955745574 -1.47184798819882 -0.92646519991999
 7 -5.22792195449545  0.39230085298530  0.83636207320732
 6 -4.55674429052905 -0.79097581858186  0.85582902630263
 6 -3.05266495299530 -0.64438087278728  1.31021601740174
 6 -3.04795976137614  0.78835772807281  1.97049615541554
 6 -4.39985917901790  1.34721453935394  1.35302889988999
 6 -3.00989955845585  0.89772728502850  3.52726058865887
 6 -2.09558162886289 -0.69163912561256  0.12402034763476
 6 -0.68807201940194 -0.69496771337134  0.61205365806581
 6  0.35786944834483 -0.89844671757176 -0.52422397999800
 8  0.07505927352735 -1.12452481908191 -1.66401001250125
 8  1.64653485058506 -0.80383715681568 -0.14140658335834
 7 -7.04370896549655  2.69743701550155  0.61581109030903
 6 -5.97094867026703  3.25326974527453  1.17390824772477
 6 -6.18544172987299  4.74614105360536  1.15504199699970
 6 -7.44214331113111  4.93834266976698  0.44525105250525
 6 -8.00140108600860  3.61526001970197  0.21134128952895
 6 -5.20762127862786  5.77001251635164  1.71226249224922
 6 -8.10040732343234  6.31897590919092  0.18802730403040
 6 -9.02510040824082  6.52138186008601 -0.63873635243524
 7 -9.22794099469947  0.87936516951695 -0.45426789518952
 6 -9.84506836973697  2.10664316301630 -0.58449771897190
 6 -11.20202406890689  1.92499606060606 -1.22170600450045
 6 -11.31478542904290  0.59113645374537 -1.36384133883388
 6 -10.10879310501050 -0.02665261696170 -1.00522376487649
 6 -12.32306080698070  3.03711221282128 -1.26366945724572
 6 -12.65311305080508 -0.10150262976298 -1.87401836153615
 6 -12.72417254795480 -0.44741800620062 -3.31414958625863
 7 -7.49761871947195 -1.26639832503250 -0.25800432893289
 6 -8.58572015951595 -2.02559128592859 -0.60035339773977
 6 -8.17412985198520 -3.42738962116212 -0.66847941524152
 6 -6.86229113821382 -3.42444927322732 -0.24209183308331
 6 -6.43626472987299 -2.07225004360436  0.05716079227923
 6 -9.02706546414641 -4.56956770627063 -1.09910890529053
 6 -5.83812075727573 -4.32824785988599  0.03030397599760
 8 -5.74524401460146 -5.52160169026903 -0.12814007990799
 6 -4.58465609420942 -3.46978774037404  0.57259632173217
 6 -3.99147294519452 -3.84615870937094  1.88350487618762
 8 -4.22710778427843 -3.26312424632463  2.94234230233023
 8 -3.26559524712471 -5.00596556945695  1.69623005090509
 6 -2.63996870067007 -5.48948839493949  2.92495463506351
 6  2.64275644424442 -1.07487138473847 -1.15583960976098
 6  3.98316156295630 -0.72263276567657 -0.54622672277228
 6  5.01053330993099 -0.02209115421542 -1.07281123772377
 6  4.90597979367937  0.79209994169417 -2.35514263106311
 6  6.23319506470647  0.14261200040004 -0.36749566376638
 6  7.58315955635564 -0.58754493739374 -0.93544041094109
 6  8.76533813491349 -0.19428341344134 -0.11495984348435
 6  10.10127105280528 -0.68499282588259 -0.82025938073807
 6  10.16672271087109 -2.30867467036704 -0.98384766966697
 6  11.41960581078108 -0.18320263496350 -0.09204976067607
 6  12.70133180738074 -0.39723504070407 -0.87047157025703
 6  13.80030862026203  0.04402717651765  0.10596265176518
 6  15.30402931473147 -0.09326020752075 -0.40658421632163
 6  15.79500907270727 -1.57939680508051 -0.59845861416142
 6  16.24335507980798  0.61967648494849  0.43676269856986
 6  17.64489937873788  0.68510142784278 -0.10580448184818
 6  18.52616354065406  1.67982231113111  0.54762557875788
 6  20.00141204280428  1.65339314391439  0.11350307780778
 6  20.32168286718672  2.24356093219322 -1.29581765956596
 6  20.99248176947695  2.42262360116012  1.07624941314131
 1 -4.10811847214721  3.39578081008101  1.86391127202720
 1 -9.72966081918192  4.32911015311531 -0.43940526322632
 1 -10.73573783018302 -2.06259341484148 -1.45381485458546
 1 -2.77972029902990 -1.36888612381238  1.99446032173217
 1 -1.95251656615662  1.27660788398840  1.53010592279228
 1 -1.98885914391439  0.37288365676568  3.68562766676668
 1 -3.20622611451145  1.74562961266127  4.14440463566357
 1 -3.89166876377638  0.22384756925693  4.04556973317332
 1 -2.28600410881088 -1.55799053215322 -0.51051549874987
 1 -2.35621896129613  0.21694788578858 -0.57081377557756
 1 -0.37842366216622  0.16616046964696  1.22249261056106
 1 -0.58346868616862 -1.62141410001000  1.34739224762476
 1 -4.44684950145015  5.98514288238824  1.02164496429643
 1 -5.60402560896090  6.76171108580858  1.69859915451545
 1 -4.59018710551055  5.31972001600160  2.59800393439344
 1 -7.58718372777278  7.03478335283528  0.74856641054105
 1 -9.69487483938394  5.87840800130013 -1.21939352545255
 1 -9.15923066966697  7.68295702320232 -0.82533275617562
 1 -12.67699206120612  3.19482867006701 -0.13305111821182
 1 -11.93005685398540  3.96978093549355 -1.82238155495550
 1 -13.11927295009501  2.57126496219622 -2.00664501990199
 1 -12.56920929412941 -1.20843977067707 -1.41502625372537
 1 -13.50647767226723  0.27899205390539 -1.21605396419642
 1 -12.38126375627563  0.40355716881688 -3.88642598689869
 1 -11.87542251025103 -1.21404897849785 -3.52193114521452
 1 -13.82338909240924 -0.74705380018002 -3.63165070737074
 1 -10.06227277607761 -4.75128444824482 -0.53542584458446
 1 -9.21498547744774 -4.51612955895590 -2.15497239543954
 1 -8.36813198789879 -5.49541780878088 -0.91902985848585
 1 -3.74135598699870 -3.47934422462246 -0.26534788338834
 1 -2.02706309930993 -6.49545464116412  2.84572790689069
 1 -1.99631807820782 -4.77624110801080  3.47596203880388
 1 -3.34649766616662 -5.59816490809081  3.70106698229823
 1  2.47083099059906 -2.16540418391839 -1.33299446644664
 1  2.38845373987399 -0.43997157795780 -1.97140490769077
 1  4.20323309500950 -1.11598391269127  0.48015591859186
 1  5.24245607480748  1.79171168016802 -2.37874259405941
 1  5.64361097829783  0.28695465796580 -3.13134453605361
 1  3.95574569276928  0.59591077787779 -2.78235906100610
 1  6.57231524772477  1.24123024802480 -0.30010020112011
 1  6.08869691439144 -0.14274416401640  0.74324203160316
 1  7.27862464736474 -1.58941566616662 -0.87952871247125
 1  7.56576611911191 -0.28748672807281 -2.05713054205420
 1  8.95169065646565  0.82380122142214 -0.06166601830183
 1  8.84326738953895 -0.61770592209221  0.70908372077208
 1  10.39177184578458 -0.48117556085609 -2.03193776877688
 1  9.38166848304830 -2.58442713591359 -1.49243779157916
 1  11.18417344844484 -2.85541714151415 -1.32700330523052
 1  10.11107612771277 -2.76977866346635  0.12860459115912
 1  11.22675797319732  0.88354713481348  0.01464004920492
 1  11.30426639013901 -0.59592482898290  0.86775670587059
 1  12.62696740734074 -1.51437300850085 -0.77013022602260
 1  12.67567571977198 -0.31435151415142 -1.90870240394039
 1  13.61190234513451  1.22050176097610  0.33218612951295
 1  13.52773700070007 -0.42974940274027  1.07157400330033
 1  15.41275361956196  0.40999220532053 -1.43122513581358
 1  14.96353190609061 -2.23929651145115 -0.97127646084608
 1  16.62824669816982 -1.54931896849685 -1.37609339323932
 1  16.03850912971297 -2.11244637723772  0.31218048944894
 1  15.72862313551355  1.74165073537354  0.35118557755776
 1  15.97418207500750  0.15395601890189  1.44526794939494
 1  18.08008923062306 -0.40234444494449  0.29806993919392
 1  17.71356594219422  0.73759564786479 -1.19883831633163
 1  17.92052674217422  2.70074647054705  0.50611600130013
 1  18.37720997519752  1.51970778027803  1.66938408840884
 1  20.32393872627263  0.56759472047205 -0.01241008480848
 1  19.95856321292129  3.30836910701070 -1.48832073447345
 1  21.34135137883789  2.19552762246225 -1.56610971757176
 1  19.72924789778978  1.83454907660766 -2.07198938043804
 1  20.95878111461146  2.26226769476948  2.20820185678568
 1  22.11215407260726  2.36085611301130  0.81044520162016
 1  20.87594722412241  3.54683788338834  0.89997873577358
 1 -7.09803163626363  1.65300417361736  0.45120696679668
 1 -7.40372192059206 -0.27492766876688 -0.14240436803680

