%nproc=3
%Mem=2GB
# td=(NStates=1) B3LYP/SVP 

TD

0 1
 6 -5.09668736683668 -1.94751099319932  0.40902577847785
 6 -4.82605292429243  2.76530298199820  1.33803018891889
 6 -9.38383829352935  3.22440323952395 -0.21514998289829
 6 -9.91639969446945 -1.59839064246425 -0.70979353275328
 7 -5.15754491679168  0.42141376427643  0.81416985398540
 6 -4.40787940404040 -0.72116883788379  0.69868331173117
 6 -2.92689237573757 -0.56199263396340  1.11511650745075
 6 -3.05255022042204  0.90148904120412  1.70562966876688
 6 -4.42419161226123  1.40622043994399  1.21474507150715
 6 -2.76648521702170  1.02186969926993  3.26716457905791
 6 -1.99599166986699 -0.60688064976498 -0.00399245364536
 6 -0.60701391359136 -0.54564278087809  0.40865331803180
 6  0.44195785718572 -0.65711258415842 -0.76440799839984
 8  0.12465423302330 -0.81639400600060 -1.98769238073807
 8  1.65069526662666 -0.68676544964496 -0.24722716541654
 7 -7.04151874647465  2.65676294809481  0.43558306750675
 6 -5.99548112351235  3.41686610491049  0.99878073497350
 6 -6.34583776947695  4.78908534803480  0.97045353815382
 6 -7.66711580838084  4.89858869436944  0.47817434483448
 6 -8.15565651155116  3.52479097279728  0.15567572297230
 6 -5.45148566506651  5.77048256335634  1.49700096609661
 6 -8.33762104480448  6.17722173377338  0.39097759905991
 6 -8.92913081128113  6.66043576547655 -0.78301077987799
 7 -9.31742994359436  0.69799703270327 -0.28847131553155
 6 -9.89781364426443  1.90415291399140 -0.52412168136814
 6 -11.26224009050905  1.75998955995600 -0.96317015091509
 6 -11.41384533503350  0.37763510361036 -1.08121307600760
 6 -10.20912313801380 -0.23125307700770 -0.69995323782378
 6 -12.21673017391739  2.95418391999200 -1.23370646094609
 6 -12.74561230073007 -0.27952043154315 -1.62508346804680
 6 -12.57250738143814 -0.61377464186419 -3.10280845214521
 7 -7.58159711731173 -1.22210389558956 -0.11768029652965
 6 -8.64099568706871 -2.05138386518652 -0.37729109150915
 6 -8.19043148214821 -3.50143702590259 -0.46689925722572
 6 -6.90634554365437 -3.41717854615462 -0.14922254615462
 6 -6.45532663606361 -2.07606042464246  0.05601067726773
 6 -8.98990174777478 -4.68814956445645 -0.71434042844284
 6 -5.65095204040404 -4.33461849694969  0.07679862546255
 8 -5.58925841604160 -5.48715824592459 -0.01772903880388
 6 -4.44402203080308 -3.20612137373737  0.33905296739674
 6 -3.89997379527953 -3.66032012551255  1.72483900960096
 8 -4.32072714621462 -3.33765169906991  2.84039210731073
 8 -3.04096278387839 -4.68487346024602  1.64275470337034
 6 -2.49091379517952 -5.37082652875288  2.80202234183418
 6  2.62378454705471 -0.73592749034903 -1.32711673747375
 6  4.03390663746375 -0.68045854825483 -0.67413951405141
 6  5.02625488208821  0.12423347824782 -1.08930288688869
 6  4.88417761346135  1.17233796549655 -2.22499961676168
 6  6.43374511971197  0.26283402260226 -0.27876679087909
 6  7.53007424782478 -0.29654583748375 -1.03660052695270
 6  8.78145974707471 -0.49696368146815 -0.07527587508751
 6  10.01383230893089 -0.81500582718272 -0.89411676647665
 6  10.10333637223722 -2.29882368526853 -1.35310459535954
 6  11.30521437163716 -0.51032534723472  0.04327377167717
 6  12.70415208940894 -0.67960327752775 -0.67227175027503
 6  13.95352394179418 -0.23244047024702  0.27957001250125
 6  15.33205211701170 -0.35490637213721 -0.35327888578858
 6  15.75066463826383 -1.68115698109811 -0.73797256555656
 6  16.25459620392039  0.43702822012201  0.51672069436944
 6  17.80300518931893  0.47133005070507 -0.02648655005501
 6  18.64897582188219  1.38797312621262  0.86084690089009
 6  20.06651855345535  1.67855566016602  0.19096082358236
 6  19.98654935383538  2.51203777987799 -1.14874295209521
 6  20.94748727002700  2.32673401220122  1.29008079627963
 1 -4.18095575587559  3.66950818281828  1.70729561046105
 1 -10.12791064416442  4.00826806890689 -0.31569289198920
 1 -10.68037229362936 -2.33897105260526 -1.04057353045305
 1 -2.55914824182418 -1.20530976617662  1.84854573027303
 1 -2.21134244874487  1.55487571077108  1.31775468766877
 1 -1.72197245524553  0.67480384878488  3.52785188918892
 1 -2.97628312021202  2.13580863056306  3.44674486968697
 1 -3.61200079697970  0.40854603910391  3.50766594279428
 1 -2.02471798019802 -1.71134586768677 -0.34390883808381
 1 -2.30007334673467  0.08217440844084 -0.77981467566757
 1 -0.30008582838284  0.41589544314431  0.97972833413341
 1 -0.36575691499150 -1.20867282588259  1.11094860326033
 1 -4.66749156565657  6.36266063416342  0.67818061786179
 1 -5.99539474587459  6.84950986568657  1.98515781038104
 1 -4.83890197699770  5.49124716871687  2.44511864586459
 1 -8.13144815421542  6.89760963546355  1.21829338323832
 1 -9.09594494639464  6.15443560406041 -1.59918150425042
 1 -9.63942868946895  7.60831955945595 -0.71630185308531
 1 -12.15771013301330  3.71927111431143 -0.37863567666767
 1 -11.86762061036104  3.44366832423242 -2.12799211601160
 1 -13.32269329212921  2.78549638533853 -1.45462981838184
 1 -12.93753612681268 -1.22768169486949 -0.97450220132013
 1 -13.54061108560856  0.19617377207721 -1.30270262906291
 1 -12.65975160506051  0.05552236533653 -3.73436078037804
 1 -11.71111607960796 -1.29286686028603 -3.30261921402140
 1 -13.69131588508851 -1.00005910071007 -3.26784432673267
 1 -10.07253380218022 -4.65630495029503 -0.14880718271827
 1 -9.51816579547955 -4.92336028202820 -1.71490838903890
 1 -8.62633780848085 -5.85479374637464 -0.60197815331533
 1 -3.91970382178218 -3.48392468266827 -0.40031137973797
 1 -1.90362075507551 -6.22383747944794  2.39051238533853
 1 -1.82723116951695 -4.57407089098910  3.20053449604961
 1 -3.11150416681668 -5.82429752135214  3.44375125072507
 1  2.47329123662366 -1.76713435693569 -1.99652081908191
 1  2.55053994849485  0.08406082528253 -1.94278204540454
 1  4.25143791549155 -1.28203051735174  0.21509941294129
 1  5.17719954915492  2.18873138213821 -2.08612333213321
 1  5.55739235643564  0.91984794729473 -3.12707410901090
 1  3.80471058925893  1.36962814961496 -2.63687451255125
 1  6.47246526272627  1.42711883688369  0.00359016791679
 1  6.15361340604060 -0.32229211881188  0.65755346274627
 1  7.25231201610161 -1.34783150775077 -1.42568332793279
 1  7.73695323782378  0.30313233383338 -1.88684351335134
 1  8.88047353475347  0.69166800810081  0.34119426772677
 1  8.60797386018602 -1.25777992949295  0.69997280968097
 1  10.01547421602160 -0.36866430973097 -1.81143571857186
 1  9.42962327852785 -2.61392008520852 -2.18997754555456
 1  11.18702373347335 -2.69479107890789 -1.83907451235123
 1  9.77076209630963 -3.00952263786379 -0.47622589188919
 1  11.56605190259026  0.45300408050805  0.40345893109311
 1  11.26306226972697 -0.95475071157116  1.10800073027303
 1  12.99711442204220 -1.73476504770477 -1.02982619561956
 1  12.67758591079108  0.02329225022502 -1.42420395409541
 1  13.79217037193719  0.71571128192819  0.54166707760776
 1  13.77395162216222 -0.83192962076208  1.25209205510551
 1  15.30520286448645  0.30187139323932 -1.35009702300230
 1  14.82583813671367 -2.08487106890689 -1.33984331753175
 1  16.71901577507751 -1.68669270587059 -1.13832961686169
 1  15.89361464026403 -2.34601973457346  0.20422969436944
 1  15.90635090829083  1.51976854715472  0.93826428542854
 1  16.04789944674468 -0.18212758945895  1.49270269286929
 1  18.41270249194919 -0.39203341384138 -0.03592346014601
 1  17.75866045164516  0.67696958525853 -1.12480091259126
 1  18.27044173367337  2.35428182408241  0.89030442014201
 1  18.64565681988199  0.95711152065207  1.81601875187519
 1  20.46654298669867  0.68379634063406  0.02417357355736
 1  19.32012936953695  3.39176744684469 -1.03784568696870
 1  20.91511875557556  2.38442651235124 -1.39727283388339
 1  19.22200717371737  1.93026864856486 -1.86952913441344
 1  20.95986122262226  1.69070053805381  2.32100313691369
 1  22.08720157735774  2.57211723912391  1.05694985208521
 1  20.69044867426743  3.44115731533153  1.52434117201720
 1 -7.11998383148315  1.61525039823982  0.62788463456346
 1 -7.61902345074507 -0.27592776877688 -0.15121524912491

