%nproc=3
%Mem=2GB
# td=(NStates=1) B3LYP/SVP 

TD

0 1
 6 -5.04683238133813 -1.90705694779478  0.24647952385239
 6 -4.71964228322832  2.75975242694269  1.28733511941194
 6 -9.37632754245424  3.31486228542854 -0.06548501640164
 6 -9.85696375087509 -1.44149495289529 -0.81049360276028
 7 -5.20118928122812  0.46461808470847  0.74400283728373
 6 -4.48902751885189 -0.66521324232423  0.67985142854285
 6 -3.09559924642464 -0.55347178187819  1.23669866566657
 6 -3.05927089248925  0.89037793009301  1.81151025682568
 6 -4.43578277137714  1.38582840074007  1.29480307730773
 6 -3.07893646214621  0.98834634693469  3.33131099369937
 6 -2.10204227492749 -0.79428939063906  0.07958590419042
 6 -0.71503471567157 -0.79914813141314  0.57964041674167
 6  0.37220088148815 -1.09778665156516 -0.66455801340134
 8 -0.05544377677768 -1.29284165076508 -1.76012962446245
 8  1.64301449854985 -1.01870864396440 -0.22073451615162
 7 -7.04572916751675  2.75813308510851  0.57719722892289
 6 -5.89979155455546  3.37050146844684  0.95689654655466
 6 -6.09935312101210  4.81819825932593  0.95303179597960
 6 -7.43740283708371  4.95616445194519  0.45793232063206
 6 -8.01450239613962  3.67478597229723  0.28150830623062
 6 -5.14073458995900  5.90598611371137  1.32859412541254
 6 -8.08401568426843  6.26153016461646  0.24591309260926
 6 -9.11767966616662  6.60075979787979 -0.58062054085409
 7 -9.19179738033803  0.84304153715372 -0.39492196059606
 6 -9.87549141204120  2.10210270897090 -0.34304357355736
 6 -11.33169703620362  1.83604716571657 -0.74295812971297
 6 -11.53831778227823  0.48774611471147 -0.93599855455546
 6 -10.18950117581758 -0.10369032073207 -0.67539078157816
 6 -12.32364086498650  2.91519002060206 -0.91176426672667
 6 -12.64619235873587 -0.20881336083608 -1.62131309100910
 6 -12.70741087178718 -0.47634089848985 -3.07688585988599
 7 -7.49923888148815 -1.30496218141814 -0.20497902640264
 6 -8.63510509800980 -2.02455118191819 -0.49832319471947
 6 -8.21816425542554 -3.40195707790779 -0.52466503380338
 6 -6.80445535463546 -3.40126695499550 -0.26838446234623
 6 -6.46090719411941 -2.01845466406641 -0.02126705050505
 6 -9.08749150675068 -4.61509225872587 -0.85902489688969
 6 -5.65076202140214 -4.25728076317632 -0.06178523292329
 8 -5.74064355455546 -5.53774330443044  0.11428416251625
 6 -4.43211083968397 -3.32135289688969  0.32189125122512
 6 -3.94162796069607 -3.73869796329633  1.64981150685068
 8 -4.15361043454345 -3.36385431933193  2.76866493459346
 8 -2.86246493409341 -4.65127009990999  1.41663209110911
 6 -2.17920262406241 -5.25082452855286  2.55448758835884
 6  2.58336050465047 -1.15142904050405 -1.26159018481848
 6  3.89938318511851 -0.76144664706471 -0.73128522862286
 6  5.00532278887889 -0.20917986308631 -1.35441939853985
 6  4.82555175087509  0.45562629432943 -2.70401751855186
 6  6.24562630783078  0.10686842604260 -0.56447536173617
 6  7.55309655005501 -0.52309849274928 -1.17612447934793
 6  8.74578617971797 -0.22548653375338 -0.29931827932793
 6  10.16908783448345 -0.73993832043204 -0.94099145394539
 6  10.25575161376138 -2.28639244214421 -1.14566385128513
 6  11.35871972217222 -0.09014332903290 -0.02180273597360
 6  12.58219989418942 -0.48501381858186 -0.51387591069107
 6  13.76365495489549  0.07709048284828  0.31065312081208
 6  15.17484639643964 -0.08644952645265 -0.23589714761476
 6  15.64220379217922 -1.66154501990199 -0.42536130443044
 6  16.26088683298330  0.67203172047205  0.60076909920992
 6  17.57996288508851  0.69186210391039 -0.05104900630063
 6  18.51488241254125  1.59483381228123  0.79125994219422
 6  20.14200610221022  1.65264306890689  0.32454418191819
 6  20.40033073197320  2.03936051215122 -1.15893397119712
 6  20.76592911421142  2.60527186598660  1.37476926512651
 1 -4.02604026432643  3.39092032403240  1.62689757065707
 1 -9.98831668476848  4.19656689878988 -0.12993431613161
 1 -10.77176143254325 -2.08381553705371 -0.99160863396340
 1 -2.88748107510751 -1.25780501570157  2.06005688138814
 1 -2.13968528302830  1.24667489068907  1.33210612281228
 1 -1.99355961396140  0.76251261966197  3.75200430443044
 1 -3.04046953885388  1.87706275597560  3.75549574477448
 1 -3.78345794269427  0.17836302080208  3.76251142734273
 1 -2.43330883928393 -1.82112684578458 -0.26580102730273
 1 -2.24471781118112  0.11063725472547 -0.67606430063006
 1 -0.39472529232923 -0.00814696109611  1.35118547984798
 1 -0.37004734403440 -1.73184514311431  1.26047355575558
 1 -4.23367818431843  5.70142451055106  0.80302310211021
 1 -5.50022522892289  7.03797871257126  1.33957325192519
 1 -4.99013710051005  5.51836988098810  2.60136427042704
 1 -7.67658266766677  7.22373224772477  0.93561511541154
 1 -9.50843619551955  5.79816997749775 -1.29982156825683
 1 -9.40547529412941  7.63752247974797 -0.59075929882988
 1 -12.46654101610161  3.28938812601260  0.06193838073807
 1 -11.90599444774477  3.66495045244524 -1.69021833863386
 1 -13.18474949774977  2.55513334903490 -1.32735709110911
 1 -12.69224159735974 -1.21518044474447 -1.01274602570257
 1 -13.59967699219922  0.00484463916392 -1.33148550735073
 1 -12.90973660356036  0.58301511461146 -3.58198554285429
 1 -11.81030599859986 -1.04684225782578 -3.46080503260326
 1 -13.53397015051505 -1.10062915771577 -3.34087162946295
 1 -10.02453900270027 -4.43633295309531 -0.32433473547355
 1 -9.38920289918992 -4.79501744774477 -2.00041693989399
 1 -8.64686986168617 -5.46955522252225 -0.49097705320532
 1 -3.79885173657366 -3.54975126532653 -0.42883423202320
 1 -1.51041143414341 -5.91284638033803  2.23177651175118
 1 -1.73399184558456 -4.53714719861986  3.21236567916792
 1 -3.16594961136114 -5.70959605120512  3.04500137573757
 1  2.43341724922492 -2.14152179567957 -1.74368553555356
 1  2.32243713821382 -0.54368194899490 -2.21452922012201
 1  4.30570334203420 -1.07770008430843  0.31364926792679
 1  5.35685751495149  1.53694620362036 -2.70981570137014
 1  5.27018363556356 -0.17512154965497 -3.29874127572757
 1  3.78966908510851  0.58006919371937 -2.93616444154415
 1  6.57185520172017  1.21103722872287 -0.50858104920492
 1  6.24964300900090 -0.22430231983198  0.37314502190219
 1  7.42119890479048 -1.70333705830583 -1.39669042864286
 1  7.95014455695570  0.00292231283128 -2.17380220922092
 1  8.84885037243724  0.90164900620062 -0.02210206190619
 1  8.61040410321032 -0.76499065056506  0.59270208260826
 1  10.32477514611461 -0.15834327762776 -2.01118569356936
 1  9.33101341754175 -2.45634432763276 -1.78594714251425
 1  11.23379841094109 -2.47512911271127 -1.37444804970497
 1  10.12033705380538 -2.68238992459246 -0.08410667996800
 1  11.24895019241924  1.07403618371837 -0.00848226302630
 1  11.25925188868887 -0.51751698819882  0.96321625182518
 1  12.58152286288629 -1.56913848504850 -0.55087830083008
 1  12.74060221242124 -0.14044412341234 -1.62503403710371
 1  13.58211936683668  1.09758946974697  0.70468337923792
 1  13.62123635063506 -0.45253168096810  1.33323016891689
 1  15.17321966616662  0.11027223332333 -1.37641965526553
 1  14.90222577547755 -2.37045962776278 -0.76156548974897
 1  16.47246111961196 -1.74525856245625 -1.08478426232623
 1  15.79817509630963 -1.88255338793879  0.75761503290329
 1  15.77189746294630  1.69351592189219  0.98718917791779
 1  16.60195485228523  0.08227885118512  1.63747717031703
 1  18.03817503920392 -0.37769197969797 -0.21564143194319
 1  17.54544913051305  0.98419030733073 -0.89548798129813
 1  18.25255994549455  2.66198259415942  0.68649403910391
 1  18.38906116031603  1.27267307680768  1.84921207120712
 1  20.45612194459446  0.61456941794179  0.36851800800080
 1  20.17894525112511  3.14421269136914 -1.32843474587459
 1  21.59183642734273  2.12792086178618 -1.35035814241424
 1  19.86114108710871  1.49995561726173 -1.89334151565157
 1  20.68484372087209  2.29368083608361  2.49202023862386
 1  21.75878873607361  2.46183621102110  1.08806296339634
 1  20.48901853125313  3.68075127472747  1.27075581348135
 1 -7.07829966306631  1.86939581278128  0.34447629372937
 1 -7.58237978637864 -0.21239141514151 -0.09440956855686

