%nproc=3
%Mem=2GB
# td=(NStates=1) B3LYP/SVP 

TD

0 1
 6 -5.06108380648065 -1.97034327642764  0.41082595849585
 6 -4.68961928092809  2.71496794849485  1.39824621052105
 6 -9.29436934663466  3.30853165236524 -0.19776824472447
 6 -9.75086314081408 -1.41266206960696 -0.98481103450345
 7 -5.25347450975098  0.40314193709371  0.74147258425843
 6 -4.53087170327033 -0.76253297429743  0.83997744114411
 6 -3.03614330083008 -0.56811324602460  1.26384137993799
 6 -3.07517248264826  0.86053494579458  1.89798890469047
 6 -4.39865905900590  1.33316313421342  1.30283388038804
 6 -3.01744031253125  0.90790830313031  3.44260212281228
 6 -2.14758682938294 -0.67470743244324  0.00081802740274
 6 -0.67732094429443 -0.80165838243824  0.41032348504850
 6  0.26462012341234 -1.00893776667667 -0.70358191579158
 8  0.00282204980498 -1.29168153475348 -1.79967357885789
 8  1.63294349144914 -0.75968274137414 -0.28930137283728
 7 -6.99632422702270  2.78007527932793  0.50608011721172
 6 -5.88591016641664  3.35445986428643  1.00739159605961
 6 -6.10444363006301  4.71893833333333  1.04909140194019
 6 -7.47340643744374  4.99020785628563  0.60107663506351
 6 -8.04647559345935  3.65150364406441  0.26952710811081
 6 -5.06098661516152  5.72909842494249  1.56619788578858
 6 -8.14183146584658  6.27596160776078  0.39499800110011
 6 -8.93169106730673  6.69821954385439 -0.54669714851485
 7 -9.19434763536353  0.94300153315332 -0.53501596999700
 6 -9.81793565646565  2.01055355405541 -0.60988025722572
 6 -11.20211407790779  1.90115367636764 -0.92742657655766
 6 -11.39043299379938  0.58095543564356 -1.07304225892589
 6 -10.09509173487349 -0.02171212291229 -0.80765400790079
 6 -12.22298079897990  3.00281878347835 -1.10211330163016
 6 -12.63148088758876 -0.16489896939694 -1.52619357905791
 6 -12.75450558125813 -0.59058232263226 -2.97565573687369
 7 -7.45640459805981 -1.26096778197820 -0.18539706820682
 6 -8.54717630513051 -2.01286001280128 -0.71315467786779
 6 -8.09274171317132 -3.37540442264226 -0.67462002930293
 6 -6.76224113321332 -3.38707553585359 -0.44270189408941
 6 -6.39889099249925 -2.08168098669867 -0.00784570837084
 6 -8.93950670827083 -4.54578532803280 -0.91449044344434
 6 -5.67111405660566 -4.31954698979898 -0.00663971837184
 8 -5.70394988518852 -5.56680621072107 -0.15556282218222
 6 -4.54511213981398 -3.44896565816582  0.39136819891989
 6 -3.97234103200320 -3.93955804930493  1.78165469116912
 8 -4.26376144964496 -3.47878581248125  2.86434450255026
 8 -3.16169485708571 -4.97910288318832  1.49804023192319
 6 -2.48162286608661 -5.50791023712371  2.57981012061206
 6  2.60836300490049 -1.04351824942494 -1.08381240704070
 6  3.87948119491949 -0.61472197459746 -0.62076417651765
 6  4.94917717431743  0.08805986088609 -1.23365732233223
 6  4.85422461816182  0.46235696739674 -2.69644676147615
 6  6.24835658085809  0.40351809100910 -0.51259017321732
 6  7.45466670707071 -0.42180836373637 -0.93671053795380
 6  8.74499610071007 -0.03596758185819 -0.19068741624162
 6  10.02760368606861 -0.75458978557856 -0.63750110491049
 6  9.96918295689569 -2.35897970087009 -0.47360664556456
 6  11.27370122032203 -0.16705101980198  0.16901634593459
 6  12.62507418161816 -0.61536685388539 -0.41852637573757
 6  13.86063465286529  0.15562833663366  0.30366242174217
 6  15.24547345914591 -0.18521940344034 -0.28709226712671
 6  15.63692326412641 -1.71788065346535 -0.05546431473147
 6  16.20467121142114  0.76705122242224  0.38407743004300
 6  17.65616050485049  0.65389830753075 -0.08467236863686
 6  18.55564648894890  1.75774010291029  0.51438225442544
 6  19.99450135173517  1.68062586718672  0.06102783028303
 6  20.20713141204120  1.97653422952295 -1.42971104890489
 6  20.94617713901390  2.59817115591559  0.84885667386739
 1 -4.02396005630563  3.34135536753675  1.74720960186019
 1 -10.02772062516252  4.13430067216722 -0.27070839353935
 1 -10.77329158555855 -1.92764992049205 -1.20255972907291
 1 -2.84462678967897 -1.33168240344034  1.84239511521152
 1 -2.27970928542854  1.60029025222522  1.67282019421942
 1 -2.10296055405541  0.32357872627263  3.80588969296930
 1 -3.02314780668067  1.94424947464747  3.89161935713571
 1 -3.77002659955996  0.10338552305231  3.80118529472947
 1 -2.38696420482048 -1.57690242334233 -0.49499394659466
 1 -2.40932427182718  0.21835802680268 -0.65571226542654
 1 -0.39950577037704  0.04248810241024  1.12356271757176
 1 -0.59269960926093 -1.75065702430243  1.09754726312631
 1 -3.93896871337134  5.56265063316332  0.87203000280028
 1 -5.41266647304731  6.92002691739174  1.17431672627263
 1 -4.81138922572257  5.59150719471947  2.61637577157716
 1 -7.97244225362536  7.11572144664466  1.06109766366637
 1 -9.31938729062906  6.02899305980598 -1.51581316741674
 1 -9.29072381898190  7.68813754125413 -0.31911213411341
 1 -12.42182654465447  3.58258744594459 -0.02887070017002
 1 -11.95627947624762  3.87298125552555 -1.73134245104511
 1 -13.12480350315031  2.53532136783678 -1.43077743314331
 1 -12.85658803200320 -1.11180010671067 -0.97601235233523
 1 -13.48598562306231  0.77712186688669 -1.45535789458946
 1 -12.71304693459346  0.16247306040604 -3.62713005730573
 1 -12.05543051105110 -1.34477205080508 -3.39189814191419
 1 -13.85817257075708 -0.99878897369737 -3.17799534183418
 1 -9.68230477927793 -4.71525084488449 -0.28869117111711
 1 -9.49115309420942 -4.70121806780678 -1.80251714991499
 1 -8.24170934563456 -5.35851411841184 -1.16232418791879
 1 -3.76939879127913 -3.51338762896290 -0.45558690729073
 1 -1.84373476647665 -6.29090418611861  2.31395472957296
 1 -1.99438788518852 -4.80642412631263  3.49342378497850
 1 -3.10821383778378 -5.99632472407241  3.52226910251025
 1  2.83265717321732 -2.16199384288429 -1.20327149414942
 1  2.42069696419642 -0.65438301910191 -2.20512828002800
 1  3.98012078377838 -0.93891620592059  0.37057496049605
 1  5.17742957215722  1.49841235023502 -2.90730545034503
 1  5.53385000220022 -0.10946498399840 -3.17707910951095
 1  3.99926004420442  0.28418960576058 -3.15805663076308
 1  6.38700671687169  1.68556468146815 -0.64047423852385
 1  6.06720476517652  0.13779388978898  0.57428513591359
 1  7.49946673157316 -1.49108583318332 -1.02103286288629
 1  7.58506804930493 -0.13043102250225 -2.00361519051905
 1  8.76676216361636  1.11187002830283 -0.34968482018202
 1  8.63291635443544 -0.22641679317932  0.78258107050705
 1  10.22928559715972 -0.62029947324732 -1.75145972097210
 1  8.92733304950495 -2.69988868206821 -0.92327087488749
 1  10.65036006710671 -2.73135473527353 -0.95869647454745
 1  9.98593361346135 -2.74849653525352  0.66174790549055
 1  11.32280757815782  0.91363014311431 -0.12323373817382
 1  11.21483744724473 -0.49203443994400  1.25618554875487
 1  12.76689139973997 -1.65812738393839 -0.41048426142614
 1  12.71733988618862 -0.50579065806581 -1.62684421812181
 1  13.68887004190419  1.03801351215121  0.19087199809981
 1  14.00985521252125 -0.06960338813881  1.42498934483448
 1  15.28909125332533  0.08045925202520 -1.53823583688369
 1  14.91564711761176 -2.23039562136214 -0.52910224342434
 1  16.59523339683969 -1.98685272187219 -0.55283106700670
 1  15.82743802260226 -1.76334146674667  1.25180445184518
 1  15.89808008120812  1.76003257355736  0.17478793779378
 1  16.39200385718572  0.62114273757376  1.46183960656066
 1  18.03991521322132 -0.42981719221922  0.10899103130313
 1  17.79834442004200  0.82247413571357 -1.20689912241224
 1  18.20670536003600  2.85021141704170  0.34166955665567
 1  18.50587284148415  1.64621043054305  1.60251740174017
 1  20.32161849424942  0.83333129412941  0.25778693489349
 1  20.03379073567357  3.03966223632363 -1.70791269366937
 1  21.15031227492749  1.96561463116312 -1.67805091169117
 1  19.58524349734973  1.25693131483148 -2.08462064356436
 1  20.67656289278928  2.19199066706671  1.85564660126013
 1  22.07584044124413  2.21060108750875  0.54078823592359
 1  20.74893452285228  3.68049124872487  0.73832257015702
 1 -7.15958779187919  1.79798867206721  0.42608445454545
 1 -7.55030657905790 -0.32551272727273 -0.12954308190819

