%nproc=3
%Mem=2GB
# td=(NStates=1) B3LYP/SVP 

TD

0 1
 6 -5.13011070917092 -1.93340958305831  0.36677155305531
 6 -4.85052537153715  2.65661211291129  1.59222560846085
 6 -9.20477038673867  3.42192299149915 -0.20689915781578
 6 -9.88806686118612 -1.42073287668767 -1.09414196759676
 7 -5.16356551885189  0.40367199009901  0.81181961896190
 6 -4.47335595169517 -0.79033575457546  0.73044648804880
 6 -3.08029771627163 -0.72592902760276  1.32475747154715
 6 -3.07869283468347  0.79124801710171  1.87806691249125
 6 -4.42841203430343  1.30807062496250  1.40497409440944
 6 -2.77933650215022  0.84313182548255  3.42768063066307
 6 -2.09585165586559 -0.78805876757676  0.11983992959296
 6 -0.60542375457546 -0.90698891549155  0.67910036273627
 6  0.34163782518252 -1.27678455135514 -0.43637519511951
 8  0.11114288188819 -2.02278464506451 -1.47659127062706
 8  1.63582377947795 -0.78359513261326 -0.13599604230423
 7 -7.07848244284428  2.76705397719772  0.59328883808381
 6 -5.89708128352835  3.41363578187819  1.20131098799880
 6 -6.16151933763376  4.79597603710371  1.10262675547555
 6 -7.48357745454545  5.05002383788379  0.48690521792179
 6 -7.92619356525653  3.74606310001000  0.27293744914491
 6 -5.16532704920492  5.78740425552555  1.61008227422742
 6 -8.05248253095309  6.33435744734473  0.32227072837284
 6 -9.08054595279528  6.76562628452845 -0.48898137693769
 7 -9.17054525512551  0.93420065306531 -0.61028349674968
 6 -9.69245310821082  2.15420791949195 -0.66546581578158
 6 -11.22931679817982  2.02344590559056 -0.94517835173517
 6 -11.37590154065406  0.69404674477448 -1.24255921062106
 6 -10.16373859955996 -0.08431838353835 -1.00937417991799
 6 -12.23650215111511  3.10467896949695 -1.22640573087309
 6 -12.67524526402640 -0.09935241474147 -1.69833079277928
 6 -12.69497962866287 -0.38438170257026 -3.31425959725973
 7 -7.51730068766877 -1.23531521672167 -0.29648817731773
 6 -8.67535912341234 -1.95027375417542 -0.66605996839684
 6 -8.30483292229223 -3.35881276347635 -0.74294686198620
 6 -6.98092300140014 -3.36114294259426 -0.30792841674167
 6 -6.54303540694069 -2.02072489108911 -0.06349127292729
 6 -9.15432819041904 -4.51973272277228 -1.11172016641664
 6 -5.88796574177418 -4.29112414751475 -0.03209226362636
 8 -5.81850134033403 -5.56321585168517 -0.16036330223022
 6 -4.60403803240324 -3.40639140074007  0.45096415851585
 6 -3.92398619651965 -3.84357845134513  1.76640316601660
 8 -4.24370944444444 -3.43790172407241  2.85753382148215
 8 -3.04666335393539 -4.81135610851085  1.48681910981098
 6 -2.41892659645965 -5.40235968206821  2.71143328292829
 6  2.67792996159616 -1.18374227182718 -1.05137916371637
 6  3.93636688348835 -0.76971747414742 -0.44103620372037
 6  4.96598885548555 -0.09164810991099 -1.00460441704170
 6  4.90267946364636  0.50308103980398 -2.44297141394139
 6  6.20753249844984  0.21408914811481 -0.25807472167217
 6  7.43128436883688 -0.59953613651365 -0.76540340724072
 6  8.79326092719272 -0.33366735183518  0.00040169266927
 6  10.12305323102310 -0.81480580718072 -0.64704205900590
 6  10.28015405400540 -2.30635443834383 -0.73510279517952
 6  11.31292514271427 -0.21663597829783  0.06172561686169
 6  12.65918759295930 -0.70133545074507 -0.41463598669867
 6  13.85051364076408  0.10299307310731  0.07493954945495
 6  15.15959487128713 -0.17462834433443 -0.49463302120212
 6  15.60963053485349 -1.61793065846585 -0.27758652695270
 6  16.26546729102910  0.75071958925893  0.20373939623962
 6  17.75347023582358  0.73836675437544 -0.23156705810581
 6  18.62942386668667  1.93454778367837  0.48312912911291
 6  20.00887278887889  1.91574937953795 -0.05392366486649
 6  20.24096479537954  2.33611018711871 -1.45330340814081
 6  20.83266578787879  2.82372371117112  0.89645143334333
 1 -4.08609626992699  3.13153438543854  2.04110899179918
 1 -9.95505335843584  4.29973721582158 -0.31778310101010
 1 -10.83133739013901 -1.87234438993899 -1.49968944204420
 1 -2.89978230523052 -1.42890212541254  2.06579745544554
 1 -2.31551286578658  1.46093631683168  1.50589350155016
 1 -1.85909616761676  0.36731309970997  3.76503560756076
 1 -2.99590508240824  1.90903595329533  3.76641683688369
 1 -3.51028062496250  0.40765595009501  4.07584276047605
 1 -2.20273578197820 -1.77943267636764 -0.45878032523252
 1 -2.40859419881988 -0.14419822882288 -0.64540123432343
 1 -0.19725554535453 -0.00033618001800  1.16713707500750
 1 -0.64354469376938 -1.67451941054105  1.45442295069507
 1 -4.29772458895890  5.88980334843484  0.92574537433743
 1 -5.74051925832583  6.85765067976798  2.18655795039504
 1 -4.79392747954795  5.35189323332333  2.46108024202420
 1 -7.57512252165217  7.20688056255625  0.82356391029103
 1 -9.57269262116212  6.13166332683268 -1.40506209230923
 1 -9.42898764536454  7.89581830933093 -0.32918314121412
 1 -12.32912727472747  3.60705989318932 -0.26037385048505
 1 -11.89160300860086  3.77671162856286 -2.02516183298330
 1 -13.17423844664466  2.63455129082908 -1.45398975437544
 1 -12.70284265746575 -1.22597152385239 -1.23436818791879
 1 -13.30557758225823  0.58831298599860 -1.42661502030203
 1 -12.62531816171617  0.47854466756676 -3.82015936023602
 1 -11.67775274327433 -1.01668924252425 -3.60608956105611
 1 -13.61632838633864 -1.08997809260926 -3.35860340264026
 1 -10.00771732053205 -4.54555387518752 -0.42077437943794
 1 -9.37007098599860 -4.34178212421242 -2.24164106230623
 1 -8.54537971267127 -5.41385965296530 -1.04674262976298
 1 -3.89590144154415 -3.69041533173317 -0.42814416301630
 1 -1.89004939793979 -6.17723281898190  2.18904223832383
 1 -1.81565001140114 -4.64162764666467  3.12275671827183
 1 -3.31245426182618 -5.63046813841384  3.45707258285829
 1  2.67022092959296 -2.25683332683268 -1.19627079407941
 1  2.57664255875588 -0.92455003580358 -2.00186795399540
 1  4.26699947164716 -1.27439975427543  0.54116201920192
 1  5.23226505570557  1.67742025102510 -2.63184790459046
 1  5.47583420062006 -0.06795083258326 -3.23534493609361
 1  3.89505962416242  0.35842702950295 -3.03851467656766
 1  6.60258827502750  1.21593771877188 -0.42664285538554
 1  6.16704474917492  0.01539164956496  0.89563727112711
 1  7.26920370527053 -1.73974069866987 -0.98538929852985
 1  7.79425896839684 -0.37419539893989 -1.83565839483948
 1  8.77545303270327  0.63951279257926 -0.18189804150415
 1  8.74129719251925 -0.59690384188419  1.06640945334533
 1  10.17838050665067 -0.31912935623562 -1.61602617761776
 1  9.14464478067807 -2.88755744894489 -0.97785633343334
 1  10.97377240834083 -2.80738233803380 -1.53218382328233
 1  10.50435545564557 -2.63363504910491  0.50893262396240
 1  11.17849314671467  0.83467224732473  0.03598218341834
 1  11.46413237673768 -0.52617785428543  1.16378630883088
 1  12.69128383898390 -1.98735030623062 -0.15275848884888
 1  12.96389454165416 -0.68257833683368 -1.54355588928893
 1  13.74600575547555  1.13957366816682  0.03213612451245
 1  13.68372259925992 -0.19715614341434  1.12612945884588
 1  15.41042338653865 -0.00937973187319 -1.49867188048805
 1  14.81846739963996 -2.47823040484048 -0.65192452565257
 1  16.54670854435443 -1.84633867046705 -0.69496528042804
 1  15.70036531533153 -2.06018115071507  0.92994226562656
 1  15.99261953515352  1.89516608690869  0.14766522552255
 1  16.28128278507851  0.55873649694970  1.30733415601560
 1  18.32232345404540 -0.34841905240524  0.03069320152015
 1  17.87627221282128  0.82632452075208 -1.39069750225023
 1  18.13210790029003  2.93151954785478  0.12591798149815
 1  18.72281453565357  1.97377318681868  1.63975112511251
 1  20.40608694109411  1.02785074607461 -0.01963080688069
 1  19.39382673927393  3.20546881698170 -1.74101600400040
 1  21.32549979367937  2.65109317901790 -1.68692179877988
 1  20.09107408040804  1.51638726042604 -2.29882206370637
 1  20.68639387588759  2.55972744074407  1.92679371597160
 1  21.80735359255926  2.62488251565156  0.63889804690469
 1  20.77503713311331  3.83576677627763  0.59141787968797
 1 -7.09522135523552  1.77126599979998  0.29816166226623
 1 -7.56489803820382 -0.30685086108611 -0.27662779037904

