%nproc=3
%Mem=2GB
# td=(NStates=1) B3LYP/SVP 

TD

0 1
 6 -5.06221391949195 -1.93646988908891  0.39895477137714
 6 -4.76347666666667  2.76689314101410  1.36295268116812
 6 -9.39641955165516  3.35621642084208 -0.21217968586859
 6 -9.78652670717072 -1.39253005640564 -0.87756030943094
 7 -5.15930509280928  0.46517814071407  0.82088052505251
 6 -4.48142675877588 -0.71442816381638  0.83160660406041
 6 -3.05930561706171 -0.59582601730173  1.12141713751375
 6 -2.96830179557956  0.95450434273427  1.66099520532053
 6 -4.41050024312431  1.42256207410741  1.32135573257326
 6 -2.66267483598360  1.06947445974597  3.14561242384238
 6 -2.10437250795079 -0.75918588028803 -0.07667972237224
 6 -0.65975918811881 -0.89009722632263  0.44180663336334
 6  0.38087174857486 -1.20391726462646 -0.66003756135614
 8  0.08690045764576 -1.68363072967297 -1.72802641414141
 8  1.65160535763576 -0.74525129822982 -0.31979442214221
 7 -7.08859345394539  2.81168844064406  0.43122263146315
 6 -6.04128570397040  3.39212363066307  0.90940179707971
 6 -6.24077726342634  4.73629006850685  1.02110860366037
 6 -7.54875397219722  4.92313114861486  0.57952447984798
 6 -8.11605255115512  3.67437593129313  0.19177933333333
 6 -5.31033154965497  5.91165668076808  1.57358862486249
 6 -8.21407869056906  6.23166717831783  0.50430893219322
 6 -9.06351424962496  6.67558728062806 -0.43599607840784
 7 -9.17151535213521  0.91629886288629 -0.44705717411741
 6 -9.92630649354935  2.05421792049205 -0.48550781998200
 6 -11.30083394989499  1.85090865186519 -0.83317715161516
 6 -11.45194914541454  0.46321366146615 -1.13289824452445
 6 -10.13635586128613 -0.01718166986699 -0.82976621912191
 6 -12.39960846174617  2.85069357095710 -0.93152624292429
 6 -12.64264200370037 -0.36471895139514 -1.60734169386939
 6 -12.85903603430343 -0.41326459085909 -3.16456462776278
 7 -7.48299725732573 -1.26476816201620 -0.14211273977398
 6 -8.54235582308231 -1.96889561636164 -0.58934229662966
 6 -8.16440887988799 -3.32580946314632 -0.61606417371737
 6 -6.84299920902090 -3.34894172247225 -0.29703732763276
 6 -6.48865996939694 -2.07485030363036  0.07667274347435
 6 -9.08248100570057 -4.55676642614261 -1.15386438083808
 6 -5.56464340954095 -4.29470450555055 -0.02154120852085
 8 -5.57596708690869 -5.53462299239924  0.03633636773677
 6 -4.46567419601960 -3.26595735733573  0.31800086218622
 6 -3.83042684058406 -3.86500059355936  1.73409993569357
 8 -3.97500257375738 -3.29608754265427  2.82187025512551
 8 -3.16320500810081 -5.02816778967897  1.53310373827383
 6 -2.68269297309731 -5.64978442454245  2.70098223782378
 6  2.72552472107211 -1.08874277187719 -1.14568859465947
 6  4.09426267306731 -0.50554105650565 -0.67011911201120
 6  5.02453471007101  0.16824787968797 -1.23986794339434
 6  4.79697889358936  0.62254298599860 -2.70833795059506
 6  6.26599834503450  0.52227996719672 -0.50651956615662
 6  7.56972821322132 -0.24529071197120 -1.09318618551855
 6  8.81467306840684 -0.03538752385239 -0.22870121762176
 6  10.07179810551055 -0.76765109170917 -0.64486184098410
 6  9.95314135273527 -2.38783258615862 -0.46049533443344
 6  11.25650950115012 -0.23813812851285  0.21891133543354
 6  12.61077275147515 -0.57303262046205 -0.48932345544554
 6  13.89311790119012  0.06447922172217  0.21585364086409
 6  15.22065097689769 -0.29132001350135 -0.28928248614861
 6  15.59782935473547 -1.84558342374237 -0.21083985228523
 6  16.27124786908691  0.63929844714471  0.42045106740674
 6  17.73708859765977  0.51645456315632 -0.06530043144314
 6  18.60588151245124  1.58022235113511  0.65781659785979
 6  20.06029793139314  1.66263406800680  0.11882360986099
 6  20.10829152805281  2.18250482658266 -1.28995707350735
 6  20.96174869616962  2.58657999679968  0.98076986518652
 1 -3.93782144244424  3.55225645764576  1.41510639153915
 1 -10.09830768386839  4.04312155425543 -0.18639996269627
 1 -10.65206946334633 -2.22787994349435 -0.96043551665166
 1 -2.61051337833783 -1.18611784698470  2.04928580428043
 1 -2.10675198969897  1.50909113231323  1.12853576577658
 1 -1.40133039103910  0.87022339073907  3.23836294029403
 1 -2.69493498539854  2.06382143184318  3.49521971717172
 1 -3.36459605650565  0.26902208670867  4.09297447364736
 1 -2.18851435983598 -1.54343907700770 -0.60105455265527
 1 -2.10708404780478  0.10821701270127 -0.72619931413141
 1 -0.24736055585559 -0.04867101350135  0.87484784608461
 1 -0.52586292559256 -1.82989494809481  1.14524203260326
 1 -4.33374819131913  5.65049941804180  1.04352715251525
 1 -5.72654786118612  6.99577449214922  1.02424171877188
 1 -5.16761484828483  5.96745478947895  2.75754988898890
 1 -8.18289329872987  6.82866274077408  1.45891744564456
 1 -9.24194954685468  5.89731989248925 -1.27608919501950
 1 -9.58013275987599  7.65557428492849 -0.40444066696670
 1 -12.26743110511051  3.46178536573657 -0.01234904800480
 1 -12.49110295859586  3.56387034443444 -1.95506482328233
 1 -13.58609963276328  2.52389022472247 -0.82814717011701
 1 -12.46224859805981 -1.09389831653165 -0.95066981808181
 1 -13.71913893839384  0.14856901160116 -1.05894825362536
 1 -13.07558318821882  0.59405621872187 -3.56819416371637
 1 -11.94140910891089 -0.72285985958596 -3.55757470957096
 1 -13.45295204870487 -1.28716781158116 -3.40166770907091
 1 -10.05959250805081 -4.55566488628863 -0.66238854085409
 1 -9.38778275717572 -4.42974092009201 -2.06277317551755
 1 -8.55712088678868 -5.33431169816982 -0.80568852435243
 1 -3.52103395479548 -3.20244653485349 -0.26920826942694
 1 -1.90352074507451 -6.30474557025703  2.40590392449245
 1 -2.24111255765577 -4.93967745164516  3.56794123672367
 1 -3.38575159155916 -6.16896198779878  3.17588446404640
 1  3.00107401490149 -2.24515215871587 -1.21486265326533
 1  2.38123301780178 -0.93561114191419 -2.26241400860086
 1  4.17594036573657 -0.83087540184018  0.42785068806881
 1  5.09578140734073  1.68401091009101 -2.76110082988299
 1  5.20803742094209 -0.01028506600660 -3.61795319691969
 1  3.56643676187619  0.62575376217622 -2.82627345244524
 1  6.40408842504250  1.65511163616362 -0.61637182828283
 1  6.00034807950795  0.17202731313131  0.55421312871287
 1  7.25018180308031 -1.37830455505551 -1.09109986958696
 1  7.71883142564256  0.01461348194819 -2.22984781378138
 1  9.26119160656066  1.07295613691369 -0.30941079277928
 1  8.63643670647065 -0.15358951045105  0.89506231863186
 1  10.25985865446545 -0.52964040734073 -1.74110868586859
 1  9.25594591079108 -2.86725541874188 -1.14341288908891
 1  11.03096812791279 -3.06057765756576 -0.65626623152315
 1  9.58517353745375 -2.50568225382538  0.77494922562256
 1  11.26773207060706  0.93339211931193  0.47807639283928
 1  11.25904186768677 -0.80260549704971  1.08765869606961
 1  12.69603431403140 -1.70267183838384 -0.72973618661866
 1  12.49977813001300 -0.19850992999300 -1.53508504220422
 1  13.87861901680168  1.15200491129113  0.20660357125713
 1  13.82310653765377 -0.12795922372237  1.34546139203920
 1  15.16735908010801  0.02891409750975 -1.29848186148615
 1  15.05823137603760 -2.39241182298230 -0.96320565376538
 1  16.67245111861186 -1.93466750335033 -0.60850663456346
 1  15.70770604940494 -2.27365249784979  0.72342161356136
 1  15.93440371357136  1.68556512681268  0.33114357335734
 1  16.04931958875888  0.48514913821382  1.59742316491649
 1  18.07787900960096 -0.52673688418842  0.15330546274627
 1  17.62919750535054  0.56329821812181 -1.21944037653765
 1  18.20162485198520  2.61479787568757  0.51789717941794
 1  18.71719397359736  1.24353016251625  1.68114526452645
 1  20.29056538893889  0.61003896489649  0.26964812101210
 1  19.47753511011101  3.10175844594459 -1.51939384178418
 1  21.13263050675068  2.33590165986599 -1.62946605320532
 1  19.59449442244224  1.42741836353635 -1.88531071257126
 1  20.82114735123512  2.28076954495450  2.08792982958296
 1  22.08430128732873  2.72518254565456  0.70876503360336
 1  20.76566619601960  3.58212141174117  0.98050678857886
 1 -6.97501933503350  1.83967284048405  0.50735258135814
 1 -7.67338888728873 -0.29161933793379 -0.06602673027303

