%nproc=3
%Mem=2GB
# td=(NStates=1) B3LYP/SVP 

TD

0 1
 6 -5.17425512361236 -1.91891813391339  0.48954383028303
 6 -4.62536285528553  2.77346379807981  1.21280766666667
 6 -9.30860076977698  3.30219101830183 -0.15699416731673
 6 -9.80124817931793 -1.38760956435644 -0.88819137253725
 7 -5.12952211451145  0.44632625552555  0.85288372537254
 6 -4.55323393949395 -0.74674139513951  0.77629107250725
 6 -3.01970165666567 -0.61527796249625  1.20247524332433
 6 -2.97362232763276  0.89225811811181  1.76564567036704
 6 -4.39310850395039  1.42751256915692  1.27264086108611
 6 -2.84333290179018  0.97368488078808  3.26921478407841
 6 -2.09120119081908 -0.86025598729873  0.03086103170317
 6 -0.61958517071707 -0.83112132873287  0.54878733143314
 6  0.33350701210121 -1.11874874777478 -0.61688324592459
 8  0.09255102270227 -1.52891525812581 -1.79437304880488
 8  1.66199639673967 -0.86316308940894 -0.25702814551455
 7 -7.03189778437844  2.73524079587959  0.39558906810681
 6 -5.89842141754175  3.42704712301230  0.92491334823482
 6 -6.18863204890489  4.75611205070507  1.04372086488649
 6 -7.52908200500050  4.97552638813881  0.67530405780578
 6 -8.05258620452045  3.61504999869987  0.21879203460346
 6 -5.25857637413741  5.84504001910191  1.56082734873487
 6 -8.23415069776978  6.22867687928793  0.55420392169217
 6 -9.04168206640664  6.62146186808681 -0.47019949874987
 7 -9.08823702430243  0.91937917091709 -0.51755422382238
 6 -9.86359022192219  1.99532203090309 -0.54389365856586
 6 -11.18398226472647  1.94869843084308 -0.88222205610561
 6 -11.31780573107311  0.57874521462146 -1.10542549724973
 6 -10.07859008470847 -0.03509346104610 -0.82407565006501
 6 -12.15423392429243  3.00366886848685 -1.10147323762376
 6 -12.55534327382738 -0.14158663816382 -1.58795975567557
 6 -12.63050318101810 -0.50278354275428 -3.14274244554455
 7 -7.51375033263326 -1.25284696989699 -0.11592012051205
 6 -8.67238882638264 -1.99830855765577 -0.51169453185319
 6 -8.14217665666567 -3.35422230443044 -0.55936850415042
 6 -6.90099500860086 -3.38246507480748 -0.07567519141914
 6 -6.50539164256426 -2.06531935053505  0.15829090529053
 6 -9.03539629722972 -4.52694344384438 -1.00950994539454
 6 -5.73904084928493 -4.28813384848485  0.13721466706671
 8 -5.60734022422242 -5.44137366746675  0.13646638073807
 6 -4.58378600720072 -3.39619038063806  0.47563662576258
 6 -3.85553935183518 -3.79555364886489  1.75061158685869
 8 -4.11657673117312 -3.24078201210121  2.83314138223822
 8 -3.10794948254825 -4.89251422432243  1.53921434933493
 6 -2.46037074087409 -5.38382782888289  2.62279441904190
 6  2.59655182378238 -1.01785568316832 -1.30359438523852
 6  3.92227547434743 -0.80385088748875 -0.77958005810581
 6  4.89695195179518 -0.04406335143514 -1.32963692029203
 6  4.87275647134713  0.52823355505551 -2.74183129992999
 6  6.26924867006701  0.20693843304330 -0.69858877307731
 6  7.50906214661466 -0.43650983388339 -1.25086195309531
 6  8.78764036513651 -0.26892087718772 -0.34979332683268
 6  10.14424535023502 -0.80516484308431 -0.97337469226923
 6  10.07427346594659 -2.32911671457146 -1.29397868276828
 6  11.25774962516252 -0.47002131683168 -0.00246080178018
 6  12.62992466666667 -0.73017833503350 -0.54515903900390
 6  13.77250583998400 -0.05977320352035  0.31440349584958
 6  15.28717762956296 -0.30247112861286 -0.32270582848285
 6  15.62167173897390 -1.71894075947595 -0.09781855015502
 6  16.22688343264327  0.53008752605261  0.56061508380838
 6  17.67113200200020  0.57248016571657 -0.03546744814481
 6  18.42926385068507  1.79072340124012  0.66187700390039
 6  19.96574847644764  1.92273007760776  0.21481320882088
 6  20.13270396929693  2.40803737983798 -1.11699977777778
 6  20.67203972527253  2.79260059885989  1.40605239343934
 1 -3.83707136743674  3.57492872487249  1.45213009390939
 1 -10.02561041414141  4.16370361246125 -0.29085040774077
 1 -10.68855311171117 -2.05810296579658 -1.13935340844084
 1 -2.92524485148515 -1.18801803700370  1.87192806850685
 1 -2.23087440194019  1.35444566776678  1.25891880408041
 1 -2.00783104110411  0.57616398479848  3.58944804880488
 1 -3.02576806870687  2.06867191689169  3.65163535873587
 1 -3.80841043794379  0.40749593409341  3.81780695689569
 1 -2.21514702310231 -1.89158389148915 -0.41484593179318
 1 -2.26288962836284  0.14239043004300 -0.67037373157316
 1 -0.41766758655866  0.13047690129013  1.06668703000300
 1 -0.39030937023702 -1.49969192779278  1.42093960236024
 1 -4.73876869336934  5.97393176127613  0.53855665546555
 1 -5.94395960236024  6.69103401810181  1.87845714031403
 1 -4.87822590939094  5.31221926592659  2.35424955895590
 1 -8.02706771617162  7.04336421092109  1.28366992089209
 1 -9.39127447934793  5.81860202070207 -1.35863744984498
 1 -9.10544529112911  7.78982771027103 -0.26046626952695
 1 -12.16236059805981  3.68141732893289 -0.24771258435844
 1 -11.71270511881188  3.71347530493049 -1.96613593039304
 1 -13.27035805860586  2.91432926862686 -1.56852120752075
 1 -12.61958433163316 -1.03662258895890 -0.92023677477748
 1 -13.48507553205321  0.49360351505151 -1.29632199099910
 1 -13.06492212211221  0.45036184928493 -3.74302164646465
 1 -11.68332330033003 -0.92980055365537 -3.41860081218122
 1 -13.55177193069307 -1.05534462926293 -3.32975051735173
 1 -10.12500904970497 -4.64829414921492 -0.50874317631763
 1 -9.07290126902690 -4.47007495349535 -2.13275017321732
 1 -8.42996817151715 -5.41146941394140 -0.65856381188119
 1 -3.69593144454445 -3.57289357955796 -0.20448179677968
 1 -1.67315770877088 -6.18411350705070  2.17693102720272
 1 -1.98077652405241 -4.69619310321032  3.08026246884689
 1 -3.04827784418442 -5.70897598919892  3.58519539513951
 1  2.28588249574957 -1.98911655515552 -1.91431259825983
 1  2.52299719421942 -0.27478505930593 -2.20963873107311
 1  4.14846761846185 -1.31211352565257  0.13195109810981
 1  5.26270810001000  1.61151366036604 -2.60208492829283
 1  5.47567418461846 -0.06274031153115 -3.49734113571357
 1  3.86873699189919  0.54522570937094 -3.22309313441344
 1  6.41770978717872  1.21456758175818 -0.52330252135214
 1  6.20551859655966 -0.30427031663166  0.46279398679868
 1  7.47647443234323 -1.65202192679268 -1.44271503110311
 1  7.73952349484949  0.11240326092609 -2.22592742174217
 1  9.09601508890889  0.85416425772577 -0.22268211991199
 1  8.85720878367837 -0.64159831133113  0.71519433183318
 1  10.42510517911791 -0.35041248454845 -1.94339891489149
 1  9.20952126832683 -2.41434012721272 -2.09698824662466
 1  11.00368539963996 -2.74730633043304 -1.86378698359836
 1  10.04152917301730 -2.87876956255626 -0.41138940824082
 1  11.16208150555055  0.58439721982198  0.14298288348835
 1  11.05698166166617 -0.69780501700170  0.98945887608761
 1  12.63762847344734 -1.78106967816782 -0.81957517051705
 1  12.67798595079508 -0.31924200320032 -1.59705123882388
 1  13.75707686258626  1.22018172897290  0.24549746064606
 1  14.01555578257826 -0.21319774757476  1.42836968286829
 1  15.33900624482448 -0.06193498739874 -1.36457847114711
 1  14.88835438833883 -2.34974755655566 -0.40104943814381
 1  16.73557743124312 -2.01626566316632 -0.53222900680068
 1  15.54776005480548 -1.94304943754375  0.86272554395440
 1  15.80355062826283  1.51631820212021  0.84272473147315
 1  16.07497215401540  0.17886851015101  1.61103452605261
 1  18.30058127982798 -0.20172438293829  0.35260539273927
 1  17.58497308290829  0.70992288058806 -1.06140457295730
 1  17.80565525502550  2.78451484738474  0.50593598329833
 1  18.28846110031003  1.77258306780678  1.94579172917292
 1  20.38638497089709  0.86611457245725  0.58888004420442
 1  19.69283664026403  3.37191546164616 -1.20344224662466
 1  21.18059530323032  2.46167423712371 -1.32131523812381
 1  19.53071804480448  1.72379800150015 -1.91306348784878
 1  20.56978221472147  2.31624309230923  2.29402043864386
 1  21.75325818301830  2.88346837423742  1.08301245834584
 1  20.25566519591959  3.83967716731673  1.27060579847985
 1 -7.05317715081508  1.76351522472247  0.36953879998000
 1 -7.80796234463446 -0.24890506650665 -0.01674180178018

