%nproc=3
%Mem=2GB
# td=(NStates=1) B3LYP/SVP 

TD

0 1
 6 -5.03860155825583 -1.88762500460046  0.42106698259826
 6 -4.87720803980398  2.80271672337234  1.35091147704770
 6 -9.54730464016401  3.28318911811181 -0.11217968586859
 6 -9.79718777327733 -1.53952475587559 -0.78182073547355
 7 -5.20631979427943  0.48560018291829  0.87477591459146
 6 -4.43834245034503 -0.61642836383638  0.66439988338834
 6 -3.03941362786279 -0.44901133583358  1.05910090589059
 6 -3.09896486188619  1.07546643894389  1.66151525732573
 6 -4.45323451655165  1.54247406530653  1.22480607760776
 6 -2.81482005050505  1.12785029732973  3.20478834143414
 6 -2.06948901960196 -0.78939890159016  0.00893883948395
 6 -0.49914312651265 -0.51895011161116  0.34995744844484
 6  0.39372303370337 -0.76058293119312 -0.78509006660666
 8  0.11754352195220 -1.30521288788879 -1.82511612311231
 8  1.67531772887289 -0.60579735283528 -0.35440788348835
 7 -7.18182277687769  2.77419469126913  0.51063057225723
 6 -6.07203877927793  3.43398781708171  0.89931078797880
 6 -6.37743092879288  4.85279171867187  1.08398489128913
 6 -7.68251734853485  4.99355819131913  0.56721324872487
 6 -8.23491443734374  3.65167366106611  0.29664982038204
 6 -5.45727624412441  5.76921243634363  1.67519878587859
 6 -8.46026330903090  6.26339035063506  0.53075157645765
 6 -9.36322422062206  6.61465118701870 -0.40176265506551
 7 -9.28223642424242  0.81607884088409 -0.32780524892489
 6 -10.04967883078308  2.03175567426743 -0.35847511671167
 6 -11.44693856035604  1.70939450045005 -0.89745357925793
 6 -11.50659460996100  0.40131747184718 -1.15132008670867
 6 -10.20217244294429 -0.17315726742674 -0.83419666216622
 6 -12.46371487238724  2.79445794739474 -1.03385647594759
 6 -12.65041278077808 -0.37808028752875 -1.64391535123512
 6 -12.64013414411441 -0.76084934933493 -3.26495466676668
 7 -7.49329828742874 -1.31712339753975 -0.19555808430843
 6 -8.58725031253125 -2.07545627242724 -0.51693505590559
 6 -8.14522696169617 -3.49768665086509 -0.59369193649365
 6 -6.78212312141214 -3.42685951425142 -0.31317894179418
 6 -6.36462756615662 -2.05717853645365  0.00319539573957
 6 -8.99763252085208 -4.81160190969097 -0.82625161956196
 6 -5.47152409760976 -4.23096813191319 -0.03639269366937
 8 -5.37686717691769 -5.42536206630663 -0.04380164606461
 6 -4.38305593419342 -3.22169293089309  0.30056911901190
 6 -3.71422522042204 -3.71122521602160  1.58943546924692
 8 -3.99096416991699 -3.25133306720672  2.65134320242024
 8 -2.65708439603960 -4.66242121502150  1.43888431633163
 6 -1.95478018181818 -5.07705715181518  2.56171831143114
 6  2.73115528412841 -0.90043394099410 -1.26044006980698
 6  4.03023627042704 -0.71798230063006 -0.58219031913191
 6  4.99603185978598  0.12930398529853 -1.06296025262526
 6  5.07169636533653  0.97199793149315 -2.35260237703770
 6  6.18388013321332  0.25065280448045 -0.24194310851085
 6  7.56776801720172 -0.33509969286929 -0.91655852275228
 6  8.83765536663666 -0.21849583468347 -0.04428277577758
 6  10.11391231693169 -0.79829415601560 -0.71458881368137
 6  9.89008504710471 -2.41149495239524 -0.75404468936894
 6  11.30994484468447 -0.34316863156316  0.02107155145515
 6  12.69624129832983 -0.88577389458946 -0.48404292739274
 6  13.70107869726973 -0.19771699789979  0.27167922342234
 6  15.19230814261426 -0.45668655015502 -0.30236379427943
 6  15.65547511931193 -1.87100596599660  0.06191742344234
 6  16.17342808710871  0.61124564186419  0.38084710701070
 6  17.56419130793079  0.59627254495450 -0.24088799019902
 6  18.55091601590159  1.57276160506051  0.55930674687469
 6  19.99390129172917  1.53577138173817  0.06133786128613
 6  20.33219391829183  1.97257383348335 -1.39930800860086
 6  20.88377089838984  2.31089242804280  1.08221000920092
 1 -4.15435309560956  3.59612084408441  1.75656053695369
 1 -10.28727658075808  4.15136237833783 -0.12073339603960
 1 -10.66860111651165 -2.12360951645165 -1.12082155525553
 1 -2.91035336233623 -1.18976821202120  2.06015689138914
 1 -2.28878019251925  1.62270249344934  1.05089800200020
 1 -1.86238649664967  0.90502687108711  3.39516862086209
 1 -3.12392788468847  2.13508855855586  3.48920911611161
 1 -3.47054665156516  0.56007119161916  3.83916909310931
 1 -2.20581609000900 -1.67372210531053 -0.52811725892589
 1 -2.31847518691869 -0.14085789478948 -0.95169186338634
 1 -0.33337915771577  0.47873172677268  0.90094045534553
 1 -0.27051739103910 -0.96675863446345  1.32278978737874
 1 -4.48971378787879  5.72650701880188  0.94205700550055
 1 -6.10599580598060  6.66876179087909  1.66899619421942
 1 -5.12293037983798  5.32897094109411  2.64972910691069
 1 -8.11850686008601  7.07128700320032  1.15934748864887
 1 -9.57884323622362  5.72007216771677 -1.14994658075808
 1 -9.93021776837684  7.65594432193219 -0.44579480238024
 1 -12.36501086308631  3.50428961616162 -0.07295510861086
 1 -12.19801364966497  3.66694065146515 -1.83236255305531
 1 -13.45059608240824  2.42605044074407 -1.08840319571957
 1 -12.67899027222722 -1.31989091579158 -1.34549930103010
 1 -13.31685871037104  0.27288144284428 -1.43086544534453
 1 -12.98813444334433  0.18375518861886 -3.83235057935794
 1 -11.72986795479548 -1.11543911751175 -3.54864381648165
 1 -13.62859961346135 -1.24176327112711 -3.41934947724772
 1 -9.53123967276728 -4.88159747954796  0.03624132213221
 1 -9.49473345224522 -4.68608655465547 -1.84252115031503
 1 -8.30138531323132 -5.53880214721472 -1.18281623712371
 1 -3.52142399379938 -3.37900419061906 -0.39049039763976
 1 -1.50069046204620 -6.02884798049805  2.10177351145115
 1 -1.20650909730973 -4.36413989788979  2.79054349694970
 1 -2.49524254065407 -5.33027811941194  3.21063793939394
 1  2.57740164766477 -1.94253189668967 -1.49952111911191
 1  2.33765866036604 -0.46501408220822 -2.30680844804480
 1  4.16843961566157 -1.02239455375538  0.63710161316132
 1  5.09789161836184  1.99221173017302 -2.10941566136614
 1  5.92535915311531  0.56638260076008 -2.88382978457846
 1  4.25081519971997  0.68777996479648 -3.21914273937394
 1  6.35661367756776  1.45050117511751 -0.24431462256226
 1  6.06371441614161 -0.09921981158116  0.71845955335534
 1  7.39742652755276 -1.27272399699970 -1.20539129872987
 1  7.79111865436544  0.31728374897490 -1.88775360436044
 1  9.01979746714671  0.91105994729473 -0.02997284898490
 1  8.86879994279428 -0.60763491499150  1.03455626802680
 1  10.19119178777878 -0.44045148844884 -1.75786036103610
 1  9.01630194639464 -2.81711040424042 -1.44042259005901
 1  10.87939297039704 -2.86960856065607 -1.38050865576558
 1  9.89259427952795 -2.94965665126513  0.16749848054805
 1  11.20670596799680  0.83834261436144 -0.11855327012701
 1  11.15623158665867 -0.39320455695570  1.15953588378838
 1  12.66944165476548 -2.03154472567257 -0.12961617461746
 1  12.81520967316732 -0.75667574657466 -1.57847938163816
 1  13.71037219211921  0.88768847964796  0.34609752065207
 1  13.59069329632963 -0.27100352815281  1.44107095299530
 1  15.30016236043604 -0.12383117701770 -1.26050806410641
 1  14.94160971387139 -2.69235181698170 -0.45534486768677
 1  16.78671254475448 -2.23273731033103 -0.19638542244224
 1  15.57073235203520 -2.08723385598560  1.14504377577758
 1  15.77872814601460  1.54019058935894  0.09931039003900
 1  16.14343900070007  0.52135275857586  1.48576199879988
 1  18.19172039373937 -0.32778698919892 -0.22179204700470
 1  17.60972555815582  0.80987287558756 -1.31938037053705
 1  18.36718140764076  2.53316971287129  0.67287267696770
 1  18.53543579777978  1.33942975247525  1.51062821282128
 1  20.41633796619662  0.44803276427643  0.23543469966997
 1  20.07636499309931  3.07851612171217 -1.61636353875388
 1  21.44712195589559  1.89858792849285 -1.53567667426743
 1  19.62693766676668  1.22601822352235 -1.95955813731373
 1  20.83999923642364  1.81559302730273  2.23287432403240
 1  21.82129498669867  2.36287631503150  0.68903306040604
 1  20.49764939433944  3.26680988058806  1.12057079497950
 1 -7.15736756985699  1.78435730893089  0.24932677877788
 1 -7.68120966936694 -0.35510568656866  0.05729560196020

