%nproc=3
%Mem=2GB
# td=(NStates=1) B3LYP/SVP 

TD

0 1
 6 -5.11546924502450 -1.86700294239424  0.50034491039104
 6 -4.80212053105310  2.80554700640064  1.56830321622162
 6 -9.33190310001000  3.27600840004000 -0.29331779967997
 6 -9.77381543604360 -1.48949975337534 -0.94084663806381
 7 -5.18826798909891  0.41351297419742  0.91509994699470
 6 -4.49700831693169 -0.67411413241324  0.84694813821382
 6 -3.03186287278728 -0.44856129082908  1.29788478427843
 6 -3.18862382778278  0.98797769006901  1.90047915371537
 6 -4.53069226232623  1.45341515941594  1.38585218221822
 6 -2.96118468696870  0.97963547584758  3.42814067666767
 6 -2.09647171787179 -0.73420338203820  0.19881782738274
 6 -0.47204041624162 -0.86840505710571  0.59278173087309
 6  0.34837849924993 -1.01031790469047 -0.51153271087109
 8  0.10088185578558 -1.28423078967897 -1.67108071957196
 8  1.64706490359036 -0.83036981008101 -0.19118156085609
 7 -7.08944353895390  2.72260953275328  0.57817732693269
 6 -6.00818239363936  3.40000441874187  1.06924778167817
 6 -6.38768195389539  4.81286772627263  1.11544803760376
 6 -7.64071316811681  4.95329416491649  0.51426795419542
 6 -8.13937488338834  3.60784927862786  0.28702885828583
 6 -5.40645116161616  5.81588710381038  1.79437070307031
 6 -8.29105638833883  6.21232524412441  0.43484198549855
 6 -9.05717361556156  6.63236295819582 -0.59698217701770
 7 -9.22507070767077  0.82803003600360 -0.54925739413941
 6 -9.90054391729173  1.98988148684869 -0.66391566076608
 6 -11.33244711121112  1.77159072007201 -1.01689552345235
 6 -11.39351330183018  0.41820916101610 -1.19573452815282
 6 -10.14231645734573 -0.12711266296630 -0.98767200970097
 6 -12.29429793069307  2.89474797639764 -1.18306139643964
 6 -12.67757549704971 -0.34130661016102 -1.77958891859186
 6 -12.70210034073407 -0.45047831223122 -3.25933410471047
 7 -7.46455541314131 -1.28334001920192 -0.31716024452445
 6 -8.53823541104111 -2.04928365516552 -0.73897726012601
 6 -8.13971641064106 -3.39115599779978 -0.66860942824282
 6 -6.72169707880788 -3.33648047634764 -0.30718834273427
 6 -6.43258436183618 -1.98268108670867 -0.02249717351735
 6 -9.00382313991399 -4.63068381788179 -1.12500149454946
 6 -5.70011695689569 -4.33793882898290  0.00116106170617
 8 -5.66507599779978 -5.47858738883888 -0.11016828272827
 6 -4.50828845744574 -3.33340410201020  0.49622868496850
 6 -3.96300009790979 -3.77021111461146  1.83110963666367
 8 -4.34127920142014 -3.29637757165717  2.87923599169917
 8 -3.01511019861986 -4.71790676357636  1.68778920682068
 6 -2.53244794859486 -5.44000344644464  2.75644778437844
 6  2.63438560716072 -0.98999289688969 -1.20739476527653
 6  4.01438468526853 -0.75176567896790 -0.54479657975798
 6  5.01346360296030  0.02138319321932 -1.04180813741374
 6  5.03444263996400  0.61118184988499 -2.50075719251925
 6  6.22616436163616  0.29674741394139 -0.44350326452645
 6  7.48382962336234 -0.30501668456846 -1.03529039593959
 6  8.84333593469347 -0.16745073017302 -0.14710305780578
 6  10.10501142684268 -0.64215854245425 -0.70331768656866
 6  10.00737677627763 -2.21153495639564 -0.92097138203820
 6  11.36399024922492 -0.21775609030903  0.03947339163916
 6  12.68321999619962 -0.55910122732273 -0.62328685178518
 6  13.93011160056006 -0.07004423062306  0.15609766526653
 6  15.28957786958696 -0.26841772327233 -0.48134169206921
 6  15.72096166796680 -1.76588545394539 -0.33706247454745
 6  16.23750449474948  0.60845536283628  0.30235925822582
 6  17.68137302610261  0.62152507020702 -0.11044494589459
 6  18.62689361366137  1.64889921882188  0.57938875507551
 6  20.08626052765277  1.59026683128313  0.05771749924992
 6  20.31671237013702  2.13427000310031 -1.34084216201620
 6  20.94955747704770  2.39985132393239  1.04126591479148
 1 -3.92217987828783  3.46032726472647  1.72161704260426
 1 -9.97289514261426  4.15816305840584 -0.62412373507351
 1 -10.50239449584958 -2.06053320882088 -1.37837731083108
 1 -2.88252057905791 -1.24895413061306  2.17549842554255
 1 -2.17602891739174  1.48411863506351  1.51786469866987
 1 -1.87128738673867  0.72632900130013  3.68788789278928
 1 -2.77788328022802  1.98897394709471  3.80951114631463
 1 -3.73572316921692  0.24569975447545  3.76647182338234
 1 -2.17217272567257 -1.61680641374137 -0.46800124732473
 1 -1.93620696009601  0.02525871687169 -0.61779847404741
 1 -0.36790261006101  0.06454030763076  1.41968232953295
 1 -0.46282662196220 -1.52711467006701  1.19203671207121
 1 -4.44302911941194  5.86947131523152  1.15547834763476
 1 -5.73551875827583  6.85330024472447  1.65715501010101
 1 -4.92258034483448  5.49171721572157  2.80982511651165
 1 -8.21006601600160  6.90766064056406  1.24673622752275
 1 -9.30091544344434  6.06922708320832 -1.63801538763876
 1 -9.32993774037404  7.79608833633363 -0.70611083398340
 1 -12.21685604760476  3.55866505370537 -0.24667248034803
 1 -11.76374022232223  3.68323228062806 -1.82480179697970
 1 -13.29928095089509  2.57855569126913 -1.57402175757576
 1 -12.70267264046405 -1.41223014971497 -1.23898864996500
 1 -13.60933795829583 -0.02668851415142 -1.28291064986499
 1 -12.74745037493749  0.45269208230823 -3.90389773407341
 1 -11.75145011301130 -0.78851642524252 -3.60641959405941
 1 -13.46932368586859 -0.97021611641164 -3.77517505980598
 1 -9.64381092989299 -4.78680800060006 -0.33068537053705
 1 -9.41388536743674 -4.56704465046505 -2.21916881508151
 1 -8.55240041474147 -5.60642890989099 -0.92688064356436
 1 -3.73654550595059 -3.40335662586259 -0.26202755135514
 1 -1.88678907190719 -6.07299239493949  2.35099843394339
 1 -2.26300474687469 -4.68480196409641  3.58194263686369
 1 -3.24102711911191 -6.01021611321132  3.23753062866287
 1  2.57858176567657 -2.07399504300430 -1.30391155815582
 1  2.29411430593059 -0.46242382318232 -2.22108987618762
 1  4.33210598229823 -1.12021433573357  0.39154705770577
 1  5.25681751095109  1.72276478547855 -2.51642636243624
 1  5.82192881008101  0.19162512501250 -3.10495189678968
 1  4.21191130933093  0.39671085788579 -2.94398522362236
 1  6.34911292749275  1.43891001600160 -0.24641483258326
 1  6.20448849354936 -0.23827371697170  0.58151585898590
 1  7.31405819071907 -1.36753347794779 -1.39892065166517
 1  7.99915945844585  0.10000202080208 -2.09026385538554
 1  8.89302478987899  0.91444028532853  0.13248339663966
 1  8.84577764056406 -0.64744889638964  0.88114092649265
 1  10.17553022162216 -0.08326576987699 -1.64978955395540
 1  9.09629994619462 -2.69346804000400 -1.49648819661966
 1  11.08185321642164 -2.56804840464046 -1.33600420532053
 1  10.07313233333333 -2.48979066466647  0.11987371807181
 1  11.32160745814581  1.02469124922492  0.25267385258526
 1  11.36661262476248 -0.82890812731273  0.94379430963096
 1  12.61798650925092 -1.94416598779878 -0.67085029802980
 1  12.74203235543554 -0.10391047004700 -1.64821635533553
 1  13.81749290419042  0.87119683048305  0.02116502740274
 1  13.58523275027503 -0.41305773357336  1.10157700360036
 1  15.25115745994599  0.02829403550355 -1.47225923922392
 1  15.04467001990199 -2.39930251205121 -0.94212354555456
 1  16.78052192569257 -1.90203424002400 -0.71424720862086
 1  15.90749602840284 -2.04757989058906  0.80965023642364
 1  15.84320459365937  1.76832340264026  0.17155761476148
 1  16.31670632743274  0.15809643294330  1.32575599819982
 1  18.17587880958096 -0.40068427892789  0.02831296349635
 1  17.67072165776577  0.70780266856686 -1.31033946644665
 1  18.22930762026203  2.75947234313431  0.34765015471547
 1  18.59326158035804  1.39494530403040  1.69106625662566
 1  20.41998833123312  0.61524948594859  0.12811396759676
 1  19.85350270687069  3.25246351645165 -1.48336023842384
 1  21.28735597929793  2.03235130483048 -1.68214132073207
 1  19.85159013201320  1.43133875557556 -2.06587876937694
 1  20.73982921942194  1.94511597959796  1.96589762636264
 1  22.12465532273227  2.28416844424442  1.06842099919992
 1  20.65294492389239  3.48698189778978  0.69507824572457
 1 -7.17776961006101  1.74385325852585  0.40955280138014
 1 -7.63810535893589 -0.19431960796080 -0.23259338693869

