%nproc=3
%Mem=2GB
# td=(NStates=1) B3LYP/SVP 

TD

0 1
 6 -5.12357005510551 -1.87920416251625  0.46184106000600
 6 -4.77935825482548  2.74310076177618  1.32227861376138
 6 -9.38514842454245  3.25224602380238 -0.14374284218422
 6 -9.85085313981398 -1.51881268466847 -0.88269082248225
 7 -5.19733889618962  0.41704332723272  0.74970340734073
 6 -4.40134875097510 -0.71077779877988  0.75659910331033
 6 -3.01879156565657 -0.45423185788579  1.25924091989199
 6 -3.10294525992599  0.86255514781478  1.83213231903190
 6 -4.38737793089309  1.36470628852885  1.24909850685069
 6 -2.94772334083408  0.99341685398540  3.38614647724772
 6 -2.04013608430843 -0.55672563426343  0.11002894849485
 6 -0.53912712491249 -0.57676589318932  0.52210466316632
 6  0.38868252965297 -0.89257613051305 -0.61041259885989
 8  0.11584335193519 -1.57983034963496 -1.63820743224322
 8  1.67634783188319 -0.54895166826683 -0.29263170587059
 7 -7.02530712531253  2.68666593839384  0.42180168936894
 6 -6.00381195659566  3.37767218551855  0.95129598649865
 6 -6.24828801450145  4.80512695219522  1.00510700350035
 6 -7.57211630843084  4.90726956245625  0.45567209460946
 6 -8.07853879977998  3.60261875557556  0.14536469186919
 6 -5.28853937043704  5.81721723682368  1.42126339233923
 6 -8.34418170087009  6.20166417801780  0.21605010631063
 6 -9.04858275647565  6.52952267416742 -0.91260373917392
 7 -9.19097729832983  0.77378461146115 -0.42052452085209
 6 -9.89997386028603  1.97032953165317 -0.55406467566757
 6 -11.28835270177018  1.81562512351235 -0.80949478337834
 6 -11.55044899539954  0.47470481058106 -0.97033198789879
 6 -10.18598082378238 -0.11447139883988 -0.76801004350435
 6 -12.29596809770977  2.99960846244624 -1.04181727202720
 6 -12.77188492799280 -0.23813629312931 -1.60864182388239
 6 -12.82312244294429 -0.46316958135814 -3.02386055735574
 7 -7.52513147074707 -1.25493717891789 -0.03257178567857
 6 -8.56070765826583 -2.05481420822082 -0.55850921332133
 6 -8.21223366236624 -3.39036591879188 -0.49875244254425
 6 -6.84336924602460 -3.43733056135614 -0.18988661256126
 6 -6.46360746414642 -2.06804962356236  0.20705578177818
 6 -9.00776353395339 -4.50930167966797 -0.86112510691069
 6 -5.63073001820182 -4.26991202630263  0.03532447804781
 8 -5.46979646984698 -5.44323385348535 -0.21718898479848
 6 -4.46652428102810 -3.27019778137814  0.40910997309731
 6 -3.92103590149015 -3.65654974847485  1.69811633733373
 8 -4.18082315581558 -3.30480841474147  2.83757182528253
 8 -2.97331601920192 -4.67179215211521  1.54274470237024
 6 -2.47993269706971 -5.45130457655766  2.60190232983298
 6  2.70547271587159 -0.99369326692669 -1.20696472227223
 6  3.99216246304630 -0.72715321772177 -0.59045114521452
 6  5.02353461006101  0.05221627652765 -1.01953591019102
 6  4.88098729442944  0.98956968866887 -2.23088020482048
 6  6.36156790199020  0.12385012421242 -0.24301321552155
 6  7.51746298669867 -0.57373355625563 -0.90256712361236
 6  8.81712331343134 -0.44931891699170 -0.14023237073707
 6  10.01004192989299 -0.80358468506851 -1.00495785058506
 6  10.10221626022602 -2.39207301020102 -1.37257654255426
 6  11.31943579377938 -0.48987330203020 -0.12756331203120
 6  12.76559823402340 -0.65844116131613 -0.73632815591559
 6  13.76086467586759 -0.10047727392739  0.19197125262526
 6  15.22075098689869 -0.24571545304530 -0.41741529942994
 6  15.77810738253825 -1.64205307070707 -0.60614938323832
 6  16.21154189848985  0.61712622992299  0.38374739703970
 6  17.63941883068307  0.84410732843284 -0.10204410581058
 6  18.56042696699670  1.47916224512451  0.85352616881688
 6  20.01679358095809  1.67678548314831  0.29434116161616
 6  20.10869156805681  2.36127270337034 -1.02502057985799
 6  20.98140066136614  2.42830416921692  1.28186997519752
 1 -4.13998165846585  3.60102133413341  1.49994487538754
 1 -10.04453230633063  4.15980322242224 -0.57432875557556
 1 -10.65800005640564 -2.07666482198220 -1.39134860796080
 1 -2.67666999399940 -1.10629986518652  1.91615249094909
 1 -2.17336865136514  1.36726694989499  1.63761667386739
 1 -1.89044930293029  0.59522589098910  3.54307341134113
 1 -2.88140363226323  2.23475852555256  3.60082027722772
 1 -3.79847944484448  0.42914809930993  3.74362953915392
 1 -1.90251575997600 -1.62644737783778 -0.43844829202920
 1 -2.06813015241524  0.18816500750075 -0.69556625082508
 1  0.02594677487749  0.25290914451445  0.93317367866787
 1 -0.32865320462046 -1.45264722332233  1.10599810821082
 1 -4.24856967346735  5.95230959905991  0.81445424522452
 1 -5.77227243364336  6.79518443314331  1.64613390799080
 1 -5.09168725552555  5.57048509250925  2.63023715771577
 1 -8.15973098249825  7.07750762526253  0.81027258115812
 1 -9.42044739663966  5.64596475697570 -1.64044563066307
 1 -9.31980672727273  7.57999672717272 -1.03260348324832
 1 -12.41041540354036  3.28060724792479 -0.03012082518252
 1 -12.01165501380138  3.85097905530553 -1.84709402620262
 1 -13.14739576237624  2.67331516721672 -1.37407176257626
 1 -12.86247862106211 -1.20693962066207 -1.12474722582258
 1 -13.56949397389739  0.27444159885989 -1.45991835063506
 1 -12.91608723862386  0.46807362046205 -3.47117446174618
 1 -11.81173614161416 -1.10320789438944 -3.39202815491549
 1 -13.73898065156516 -0.90390948574858 -3.43169071137114
 1 -9.90173672247225 -4.50662998279828 -0.35313761576158
 1 -9.33482746164616 -4.58560650665066 -1.87016391459146
 1 -8.47841301600160 -5.49798806580658 -0.91450940644064
 1 -3.88218006940694 -3.45060135033503 -0.50912226082608
 1 -1.99591998499850 -6.38956405210521  2.11984531863186
 1 -1.42305075147515 -4.97303078697870  3.08650309290929
 1 -3.16305932233223 -5.64377946954695  3.26291316691669
 1  2.63036694419442 -2.01121876537654 -1.57353852085208
 1  2.66038093259326 -0.37595517631763 -2.15930369756976
 1  4.10663343504350 -1.19068138243824  0.36373427642764
 1  5.42438426762676  2.11048355735574 -2.03293801360136
 1  5.85030164736474  0.55760172267227 -2.98147954955496
 1  3.82626274447445  1.24519570637064 -2.77279810491049
 1  6.34384240044004  1.30507663266327 -0.08850904200420
 1  6.31845989068907 -0.20740062966297  0.77234494189419
 1  7.21479826472647 -1.84009073367337 -0.96171693129313
 1  7.80610015251525 -0.02902088148815 -1.78284311331133
 1  8.94038952635263  0.69390823212321 -0.05264511621162
 1  8.78341140394039 -1.05753990549055  0.89807261966197
 1  10.08667133573357 -0.18415585888589 -1.78522309730973
 1  9.02338265446545 -2.80631932513251 -1.77360590839084
 1  10.80202523362336 -2.48687028682868 -2.32782338723872
 1  10.02423744384438 -3.07607929352935 -0.47368563786379
 1  11.07990328772877  0.44098287838784  0.11979056425643
 1  11.21427739123913 -0.98669390589059  0.85278520872087
 1  13.09157386798680 -1.59527109830983 -1.19062227522752
 1  12.87667581978198  0.09475939693969 -1.64205573927393
 1  13.67254840974097  0.96050576137614  0.39964287518752
 1  13.77343157015702 -0.73563999179918  1.13482032793279
 1  15.25052739693969  0.19719092519252 -1.53049506280628
 1  15.15383093599360 -2.28127070887089 -1.07620695389539
 1  16.50789466296630 -1.75618965556556 -1.16047183108311
 1  15.93232851165116 -2.04535966856686  0.38227749914991
 1  15.81786205940594  1.61905847614761  0.63871433043304
 1  16.27001165796580  0.19843046634663  1.37900132273227
 1  18.08073929562956 -0.16733094359436 -0.20354022182218
 1  17.74886947254726  1.46310819911991 -1.21978041054105
 1  18.17701239073907  2.43147954385439  1.54451984168417
 1  18.71586384058406  0.73121893139314  1.76257340734073
 1  20.41248758115811  0.66652461346135 -0.01874071787179
 1  19.45602295889589  3.29854812491249 -1.12446434883488
 1  20.99462670637064  2.60609867956796 -1.57055016161616
 1  19.54915988898890  1.91050667236724 -1.81217339883988
 1  21.05172040854086  2.14445591359136  2.25220625722572
 1  21.98517137433743  2.44557458485849  0.77911206830683
 1  20.54231386078608  3.43985718531853  1.63462220012001
 1 -7.25759759285929  1.71289016221622  0.76068791489149
 1 -7.78432998139814 -0.24475465146515 -0.19692982058206

