%nproc=3
%Mem=2GB
# td=(NStates=1) B3LYP/SVP 

TD

0 1
 6 -5.11598929702970 -1.79694593669367  0.36329120502050
 6 -4.82809312831283  2.85301175287529  1.35019140504050
 6 -9.34146405610561  3.36800759996000 -0.12240070797080
 6 -9.78412646714671 -1.51402220562056 -0.69517207060706
 7 -5.15714487678768  0.48842046494649  0.75131356835684
 6 -4.39422803890389 -0.67025374637464  0.71617506090609
 6 -2.87804749124912 -0.49984641934193  1.15633062886289
 6 -3.07357232263226  0.98596748904890  1.76668577437744
 6 -4.38852804590459  1.48614843274327  1.24427802480248
 6 -2.92563113161316  1.10071758405841  3.24577243984398
 6 -2.04689676037604 -0.77446740844084  0.00524847044704
 6 -0.55488870107011 -0.69440765736574  0.44413686638664
 6  0.33390705210521 -1.05356222912291 -0.72444400200020
 8  0.02053382098210 -1.43195556215622 -1.78019163066307
 8  1.64731492859286 -0.75096186928693 -0.36931937463746
 7 -7.05063965856586  2.73074034583458  0.47607711691169
 6 -6.00338191359136  3.50386480478048  0.98163902080208
 6 -6.34679786548655  4.87701414091409  1.07020351315132
 6 -7.69621871867187  5.00693952945295  0.54148067546755
 6 -8.12282322822282  3.61469996369637  0.23943409880988
 6 -5.42131264776478  5.91766728182818  1.53006427242724
 6 -8.35426270897090  6.19421343294329  0.42197069836984
 6 -9.11253915211521  6.51968169006901 -0.69298177697770
 7 -9.33400160076008  0.91332856585659 -0.39877234563456
 6 -9.91841570447045  2.11217371607161 -0.44105337453745
 6 -11.31683555005501  1.86946050705071 -0.88690252415241
 6 -11.52532648314831  0.48020536063606 -0.96178113281328
 6 -10.23604583028303 -0.11770172187219 -0.75182842534253
 6 -12.40403890479048  2.90947944954495 -0.93460655095510
 6 -12.62584032353235 -0.33155563506351 -1.38711967166717
 6 -12.72865299599960 -0.50573383778378 -3.01383955525553
 7 -7.54778373597360 -1.22802448764876 -0.07683621212121
 6 -8.56867845534554 -2.01562028882888 -0.52551591399140
 6 -8.17110954995500 -3.42059894209421 -0.54627719501950
 6 -6.82507741684168 -3.33608043634363 -0.22645026892689
 6 -6.41810291369137 -1.97815063366337  0.00454553075308
 6 -8.87096985458546 -4.59737048654866 -1.00327932233223
 6 -5.64897184238424 -4.24743977907791  0.04345529112911
 8 -5.55014450465046 -5.46776630673067  0.04881761586159
 6 -4.40908853745375 -3.20509127072707  0.30020908300830
 6 -3.82711650955095 -3.73480757425743  1.58163468916892
 8 -4.18462353585358 -3.46353428732873  2.67218528662866
 8 -2.88776746434643 -4.65187015991599  1.38109853775378
 6 -2.31141584538454 -5.44914436053605  2.42556469606961
 6  2.66824899349935 -1.15735963356336 -1.30993501930193
 6  3.98808205500550 -0.71638214061406 -0.67471957205721
 6  5.04492674927493 -0.13393233833383 -1.29457341394139
 6  5.02812200790079  0.51450218191819 -2.65888300510051
 6  6.23205495069507  0.09797753695370 -0.54198311251125
 6  7.52529376977698 -0.61296747964796 -1.01187805470547
 6  8.79250085118512 -0.34912889798980 -0.18801714921492
 6  10.15819674537454 -0.86383070967097 -0.70240759555956
 6  9.99546558515852 -2.36265006790679 -1.01490077497750
 6  11.33332718291829 -0.49057337203720  0.16029547384738
 6  12.72094376857686 -0.69025434263426 -0.44544906800680
 6  13.78433702310231 -0.09426665286529  0.40329238473847
 6  15.28751766356636 -0.22225310681068 -0.16130968886889
 6  15.76388596039604 -1.73039190459046 -0.31841060936094
 6  16.27899864416442  0.56765128242824  0.59107813011301
 6  17.64302919171917  0.76795971367137 -0.10377427882788
 6  18.45835675997600  1.72681701060106  0.62615343154315
 6  20.02389429102910  1.78149595419542  0.23775550305030
 6  20.17828852775278  2.16051262736274 -1.23033111091109
 6  20.97551007230723  2.58060939973997  1.09671145934593
 1 -4.17361502180218  3.53829506150615  1.82485736663666
 1 -9.96884473757376  4.24247148924893 -0.07818914161416
 1 -10.54855911231123 -2.26686384188419 -0.86263573667367
 1 -2.83071539853985 -0.97890712591259  2.24449532523252
 1 -2.26239755425543  1.66567679087909  1.14134704690469
 1 -1.82707296529653  0.81117748614861  3.71272037603760
 1 -2.90866635853585  2.22259730943094  3.55952614781478
 1 -3.66746634353435  0.43155834033403  3.64451962816282
 1 -2.34147965636564 -1.65944067716772 -0.47076152335234
 1 -2.34179751915191  0.13745993699370 -0.67855454965497
 1 -0.29679549934993  0.36758061166117  0.84253461476148
 1 -0.20537087638764 -1.34993695229523  1.26833434183418
 1 -4.55088990549055  5.56475084318432  0.84708750855085
 1 -5.83455866226623  6.98109302400240  1.26598589318932
 1 -5.24184227102710  5.60138818281828  2.56334046804680
 1 -8.26881189058906  7.05980585508551  1.03247480138014
 1 -9.53584893679368  5.91969212971297 -1.47263884998500
 1 -9.80716546314631  7.34090281778178 -0.99782000490049
 1 -12.23889825182518  3.54583377057706 -0.09894770787079
 1 -12.34610845914592  3.72721667906791 -1.84086340314031
 1 -13.47879890269027  2.53585142084208 -0.94880923632363
 1 -12.72903527672767 -1.31033996069607 -0.88420317141714
 1 -13.47495451995199  0.09423357805781 -0.89528188698870
 1 -12.48330396029603  0.48400521362136 -3.61524886918692
 1 -11.62537750575058 -0.96832440604060 -3.25950490259026
 1 -13.41330808430843 -1.27722681748175 -3.44639218151815
 1 -9.64453100190019 -5.12331165096510 -0.26170847284728
 1 -9.33514749364936 -4.32989093509351 -1.95841273947395
 1 -8.28949412411241 -5.56645491249125 -1.10377833333333
 1 -3.66702855425543 -3.28009429962996 -0.37013836243624
 1 -1.56303669666967 -6.20840593629363  2.04928826292629
 1 -1.87546599299930 -4.85211869576958  3.08658310091009
 1 -3.15621863826383 -5.95589068066807  2.84999187478748
 1  2.66212011951195 -2.32238988248825 -1.45042620962096
 1  2.34729962446245 -0.75190277107711 -2.36038380558056
 1  4.26592936463646 -1.22367468176818  0.30736863986399
 1  5.27761959115912  1.64510701970197 -2.48663338313831
 1  6.03327994519452  0.34080004250425 -3.27821922352235
 1  4.20480059825983  0.42585377217722 -3.36425725082508
 1  6.56952496869687  1.22363848884888 -0.66437662876288
 1  5.90892893759376 -0.04758464806481  0.47061476887689
 1  7.36560334523452 -1.53156988158816 -1.22104286388639
 1  7.85368491099110 -0.10995897529753 -1.98073290229023
 1  8.75437092449245  0.83942278357836 -0.05268512021202
 1  8.54936799959996 -0.65903005450545  0.80987379977998
 1  10.37204987358736 -0.27332477577758 -1.60222479747975
 1  9.07478779497950 -2.69252794599460 -1.65743429122912
 1  10.76500153125312 -2.83977557735774 -1.44919552445245
 1  9.88443346344635 -2.78762044764476 -0.08646691599160
 1  11.30266556395640  0.48912769286929  0.33028161336134
 1  11.00405636913691 -1.08730396689669  1.11182111231123
 1  12.87965267586759 -1.72967453865387 -0.66219943294329
 1  12.27085523772377 -0.21043112211221 -1.40869240294029
 1  13.88704985988599  1.02371208200820  0.74351726262626
 1  13.67943217021702 -0.62033846164617  1.47482432833283
 1  15.20347269146915  0.15802700880088 -1.12553456675668
 1  14.90139569246925 -2.35347792959296 -0.72828216141614
 1  16.67069094259426 -1.89207324392439 -1.01292707660766
 1  16.12188746754676 -2.12551768436844  0.77308658005801
 1  15.76363663686369  1.53068963926393  0.63422388138814
 1  16.38065272207221  0.12870349364937  1.67640106270627
 1  18.03536475817582 -0.25867007750775 -0.25954582238224
 1  17.42802738833883  1.54982687098710 -1.11808024052405
 1  18.03493818331833  2.85525192109211  0.65805119481948
 1  18.73758601280128  1.65934174367437  1.89503665366537
 1  20.41467780018002  0.68778673967397  0.48598975517552
 1  20.17531488808881  3.26821509160916 -1.21002290469047
 1  21.21652889658966  2.17452552225222 -1.53677678427843
 1  19.63422839583958  1.52370799249925 -1.98252043354335
 1  21.09912514901490  2.27760922892289  2.25333637023702
 1  22.09863272047205  2.55681570897090  0.81056521362136
 1  20.62299192859286  3.74987818741874  1.04714345224522
 1 -6.96203803690369  1.70481935513551  0.57091893799380
 1 -7.53207475587559 -0.10354053005300 -0.38460858845885

