%nproc=3
%Mem=2GB
# td=(NStates=1) B3LYP/SVP 

TD

0 1
 6 -5.07372507060706 -1.90504674677468  0.40754563046305
 6 -4.62969328832883  2.73990044174418  1.40764715061506
 6 -9.01412132183218  3.38153895309531 -0.49683815171517
 6 -9.83818187268727 -1.43181398479848 -0.95286784018402
 7 -5.10783994629463  0.38868049094909  0.87508594559456
 6 -4.53030164626463 -0.76998371937194  0.91659510291029
 6 -3.07747743424342 -0.63125956065607  1.28874387018702
 6 -3.08829379477948  0.76351524382438  1.85693479927993
 6 -4.35121431453145  1.37077689558956  1.32858645564556
 6 -2.76587515601560  0.88557606990699  3.45661352395240
 6 -2.02036410711071 -0.82923288498850  0.22815076067607
 6 -0.62289550175017 -0.73474169076908  0.66135858855886
 6  0.28028168956896 -1.26144301720172 -0.44944650225022
 8 -0.02468070047005 -1.57817018361836 -1.53038665016502
 8  1.63394359145915 -0.82090886398640 -0.22059450215021
 7 -6.87612220682068  2.74530180198020  0.38871838103810
 6 -5.80136171157116  3.43410782908291  1.04454531143114
 6 -6.15692887858786  4.68473491299130  1.09483597639764
 6 -7.43377247404741  4.96479531503150  0.56972349974998
 6 -7.89011995789579  3.58966746044604  0.15546570197020
 6 -5.11735225172517  5.68943445854585  1.63175444144414
 6 -8.02900018271827  6.26812082368237  0.46140464176418
 6 -8.77992589078908  6.83936365826583 -0.50699317811781
 7 -9.07951615221522  0.97560479347935 -0.61020348874888
 6 -9.75019888278828  2.17222972167217 -0.72288155735574
 6 -11.12212607910791  2.05733929492949 -1.12042587648765
 6 -11.33101705220522  0.68896623672367 -1.38958391309131
 6 -10.10905313101310  0.03464351265127 -0.94476771927193
 6 -12.14194269516952  3.07436593819382 -1.20318340864086
 6 -12.54276201570157 -0.07539001850185 -1.76027698739874
 6 -12.57678780948095 -0.37817108150815 -3.33923209450945
 7 -7.46237519511951 -1.14738642384238 -0.33744227272727
 6 -8.57876946444645 -1.90106883368337 -0.64871823422342
 6 -8.19155159415942 -3.34523140534053 -0.62635520282028
 6 -6.88591350045005 -3.35112194049405 -0.27053467736774
 6 -6.43343444684468 -1.97727054565457  0.06247132333233
 6 -9.04500725832583 -4.60009075857586 -0.99318831323132
 6 -5.74570151535154 -4.29670470557056  0.13203414901490
 8 -5.75364485468547 -5.47570710081008  0.13180591469147
 6 -4.54885251385139 -3.35194595619562  0.49178824092409
 6 -4.03364716261626 -3.93526762026203  1.82661918761876
 8 -4.39838491199120 -3.56243417731773  2.91506957505751
 8 -3.09672836043604 -4.82352732563256  1.53491391929193
 6 -2.50206491029103 -5.50906035213521  2.64095623522352
 6  2.64376654525453 -1.41518541614161 -1.07718174397440
 6  4.01704495129513 -0.89912041444144 -0.47536963706371
 6  4.91749400600060 -0.17507645274527 -0.98002195879588
 6  4.73397259295930  0.62816354805481 -2.34292140894089
 6  6.20127187238724 -0.11101336213621 -0.23997291149115
 6  7.46627786818682 -0.59915609850985 -0.96067293419342
 6  8.77031863296330 -0.29968395349535 -0.17909625712571
 6  10.02625355105511 -0.89335366196620 -0.79963731853185
 6  10.13334937353735 -2.28134193709371 -1.29214849974997
 6  11.22349619981998 -0.48379269396940  0.09301874617462
 6  12.60684235843584 -0.49524484168417 -0.72372689578958
 6  13.78577716711671  0.06458923272327  0.18464051955196
 6  15.19256816861686 -0.23108398989899 -0.34356791469147
 6  15.64171374317432 -1.68809767516752 -0.27887665596560
 6  16.13130387468747  0.72182669997000  0.45468449074907
 6  17.49163405220522  0.90675359305931 -0.17586148754876
 6  18.39438036233623  1.68700302920292  0.63197401360136
 6  19.80066196779678  2.02572037663766  0.00467219471947
 6  19.73936463536354  2.57860443654365 -1.46760483828383
 6  20.74890741204121  2.86191753055305  0.91325311351135
 1 -3.93576123642364  3.40369160116012  2.10423530443044
 1 -9.64510236333633  4.31224846694669 -0.54327565026503
 1 -10.72544680108011 -2.08356551205120 -1.42649212231223
 1 -2.75443777077708 -1.35647488268827  2.23176405210521
 1 -2.16413772827283  1.27729795299530  1.42760567276728
 1 -1.95785604360436  0.28534490289029  3.57851695569557
 1 -2.91627711961196  1.85603065276528  3.78252844804480
 1 -3.61384098099810  0.17681286578658  4.08323349954995
 1 -2.06398190659066 -1.64886962006201 -0.59191363856386
 1 -2.34137747714771  0.14751094209421 -0.37582427662766
 1 -0.32792861266127  0.13800765436544  1.10668102940294
 1 -0.30590092939294 -1.36622858145815  1.41011852025202
 1 -4.39541435793579  6.13942831093109  0.89508230803080
 1 -5.31568677507751  6.68624353905391  2.17819711431143
 1 -4.62064015081508  5.24402244624462  2.61501563556356
 1 -7.65780078947895  6.83519339383938  1.26789834373437
 1 -9.10042539443944  6.28199836033603 -1.43494508060806
 1 -9.19725447204720  7.89981870937094 -0.54421464436444
 1 -12.56241060306031  3.29237842504250 -0.11871968506851
 1 -11.84668851715172  3.89801375877588 -1.71343065986599
 1 -12.93223424622462  2.55178301400140 -1.64165852125213
 1 -12.61896426962696 -0.94979390609061 -1.28735348644865
 1 -13.72972999749975  0.50010416511651 -1.57876023482348
 1 -12.58425405530553  0.77035384848485 -3.69743708800880
 1 -11.67094206220622 -0.76994456805681 -3.81363031513151
 1 -13.50966772027203 -0.93346244104410 -3.57030457275728
 1 -9.91645819461946 -4.69012833263326 -0.26896919891989
 1 -9.34537851675167 -4.77229517551755 -2.08431532973297
 1 -8.42135731043104 -5.51123939093909 -0.62170012551255
 1 -3.70312216361636 -3.62328861906191 -0.13626497509751
 1 -1.96719711271127 -6.27629272497250  2.12428576267627
 1 -1.99898834523452 -4.69636312021202  3.27754219681968
 1 -3.24233725012501 -6.07813290489049  3.16529340494049
 1  2.71107501500150 -2.38238588208821 -1.02428359535954
 1  2.19243413791379 -0.79318689948995 -1.96697446464646
 1  4.30225299699970 -1.51841415571557  0.31069897289729
 1  4.94778660786079  1.77579008800880 -1.85514023382338
 1  5.64300091729173  0.65504146664666 -3.02499390099010
 1  3.74581469966997  0.29761094789479 -2.60554137923792
 1  6.36259427562756  0.91028715371537  0.28869867876788
 1  6.16894493919392 -0.56730662026203  0.78783649104910
 1  7.31069785468547 -1.65653237783778 -1.05774653425343
 1  7.59935947844784 -0.02071005040504 -1.91135596459646
 1  8.75322080948095  0.74790363166317  0.00840098839884
 1  8.63044610741074 -0.83750790229023  0.87928074047405
 1  10.23873654225422 -0.14550199349935 -1.76910148514851
 1  9.46294661086109 -2.65806449964997 -2.08747729552955
 1  11.12379741084108 -2.48772037183718 -1.62437304220422
 1  10.19956497659766 -2.88408009360936 -0.37379564886489
 1  10.97576287368737  0.58472725282528  0.37064564976498
 1  11.29383534703470 -1.22510774727473  0.91704163436344
 1  12.83204791539154 -1.66353792499250 -0.85471868486849
 1  12.43427157935794  0.16189611061106 -1.77447898159816
 1  13.65595675057506  1.06199591039104  0.47645055595560
 1  13.68082230923092 -0.25194162196220  1.14168101400140
 1  15.01911425562556  0.17668887498750 -1.29613162646265
 1  14.88549410231023 -2.36823940574057 -0.63286261946195
 1  16.65555942944295 -1.58934297089709 -0.64636041994199
 1  15.51473675247525 -2.14585971857186  0.77529680108011
 1  15.55014528772877  1.60784735503550  0.36440689968997
 1  16.15418007480748  0.25696631993199  1.32987641024102
 1  18.11341256295630 -0.05711992249225 -0.13155302310231
 1  17.22685727132713  1.38758064636464 -1.23795222772277
 1  17.87572226172617  2.87653404930493  0.82004739443944
 1  18.40268252245225  1.20526633613361  1.56424357435744
 1  20.31611794419442  0.97134509550955 -0.13714255805581
 1  19.16017337393739  3.50529879998000 -1.26300820322032
 1  20.74980222392239  2.91842991269127 -1.98461156775678
 1  19.22695766876688  1.85112073377338 -2.16384856635664
 1  20.73207844434443  2.53901536953695  1.92554359095910
 1  21.77293015021502  3.00800082748275  0.54461861896190
 1  20.32563219261926  3.90545374497450  1.00743948184818
 1 -6.77076890999100  1.66210508370837  0.21373321942194
 1 -7.65402695109511 -0.19306948294829 -0.21538166576658

