%nproc=3
%Mem=2GB
# td=(NStates=1) B3LYP/SVP 

TD

0 1
 6 -5.10200789888989 -2.00281652375237  0.41435631153115
 6 -4.69966028502850  2.61829828152815  1.33500988688869
 6 -9.25083499319932  3.42756355555556 -0.27481594949495
 6 -9.85359341384138 -1.33962476587659 -0.89405195859586
 7 -5.11394055635564  0.41319294219422  0.71033947094709
 6 -4.50568918501850 -0.81071779277928  0.74536798019802
 6 -3.08377806430643 -0.68809524422442  1.30637563336334
 6 -3.02826779217922  0.75986487878788  1.80810991679168
 6 -4.33115230833083  1.39766958485849  1.20792438943894
 6 -2.88357692619262  0.99500701300130  3.34937279987999
 6 -2.03403547424742 -0.92332229392939  0.19431737733773
 6 -0.60990420262026 -0.90231844844484  0.77932038473847
 6  0.39702336373637 -1.24466133903390 -0.38563012061206
 8  0.04139590719072 -1.77975034163416 -1.41980559205921
 8  1.64041423852385 -0.81215798889889 -0.15811825452545
 7 -6.97860245484548  2.76972424422442  0.44849435863586
 6 -5.83095467086709  3.27371178947895  0.90878173507351
 6 -6.02023520922092  4.72823926342634  0.90780727352735
 6 -7.37608670547055  4.97839667516752  0.39007553495350
 6 -7.89795074097410  3.72671116481648  0.17109726512651
 6 -5.05124564106411  5.77050256535654  1.33887515351535
 6 -7.88873615631563  6.31870588218822  0.32570107140714
 6 -8.95506340454045  6.67447716961696 -0.46158863766377
 7 -9.19007720832083  1.01126835983598 -0.50819328772877
 6 -9.79310317321732  2.14155665436544 -0.57651692089209
 6 -11.17878174467447  2.03416697769777 -0.97789162306231
 6 -11.42046599709971  0.62076941704170 -1.15796075077508
 6 -10.02730495619562  0.03018306660666 -0.87242048454845
 6 -12.29405790669067  3.04250275187519 -1.02381547184718
 6 -12.61872961246125 -0.09698217771777 -1.59541050075007
 6 -12.78053818451845 -0.29947321172117 -3.09856802810281
 7 -7.47737669526953 -1.21766345154515 -0.30378890739074
 6 -8.57128871637164 -1.88887761456146 -0.63919728212821
 6 -8.23358579757976 -3.29069595179518 -0.62253482078208
 6 -6.89422433153315 -3.37919474777478 -0.16652427632763
 6 -6.49475057845785 -2.09114193279328 -0.03285820962096
 6 -9.05010776837684 -4.46656740624062 -0.97617661206121
 6 -5.75816276147615 -4.29243427852785 -0.01766082048205
 8 -5.72195168536854 -5.54123365346535 -0.13259052495250
 6 -4.50572820142014 -3.44800556215622  0.44161322342234
 6 -4.01087488538854 -3.94801889538954  1.76053257895790
 8 -4.24543961746175 -3.45757369126913  2.88715678377838
 8 -3.37870655825583 -5.09030400330033  1.58522895079508
 6 -2.89146385018502 -5.79398884498450  2.75483762336234
 6  2.69429159775978 -1.09522341994199 -1.18034206000600
 6  4.04485773257326 -0.80215071747175 -0.59423152325233
 6  4.88912116871687 -0.07666661176118 -1.13889784638464
 6  4.76007520322032  0.69569030073007 -2.47110422722272
 6  6.17627937313731  0.21687942714271 -0.36393530773077
 6  7.44592583298330 -0.59351553445345 -0.96010287718772
 6  8.78440004110411 -0.14655864096410 -0.23923227072707
 6  10.14758568426843 -0.68009233583358 -0.80370772557256
 6  10.03923996259626 -2.20274407730773 -0.94015330023002
 6  11.33465731593159 -0.27151146584658  0.00301974627463
 6  12.72728440264027 -0.62957827502750 -0.45787031013101
 6  13.83995258465847  0.10364313811381  0.11634368986899
 6  15.16836574837484 -0.14490537203720 -0.48300185808581
 6  15.59074864666467 -1.60587945334533 -0.49332810111011
 6  16.18538928322833  0.73344786208621  0.35587460976098
 6  17.55912080088009  0.91679459715972 -0.12962686408641
 6  18.52307323162316  1.72573690259026  0.72475329152915
 6  20.04503640524052  1.79244704930493  0.13584531203120
 6  20.06478717761776  2.51338791489149 -1.38522660046005
 6  20.92817533883388  2.59633097189719  1.15996778497850
 1 -4.03471113141314  3.41099233123312  1.73495837673767
 1 -9.99816766986699  4.38091533363336 -0.30912223492349
 1 -10.70178443484348 -2.02232938843884 -1.01070054315432
 1 -2.83241556855686 -1.31371060626063  2.05375625132513
 1 -2.32873418791879  1.33331355455546  1.30971388358836
 1 -1.80063032103210  0.55454182258226  3.73605270927093
 1 -2.68771426332633  2.22147719741974  3.60644083928393
 1 -3.56611620852085  0.44781996649665  3.90113528972897
 1 -2.01799730813081 -1.91257599069907 -0.40785523272327
 1 -2.15507884728473 -0.21054486348635 -0.63761045524552
 1 -0.09693551335133  0.18015186878688  1.11493185448545
 1 -0.54338467776778 -1.59300125872587  1.55620312871287
 1 -4.34328914541454  6.21646601470147  0.57561036083608
 1 -5.61936714311431  6.78134304900490  2.11705099969997
 1 -4.33937202400240  5.14519256325633  2.17697183118312
 1 -7.58655366476648  6.99568944344434  1.12700425432543
 1 -9.52254760666067  5.96402656315631 -1.18927051315132
 1 -9.26589133573357  7.75325405290529 -0.34849507240724
 1 -12.41206556855686  3.67188637583758  0.04175636253625
 1 -11.82408625692569  3.90980493789379 -1.69161847864786
 1 -13.35095611841184  2.78397623332333 -1.36171052645265
 1 -12.38572094529453 -1.04118304500450 -1.01037578867887
 1 -13.65342236673667  0.28534268896890 -1.14932729152915
 1 -12.83894952485248  0.52922973607361 -3.74511185548555
 1 -11.92189715771577 -0.78737631123112 -3.51682063416342
 1 -13.84579133263326 -1.08135723052305 -3.29367690999100
 1 -9.83724027282728 -4.64524384418442 -0.29569187118712
 1 -9.40601458035803 -4.55404335033503 -2.13714061226123
 1 -8.55851102580258 -5.40030829782978 -0.90300825632563
 1 -3.82475432683268 -3.71610790099010 -0.42878422702270
 1 -2.31495188818882 -6.64934002970297  2.62810614471447
 1 -2.33182162856286 -5.07523100700070  3.32086652925292
 1 -3.61581459785979 -6.15613070467047  3.47940481608161
 1  2.63648755625562 -2.21467911141114 -1.42628379537954
 1  2.27450234473447 -0.46714429522952 -2.00484825202520
 1  4.20670344204420 -1.22964527882788  0.44608251125112
 1  4.76519834903490  1.98536104510451 -2.25473019281928
 1  5.90159677687769  0.52301826432643 -3.03715511711171
 1  3.90456057425743  0.01174236103610 -3.10795162026203
 1  6.50552856905691  1.23936006100610 -0.19342953405341
 1  6.06711475617562  0.03085319571957  0.65658336573657
 1  7.38262504740474 -1.82610933553355 -0.92416317591759
 1  7.54014355685569 -0.37177515691569 -1.92328715771577
 1  9.04750023742374  0.93074191549155 -0.09425927762776
 1  8.81763482628263 -0.48287243874387  0.85041785418542
 1  10.29598226682668 -0.17175461876188 -1.69810438543854
 1  9.05803611981198 -2.73430212341234 -1.42385093289329
 1  10.71446647774778 -2.78655025482548 -1.66781738663866
 1  9.97678269836984 -2.55122680828083  0.11412314301430
 1  11.15985128252825  0.74506328642864  0.31621020622062
 1  11.25942190569057 -0.70036527302730  1.18955888608861
 1  12.70388509910991 -1.70794236543654 -0.63872708570857
 1  12.72209036123612 -0.43508358735874 -1.69157069076908
 1  13.52687384228423  1.25742545334533  0.14188709960996
 1  13.88512273927393 -0.15310173797380  1.11851869776978
 1  15.32628497269727  0.25743694979498 -1.64541655495550
 1  15.05452100500050 -2.20255283708371 -1.05565489868987
 1  16.58830270377038 -1.80667470407041 -0.80933671757176
 1  15.48882416121612 -1.89536466906691  0.56953622502250
 1  15.76471674487449  1.64324089438944  0.46441690069007
 1  16.27504216101610  0.15124574787479  1.36359978257826
 1  18.26520774247425 -0.02622683318332 -0.41180104790479
 1  17.45807039263926  1.53480536883688 -1.02964139663966
 1  18.30586527602760  2.88092448834883  0.87169255895590
 1  18.59627188138814  1.46066187568757  1.96593374337434
 1  20.48995532793279  0.87805576657666  0.31388254445445
 1  19.59784714131413  3.59365763586359 -1.25575747814781
 1  21.06561380508051  2.67698576827683 -1.66067917451745
 1  19.49686465946595  1.96407202890289 -2.23746592809281
 1  20.65827106360636  2.24159562756276  2.19598063466347
 1  21.84537739493949  2.77174720212021  0.89469362646265
 1  20.48527815721572  3.54985818541854  1.32380111801180
 1 -7.07717955105511  1.70992986618662  0.25738758485849
 1 -7.42291383978398 -0.11513168916892 -0.17328745634563

