%nproc=3
%Mem=2GB
# td=(NStates=1) B3LYP/SVP 

TD

0 1
 6 -5.07323502160216 -1.92390863296330  0.49818469436944
 6 -4.77254757375738  2.77360381208121  1.39997638353835
 6 -9.41732164186419  3.30047084628463 -0.16741520942094
 6 -9.69347740224022 -1.42058286168617 -0.96463901730173
 7 -5.25405456775678  0.39762138503850  0.88535697269727
 6 -4.51000961706171 -0.74653137413741  0.83199664306431
 6 -3.00833051955196 -0.53058949364936  1.38914391019102
 6 -3.07697266266627  0.87714660696070  1.76848595439544
 6 -4.44739393249325  1.39614943284328  1.35722931993199
 6 -3.12175074357436  0.93813132543254  3.43884174677468
 6 -2.01977404810481 -0.63988395009501  0.18500644624462
 6 -0.62088530073007 -0.57131534813481  0.57254970767077
 6  0.34689835123512 -0.81945881878188 -0.77222878047805
 8  0.10053182078208 -1.23235560216022 -1.85123873537354
 8  1.62113231033103 -0.66771354445445 -0.18144058675868
 7 -7.16152074667467  2.73729100090009  0.54399390859086
 6 -5.99039061446145  3.37651206950695  1.03094395129513
 6 -6.29292247794779  4.78192463196320  0.99470596339634
 6 -7.55221431823182  5.02346118161816  0.63429995739574
 6 -8.04621556745675  3.60781927562756  0.22712286768677
 6 -5.26535705220522  5.79122463756376  1.39637090309031
 6 -8.32712999569957  6.29425343694369  0.50911941324132
 6 -9.23298119631963  6.67231695359536 -0.49309178797880
 7 -9.20677887848785  0.88801603460346 -0.52492496089609
 6 -9.91309517241724  1.95667816651665 -0.58739800900090
 6 -11.34915878237824  1.75569913091309 -0.94635846974697
 6 -11.39195314581458  0.47864520462046 -1.18875383008301
 6 -10.06106833253325 -0.18813876557656 -0.92092533503350
 6 -12.38416691759176  2.78508701030103 -0.97380047034703
 6 -12.57992573207321 -0.38991147064706 -1.69088004770477
 6 -12.50149027972797 -0.66438970337034 -3.28402657395740
 7 -7.41126008360836 -1.31955364056406 -0.24558308680868
 6 -8.58090967846785 -2.11068979577958 -0.63381674407441
 6 -8.13203564256426 -3.44250113231323 -0.73099566686669
 6 -6.76051096019602 -3.41494832313231 -0.23603122702270
 6 -6.44342544594459 -2.12725554415442 -0.03494841864186
 6 -8.89643240084008 -4.65250600010001 -1.33979297369737
 6 -5.68773571877188 -4.25065010011001  0.02013295889589
 8 -5.57922741294129 -5.51151068116812 -0.04791205710571
 6 -4.51042867146715 -3.27734849644964  0.50028909100910
 6 -3.89956375427543 -3.73814790829083  1.83442996869687
 8 -4.02114718821882 -3.29988792269227  2.95524359245925
 8 -3.16001468906891 -4.84307928082808  1.58475890379038
 6 -2.50340504430443 -5.54885433153315  2.75784792439244
 6  2.63381555015502 -0.80998489608961 -1.19709373517352
 6  3.93123637043704 -0.47976847924792 -0.65152725282528
 6  4.93088534513451  0.16073712861286 -1.21164512111211
 6  5.04669386508651  0.75647637933793 -2.63242035883588
 6  6.20765251045104  0.44621236043604 -0.42042095629563
 6  7.45870711111111 -0.28049423232323 -0.95838270517052
 6  8.73777537863786 -0.12966695179518  0.00872252475248
 6  9.99848077377738 -0.78183250985099 -0.56924427922792
 6  9.88868490709071 -2.24518832173217 -0.42424170907091
 6  11.19883373357336 -0.17577189188919  0.23773321762176
 6  12.68261993619362 -0.57593291049105 -0.46971149424943
 6  13.84630321972197  0.10352312611261  0.20985304080408
 6  15.22621153295329 -0.23448432993299 -0.43687724562456
 6  15.58162773457346 -1.75683454885489 -0.52628139643964
 6  16.29311005530553  0.60709522682268  0.35977499979998
 6  17.69417430623063  0.64166708440844 -0.23611751315132
 6  18.74095501980198  1.43394772367237  0.56996781298130
 6  20.12536443804380  1.43212101670167 -0.01722999549955
 6  20.24266496539654  2.11081765786579 -1.40503858165817
 6  21.19397191849185  2.07269860866087  0.99599138733873
 1 -3.90569823012301  3.55101633363336  1.62793767466747
 1 -10.07622547564756  4.02524976707671 -0.03985530823082
 1 -10.51582583898390 -1.96528368386839 -1.39076854995500
 1 -2.75749807680768 -1.44354358955896  2.09016989268927
 1 -2.26202751725172  1.47466768996900  1.42212512471247
 1 -2.11692195019502  0.49803617201720  3.58320742474247
 1 -3.47274276617662  2.00777582728273  3.82459265446545
 1 -3.97643724062406  0.31277646214621  3.64970014621462
 1 -2.26357186558656 -1.58296302940294 -0.30645509270927
 1 -2.14960830023002  0.11708789978998 -0.69056575077508
 1 -0.03750957075708  0.18972282588259  1.04868522982298
 1 -0.18470881018102 -1.38965092369237  1.19325683408341
 1 -4.29502431893189  5.48144251235123  0.75210801060106
 1 -5.40763596999700  6.93353826852685  1.03630292489249
 1 -5.01454954175418  5.89534757875788  2.43073720772077
 1 -8.27832284168417  7.12788266276628  1.02890444434443
 1 -9.59011436333633  6.13431359185919 -1.29288087418742
 1 -9.65297004360436  7.53940266776678 -0.52321254415442
 1 -12.78549291129113  3.69523871107111 -0.19514732783278
 1 -12.29122297059706  3.44292825022502 -2.09770908770877
 1 -13.51214223702370  2.21816965266527 -1.07832218761876
 1 -12.26453882708271 -1.33042196889689 -1.04862961406141
 1 -13.62629965446545  0.18616277097710 -1.33076543534353
 1 -12.44666029592959  0.16530334343434 -4.00873821812181
 1 -11.64003897189719 -1.16953452705271 -3.36639559165917
 1 -13.28683543704371 -1.17961705650565 -3.58562610491049
 1 -9.79596614541454 -4.86851617141714 -0.67610991299130
 1 -9.13208718761876 -4.26560450645064 -2.46595349354935
 1 -8.12294746944695 -5.52139040604060 -1.18186614211421
 1 -3.64669652105210 -3.50736702690269 -0.21784313291329
 1 -2.01468186118612 -6.53892898859886  2.27737107120712
 1 -1.90836928332833 -4.82223570747075  3.32376681928193
 1 -3.46817983438344 -5.74146923852385  3.50193706930693
 1  2.46121002850285 -1.85548319181918 -1.66528769576958
 1  2.37215210971097 -0.17507508830883 -2.12315008220822
 1  4.04803757545755 -0.91132344664466  0.41226912991299
 1  5.30851268046805  1.88080058905891 -2.32758747854785
 1  6.00809742694269  0.17237319981998 -3.09055045664566
 1  4.09225934413441  0.62096328312831 -3.20666149124912
 1  6.39646766296630  1.47243336833683 -0.41165135623562
 1  6.18197624232423  0.41005111551155  0.66927463486349
 1  7.07901468636864 -1.41449817441744 -0.98093885348535
 1  7.63273281578158  0.13414543514351 -1.93421825082508
 1  8.68039352675267  1.02348118941894  0.01323147144714
 1  8.41248431123112 -0.40387453895389  1.18695150755076
 1  10.15511818041804 -0.45026246954695 -1.67018159315932
 1  8.97458777497750 -2.69228792199220 -0.81522006980698
 1  10.80663569466947 -2.87014861466147 -0.89911051595159
 1  9.86682170227023 -2.38800048564856  0.74761649234924
 1  11.48244354175418  0.98220700080008  0.23736232143214
 1  11.15608157165717 -0.68871410791079  1.28091802200220
 1  12.57454216481648 -1.63667523872387 -0.39032224522452
 1  12.52026017821782 -0.26200627962796 -1.63149468316832
 1  13.68859001390139  1.08754846564656  0.24526743764376
 1  13.80583481048105 -0.27513394119412  1.28798564446445
 1  15.22923526772677  0.09827103320332 -1.52983499679968
 1  14.63529908280828 -1.93651623342334 -1.16554588778878
 1  16.58864273777378 -2.07055109170917 -0.89330511441144
 1  15.60445572437244 -2.05825095769577  0.42894216561656
 1  16.11793206640664  1.76385295559556  0.48946940594059
 1  16.16169082588259  0.19606022932293  1.42862628522852
 1  18.03915513721372 -0.53436764726473 -0.39600946874687
 1  17.63815840144014  1.05119700800080 -1.24074250675068
 1  18.37637232673267  2.56437283318332  0.76968235793579
 1  18.56470872507251  1.11103691319132  1.60690784078408
 1  20.41430776317632  0.37694565556556 -0.22677152095210
 1  19.99170652725273  3.23684195429543 -1.35035693809381
 1  21.34643188688869  2.01102917261726 -1.67665077167717
 1  19.36725169816982  1.58641426312631 -2.04908709020902
 1  21.12088732523252  1.61864333233323  2.07016805340534
 1  22.18583144034404  2.18966899429943  0.32276643374337
 1  20.66606623602360  3.10915411501150  1.15047378527853
 1 -7.24244607770777  1.69209808300830  0.56810865696570
 1 -7.49314086248625 -0.39440961696170 -0.16543667126713

