%nproc=3
%Mem=2GB
# td=(NStates=1) B3LYP/SVP 

TD

0 1
 6 -5.14359205730573 -2.02161840394039  0.37025190109011
 6 -4.69941026002600  2.51965841754175  1.55138152405241
 6 -9.13754366406641  3.46694749394939 -0.18791725962596
 6 -9.81929998449845 -1.25026582998300 -1.02884543794379
 7 -5.21054021632163  0.26007763066307  0.91418985598560
 6 -4.60708932503250 -0.91015773677368  0.95269871327133
 6 -3.07676736323632 -0.78994542924292  1.39909490529053
 6 -3.00504546994699  0.64894378667867  1.85037414321432
 6 -4.35560475357536  1.21192101000100  1.47393099009901
 6 -2.99260782928293  0.63515102740274  3.44884274687469
 6 -2.03369544024402 -1.04846480818082  0.18032597819782
 6 -0.59038225042504 -0.98825704230423  0.69731218391839
 6  0.43287694909491 -1.44378125102510 -0.43661521912191
 8  0.05958772637264 -1.91871423802380 -1.50484409590959
 8  1.61145134223422 -1.02644941804180 -0.18820126282628
 7 -6.90808540314031  2.82952022382238  0.62219172837284
 6 -5.78106968236824  3.31727614591459  1.18870972787279
 6 -5.97378056375638  4.68590503000300  1.00832732553255
 6 -7.16411550835083  4.94064289978998  0.43924045144514
 6 -7.78133907980798  3.66684517821782  0.19946010141014
 6 -4.81842235873587  5.70278579367937  1.36089735573557
 6 -7.67599488218822  6.29865387698770  0.13747224852485
 6 -8.51358925712571  6.65859558145815 -0.93287576637664
 7 -9.18659686028603  1.09409664266427 -0.41000346874687
 6 -9.70318418131813  2.23730622932293 -0.45628489768977
 6 -11.22482634913491  2.15073863486349 -1.01449528342834
 6 -11.40546449694969  0.76737407750775 -1.17833278797880
 6 -10.06837906360636  0.13797384568457 -0.92380562306231
 6 -12.14515301620162  3.30519902150215 -1.09418250855086
 6 -12.59683742324232 -0.01700417991799 -1.61030198989899
 6 -12.67018714941494 -0.42632589698970 -3.17667583888389
 7 -7.48439739733973 -1.27605929112911 -0.38800732923292
 6 -8.57929951745175 -1.93748247504750 -0.70036339873987
 6 -8.29368180718072 -3.35917279947995 -0.79907247454745
 6 -6.95137004610461 -3.41658848714871 -0.27263488738874
 6 -6.46850795419542 -2.10753357195720 -0.08200312411241
 6 -9.20996375397540 -4.53886463596360 -1.21929092349235
 6 -5.92749969516952 -4.36310134523452  0.00320126572657
 8 -5.94256374657466 -5.56411594169417 -0.10586785268527
 6 -4.66997462606261 -3.50450121172117  0.55598466056606
 6 -4.04096789468947 -3.96840093359336  1.78336486218622
 8 -4.35914098759876 -3.54686262016202  2.85542361046105
 8 -3.22973166076608 -4.97134210711071  1.56186661456146
 6 -2.92865756955696 -5.65313475957596  2.70077221682168
 6  2.63056522512251 -1.26769066666667 -1.13004703050305
 6  4.02800604740474 -0.66348685108511 -0.55568766886689
 6  4.93920617721772  0.09880093499350 -1.11687564416442
 6  4.84845404110411  0.57108784048405 -2.54282139893989
 6  6.23114485968597  0.29043678287829 -0.36188510271027
 6  7.43690493089309 -0.27218340124012 -1.00485735263526
 6  8.67337893899390 -0.13284726982698 -0.22612095959596
 6  10.07385831153115 -0.70415474207421 -0.79718707350735
 6  9.95642168076808 -2.17172097499750 -0.82778206310631
 6  11.20968481868187 -0.14733904860486  0.08360780508051
 6  12.55480715491549 -0.41594691189119 -0.42712723582358
 6  13.73654224362436  0.27976074987499  0.34864692019202
 6  15.17212612441244 -0.06880776227623 -0.20863442134213
 6  15.48643821562156 -1.57139600500050 -0.21564033233323
 6  16.18748949324933  0.83041755905591  0.45182420472047
 6  17.55913080188019  0.87100001770177 -0.18717261866187
 6  18.51473239753975  2.00813514241424  0.45889670587059
 6  19.97313921552155  1.89507731233123 -0.12642091459146
 6  20.23955465436544  2.21843841994199 -1.45190326812681
 6  20.87245976727673  2.71861320012001  0.82546433463346
 1 -3.93774143444344  3.13140437243724  2.03727860876088
 1 -9.75839369246925  4.43518076017602 -0.19822114481448
 1 -10.75353961036104 -1.72736989248925 -1.18684815791579
 1 -2.82924525152515 -1.49638887408741  2.29012988868887
 1 -2.25294660916092  1.24169439263926  1.49285219741974
 1 -1.89636989498950  0.58858522692269  3.81298040204020
 1 -3.38116360826083  1.67721277097710  3.61739193439344
 1 -3.68404800170017 -0.11685650115011  3.87698287448745
 1 -2.08928443684368 -2.00484521762176 -0.37693214041404
 1 -2.25715905530553 -0.11376518551855 -0.52664935913591
 1 -0.32628844864486  0.00703455705571  0.99929029032903
 1 -0.46001634093409 -1.68459041764176  1.30401791019102
 1 -4.14622943944394  5.62445681378138  0.50535333513351
 1 -5.22515772217222  6.83187810251025  1.32868216281628
 1 -4.17658574537454  5.53645168916892  2.29024315831583
 1 -7.31494650405040  7.05151502600260  0.93579513341334
 1 -8.77795314721472  6.00887104760476 -1.87009859595960
 1 -8.64906965356536  7.77972670017002 -1.24285450835083
 1 -12.47851221322132  3.70670985818582 -0.12196000910091
 1 -11.63869771807181  4.13362732013201 -1.71198051485149
 1 -13.12225324812481  2.85579341504150 -1.44994935033503
 1 -12.69798217141714 -0.92727165386539 -0.85254000510051
 1 -13.51408843334333  0.76069022372237 -1.66427878667867
 1 -12.60952658255825  0.39150596369637 -3.88940628492849
 1 -11.75564053205321 -0.95480305390539 -3.47965691779178
 1 -13.75265201870187 -0.74209330413041 -3.15999354165417
 1 -10.10211676047605 -4.46531585138514 -0.64976727872787
 1 -9.67427140604060 -4.35617356335634 -2.25263216141614
 1 -8.67284245894589 -5.54637290429043 -0.90123807930793
 1 -3.96169802120212 -3.67843413361336 -0.47517886648665
 1 -2.47586797979798 -6.64494959065907  2.59491282538254
 1 -2.35098354475448 -4.93293677757776  3.25289973257326
 1 -3.64793781018102 -6.02981807340734  3.37155403100310
 1  2.65766967446745 -2.23575121862186 -1.17355852285229
 1  2.31112600710071 -1.06762434323432 -2.05377314451445
 1  4.18830160186019 -1.10514282858286  0.67514541754175
 1  5.07992982218222  1.58469097809781 -2.58127284708471
 1  5.74567118431843  0.16717267976798 -3.06574797639764
 1  3.98628874707471  0.67434862166217 -2.99494031913191
 1  6.53727174337434  1.42723884888489 -0.33453364446445
 1  6.16468451315131  0.07211732213221  0.67012471987199
 1  7.24131091599160 -1.46002272687269 -1.10529128872887
 1  7.48729827232723  0.26886890749075 -2.05584041304130
 1  8.73912940034003  0.89250809210921 -0.17633748544854
 1  8.90675373817382 -0.51849600110011  0.86994980738074
 1  10.17937060566057 -0.36261370467047 -1.92081665666567
 1  9.18396871307131 -2.66686537973797 -1.65879442724272
 1  10.94775980708071 -2.65673727352735 -1.15514611951195
 1  9.84794981508151 -2.62140382598260  0.22335406610661
 1  10.96050134753475  0.93690247034704  0.27632621782178
 1  11.05284124762476 -0.78449368586859  0.99940987118712
 1  12.92182689328933 -1.43850542174217 -0.67248046104610
 1  12.69236738893889  0.09016893789379 -1.43132466616662
 1  13.44950610551055  1.27744745554555  0.57080999189919
 1  13.71362558955895 -0.13460988878888  1.35582242814281
 1  15.44684702890289  0.40891209730973 -1.15760777407741
 1  14.66343189608961 -2.09269185098510 -0.78895822902290
 1  16.32738661216122 -1.72686672327233 -0.71193697759776
 1  15.57141242004200 -1.95777090969097  0.91978124952495
 1  15.71611188438844  1.79088565886589  0.35826628562856
 1  16.33465812261226  0.67538816211621  1.51317474007401
 1  18.08593981568157 -0.11880609110911 -0.05032490029003
 1  17.48611319691969  0.96400828912891 -1.39346777927793
 1  18.30841553105311  3.06034243014301  0.28755414511451
 1  18.46847910211021  1.81442725222522  1.48248539853985
 1  20.11935826822682  0.78012597359736  0.21641279747975
 1  20.41582893949395  3.41659993009301 -1.55672757515752
 1  21.22999024272427  1.74764283398340 -1.88531163776378
 1  19.38618359135913  1.93622924462446 -2.35440762226223
 1  21.14975021152115  2.20340180818082  1.72549358595860
 1  21.76855971317132  2.96182621002100  0.33306746384639
 1  20.60255988538854  3.88220141974197  0.95033377127713
 1 -7.22941477457746  1.76727560076008  0.66339818591859
 1 -7.59999154755475 -0.32344252025203 -0.08993912151215

