%nproc=3
%Mem=2GB
# td=(NStates=1) B3LYP/SVP 

TD

0 1
 6 -5.15149284738474 -1.95349159125913  0.47022189808981
 6 -4.68977929692969  2.71944839653965  1.36380276617662
 6 -9.28770868056806  3.40096089528953 -0.19182765066507
 6 -9.85368342284228 -1.35756656005601 -0.86846940034003
 7 -5.18649781208121  0.50425204810481  0.85395383238324
 6 -4.49771838793879 -0.71932865386539  0.90745418881888
 6 -3.06387607410741 -0.57156359105911  1.26055105090509
 6 -2.98170313571357  0.87491638393839  1.79262836863686
 6 -4.33517271037104  1.45023484138414  1.34066766376638
 6 -2.87692626112611  1.01710922322232  3.32784064666467
 6 -2.10857292799280 -0.87296725842584 -0.02134418881888
 6 -0.61737494969497 -0.77345556215622  0.42049450215021
 6  0.39786344774477 -1.20839771267127 -0.71010256785679
 8  0.03444521212121 -1.56724909150915 -1.75903951545155
 8  1.57217741484148 -1.02654942804280 -0.11252369506951
 7 -6.98989358395840  2.70060733253325  0.47524703390339
 6 -5.90600217561756  3.40099451775178  0.92694355125513
 6 -6.17071025672567  4.79883632313231  0.97116360916092
 6 -7.45237433423342  4.97944678017802  0.50391691909191
 6 -8.00040098599860  3.73931242494249  0.16392654805481
 6 -5.10843135963596  5.78615413051305  1.37447871387139
 6 -8.03607088978898  6.29775378697870  0.30645914721472
 6 -9.15022292049205  6.64007372927293 -0.52929540834083
 7 -9.11664986558656  1.05646287928793 -0.41608407680768
 6 -9.80706456935694  2.12404490319032 -0.47218648784879
 6 -11.15573944044404  1.98292185318532 -0.95480931483148
 6 -11.38778272877288  0.60885822592259 -1.24171912661266
 6 -10.09263148884888 -0.03606355805581 -0.88874211671167
 6 -12.12140064096410  3.06215471707171 -1.08153124342434
 6 -12.63581132063206 -0.07573005250525 -1.57607856755676
 6 -12.46705683638364 -0.49592285668567 -3.04618278957896
 7 -7.53764272187219 -1.28540022522252 -0.02698122662266
 6 -8.60183177067707 -1.98820754755476 -0.50958432083208
 6 -8.14119655865587 -3.31634851705171 -0.66665923322332
 6 -6.83487839693969 -3.39224605290529 -0.21871949584958
 6 -6.42086318971897 -2.07947076567657  0.17724280048005
 6 -8.97115987358736 -4.53092384188419 -1.15653464786479
 6 -5.81065801100110 -4.29021405650565  0.02377332293229
 8 -5.63986347654765 -5.56496602670267 -0.14548181408141
 6 -4.56600422902290 -3.30861162276228  0.48097715981598
 6 -4.02735653355336 -3.81507560106011  1.73501002670267
 8 -4.19742481598160 -3.52571050495050  2.86656472457246
 8 -3.22126081368137 -4.96691166406641  1.51217164506451
 6 -2.53058776257626 -5.42193163926393  2.62817495709571
 6  2.69631179977998 -1.32719661726173 -1.04077810361036
 6  3.95425867266727 -0.93882438483848 -0.55179727982798
 6  4.87800005660566 -0.10746969206921 -1.01070502710271
 6  4.78796799249925  0.54567529922992 -2.35803292009201
 6  6.21847359255926 -0.01239350015002 -0.21299021322132
 6  7.47677891829183 -0.47335351825183 -0.98417528442844
 6  8.75598719981998 -0.24893887898790 -0.14922326982698
 6  10.06215714141414 -0.91460578717872 -0.80700805560556
 6  9.97569360796080 -2.40655445834583 -0.94446373127313
 6  11.27199104930493 -0.40280459515952 -0.07646820252025
 6  12.62591426562656 -0.69827514471447 -0.62203672677268
 6  13.77427601700170 -0.05470269646965  0.21066312181218
 6  15.28379729152915  0.04986410491049 -0.46470002790279
 6  15.65870544234423 -1.41110997639764 -0.74488325662566
 6  16.17687843214322  0.81162567986799  0.39215823812381
 6  17.66883177197720  0.93929684738474 -0.14829873127313
 6  18.49760068436844  1.90201453035304  0.66693750995100
 6  20.00408230983098  1.81977978257826  0.28502022952295
 6  20.26990768966897  2.23827040314031 -1.21006908470847
 6  20.84595711701170  2.78490982978298  1.18112990119012
 1 -4.00167782808281  3.42536376837684  1.81613649454946
 1 -10.04900275337534  4.15591283338334 -0.29411073377338
 1 -10.65292954935494 -2.10768792429243 -1.13205267836784
 1 -2.92767509450945 -1.09198843404340  2.11382225792579
 1 -2.00507182168217  1.53119334253425  1.42152506470647
 1 -1.87987824582458  0.69264563296330  3.64821392539254
 1 -3.06781227312731  2.20450550025003  3.58915911111111
 1 -3.54056365326533  0.40673585808581  3.77683285948595
 1 -2.32653816221622 -1.74716945004501 -0.59847429462946
 1 -2.23577691709171 -0.14349815881588 -0.70880757495750
 1 -0.24643046284628  0.16401025462546  0.65391575287529
 1 -0.32973331263126 -1.46213817241724  1.21994950335033
 1 -3.90345516201620  5.66204057215722  0.99192199199920
 1 -5.35900110651065  6.90926584128413  1.03193248784878
 1 -4.95621370817082  5.88798684268427  2.73342747674767
 1 -7.31205621502150  7.34923479797980  0.71253280718072
 1 -9.75690104200420  5.88595875637564 -1.17866945304530
 1 -9.41451619821982  7.68679740724073 -0.36136635953595
 1 -12.41860622262226  3.41977116431643 -0.06631444454445
 1 -11.72344619291929  3.93859781718172 -1.86864618141814
 1 -13.16162718551855  2.64016185188519 -1.44273862926293
 1 -12.84544691789179 -1.31601052775277 -1.13972872397240
 1 -13.36640366486649  0.68203235793579 -1.56390874967497
 1 -12.15852148204820  0.43709052215222 -3.76277362166217
 1 -11.87913288128813 -1.31380895449545 -3.07987693979398
 1 -13.63577033053305 -0.84029312411241 -3.52001954425443
 1 -9.79795634443444 -4.80423974377438 -0.50798310031003
 1 -9.61564554345435 -4.32026997299730 -2.02645954415442
 1 -8.42257743244324 -5.46907517451745 -1.25305326082608
 1 -3.79035088648865 -3.39390568076808 -0.28170951955196
 1 -2.14914530753075 -6.47334242994299  2.10854418851885
 1 -1.57219566596660 -4.86042952685269  3.06441088368837
 1 -3.42690570697070 -5.38844393599360  3.46683355895590
 1  2.57634154165416 -2.49469711321132 -1.19139030603060
 1  2.63405830033003 -0.96706428722872 -2.08848661586159
 1  4.28911168286829 -1.36715903020302  0.43674157715772
 1  5.27565939513951  1.46392890189019 -2.46371109090909
 1  5.27407402460246 -0.08010204770477 -3.12577397899790
 1  3.55564568276828  0.74419560636064 -2.56259708480848
 1  6.28901691789179  1.12675880088009  0.08000780968097
 1  6.04411245594559 -0.64521441104110  0.83784149154916
 1  7.44807159205921 -1.50851757635764 -1.20400115971597
 1  7.28933847634764  0.03008502910291 -2.02999782878288
 1  8.95958144554455  0.84511335263526  0.09522967126713
 1  8.69646270907091 -0.68060221172117  0.98868168056806
 1  10.00565323392339 -0.31683912721272 -1.89563413841384
 1  9.02058237443744 -2.81763045624562 -1.52684123192319
 1  10.86558158925892 -3.10941254105411 -1.42255286018602
 1  9.95350037013701 -2.94804649024903 -0.06424469376938
 1  11.13636893429343  0.58433721382138  0.15496408160816
 1  11.30249621312131 -0.96511174767477  1.11680161036104
 1  12.63781849244925 -1.92248381958196 -0.66886009900990
 1  12.75703385558556 -0.51283136213621 -1.74610614431443
 1  13.48283943884388  0.98534824562456  0.44943785468547
 1  13.79109333633363 -0.52442887068707  1.28383522942294
 1  15.25796814101410  0.59359056515652 -1.51428344164416
 1  14.98853440634063 -1.98785136693669 -1.34235356855686
 1  16.72290616411641 -1.61825586218622 -1.34435021892189
 1  15.53258853765376 -2.23742887548755  0.03066233763376
 1  15.74218449164916  1.67381395169517  0.63123358235824
 1  16.15521017781778  0.25772639593959  1.42481590419042
 1  18.40155137683768  0.06594238373837 -0.11292115991599
 1  17.48474305990599  1.17050893919392 -1.22049048154815
 1  17.99152384188419  2.99251564746475  0.63471886158616
 1  18.36370862506251  1.52385819531953  1.67937508750875
 1  20.40528686108611  0.73943190419042  0.43650480668067
 1  19.90988834543455  3.16515478557856 -1.25476737913791
 1  21.44404164786479  2.23911198089809 -1.34657776437644
 1  19.76779175217522  1.50859648134813 -1.94404658615862
 1  20.63588882538254  2.56110757875788  2.29626066266627
 1  21.90866372357236  2.46528655605561  1.17323148024802
 1  20.58956858625863  3.90958415801580  1.02643138103810
 1 -7.32946477957796  1.68671754495450  0.41031287738774
 1 -7.38368991739174 -0.19079925592559  0.13170304270427

