%nproc=3
%Mem=2GB
# td=(NStates=1) B3LYP/SVP 

TD

0 1
 6 -5.06856455455546 -1.85735197729773  0.52943781968197
 6 -4.83640395939594  2.82024847654765  1.40899728562856
 6 -9.42388229792979  3.36151695089509 -0.14511297919792
 6 -9.75459351385138 -1.47152795619562 -0.96231878527853
 7 -5.20033919621962  0.51078270117012  0.93443188018802
 6 -4.48278689478948 -0.65431215221522  0.93306675007501
 6 -3.03487317381738 -0.36368280298030  1.28060305610561
 6 -3.07507247264726  1.02111100340034  1.76393549934993
 6 -4.39309850295029  1.47595741364136  1.36012960996100
 6 -3.09612818131813  1.10376788908891  3.38904676727673
 6 -2.05582765346535 -0.75194515621562  0.14481242684268
 6 -0.57027023922392 -0.74988320492049  0.47441989468947
 6  0.44230789218922 -0.99578645154515 -0.61434299189919
 8  0.18005977357736 -1.35041740834083 -1.74842845434543
 8  1.66384658175818 -0.92107888098810 -0.18098054075408
 7 -7.15665025962596  2.76710398219822  0.51921143034303
 6 -6.03543511891189  3.43740815911591  0.99487034393439
 6 -6.42915610131013  4.82212865236524  1.07418391119112
 6 -7.63456255305531  4.94815365086509  0.58655518291829
 6 -8.14752569846985  3.70579907360736  0.31236139153915
 6 -5.43477399389939  5.79250476557656  1.61481274727473
 6 -8.39161644434443  6.24055806740674  0.52845134643464
 6 -9.01409930813081  6.67770749264927 -0.59370184898490
 7 -9.23491169176918  0.85396262926293 -0.42930539893989
 6 -9.87454131703170  2.03499599829983 -0.47508677787779
 6 -11.25929979647965  1.88196175717572 -0.93567740164016
 6 -11.51725567606761  0.48659599969997 -1.20420537523752
 6 -10.10780300600060 -0.05302525422542 -0.83981722422242
 6 -12.20980948184818  2.89569807140714 -1.08882197249725
 6 -12.57221496099610 -0.34661714121412 -1.62933389308931
 6 -12.51054118481848 -0.50541380578058 -3.23193136443644
 7 -7.42319127672767 -1.32148383358336 -0.21500002850285
 6 -8.51435302280228 -2.01986071287129 -0.63949731213121
 6 -8.00766320532053 -3.33870075227523 -0.78003057035704
 6 -6.72354726382638 -3.39869669796980 -0.31103872777278
 6 -6.36763786718672 -2.10117293589359  0.10580565676568
 6 -8.82151490909091 -4.58595934543454 -1.21965095949595
 6 -5.65032197739774 -4.30714574967497 -0.10483953835384
 8 -5.59080857105711 -5.49099862996300 -0.04803206910691
 6 -4.41610923952395 -3.31923268486849  0.55022408450845
 6 -3.85494929282928 -3.84314840834083  1.74704122982298
 8 -4.25089016251625 -3.44885281918192  2.92074014211421
 8 -3.06687537513751 -4.75725069796980  1.47118754665467
 6 -2.22476718051805 -5.38318776487649  2.57218935853585
 6  2.66366853545355 -1.14821871947195 -1.15639966576658
 6  4.03010625742574 -0.74348485088509 -0.58494059415942
 6  4.92928518511851 -0.01237018211821 -1.22569652625263
 6  4.82865206090609  0.64941567326733 -2.64826194299430
 6  6.27107885308531  0.14642238143814 -0.53381229542954
 6  7.52026326672667 -0.55680186308631 -1.15794266116612
 6  8.72112371347135 -0.22125611071107 -0.23491183868387
 6  10.02338326402640 -0.83715804240424 -0.83965131993199
 6  10.06923296189619 -2.42477628052805 -0.87858714361436
 6  11.20927477767777 -0.27953226792679 -0.00644119981998
 6  12.65796747094710 -0.64659997719772 -0.56538106120612
 6  13.80573916331633  0.23904667846785  0.23667572307231
 6  15.22968187998800 -0.16636751825183 -0.24216777467747
 6  15.57524709650965 -1.71606047144714  0.08871010271027
 6  16.17005775007501  0.86490100740074  0.42293131543154
 6  17.66534142294229  0.69059197689769 -0.03470737213721
 6  18.62441336563656  1.69313364226423  0.59987080328033
 6  20.06026792839284  1.56799460406041  0.09256098359836
 6  20.16435713461346  1.98162473857386 -1.41171924972497
 6  20.96099862116212  2.36979831863186  0.96070785898590
 1 -4.13445110541054  3.54420565256526  1.95106998789879
 1 -10.06864471757176  4.21469871197120 -0.40720204290429
 1 -10.47107136353635 -2.30261741724172 -1.31639111221122
 1 -3.07498982598260 -1.36334556975698  1.94987586328633
 1 -2.31588290279028  1.59287951115111  1.20024293649365
 1 -2.16959721772177  0.99895626402640  4.01645074907491
 1 -3.29469496139614  2.08627367706771  3.92405260046005
 1 -3.69735933283328  0.36682186668667  3.86897207340734
 1 -2.40439594799480 -1.66320105320532 -0.42146659385939
 1 -2.50832417181718 -0.00627443644364 -0.76941363556356
 1 -0.29005482528253  0.20421427502750  0.65796615791579
 1 -0.31121146044604 -1.31648360696070  1.32711021942194
 1 -4.70790560706071  6.26121048914891  0.66795959575958
 1 -5.97825303170317  6.71398631333133  1.91517081168117
 1 -4.92182026882688  5.46155419941994  2.54546868086809
 1 -8.33639864926493  6.92381225572557  1.55442699659966
 1 -9.16198155005501  6.21140130063006 -1.48095968206821
 1 -9.51710645724572  7.57632636013601 -0.48616883978398
 1 -12.16160052205221  3.72955214241424 -0.23500131323132
 1 -11.95264911321132  3.33600755815581 -2.19295861266127
 1 -13.29498052085208  2.45751358705871 -1.35002935833583
 1 -12.74600697389739 -1.37022594929493 -1.22679743084308
 1 -13.46113313781378  0.25438959365937 -1.48537089588959
 1 -12.38335396529653  0.44393120622062 -3.93706105040504
 1 -11.74609957795780 -1.21708928252825 -3.27938689078908
 1 -13.32385913941394 -1.27056615141514 -3.69422696499650
 1 -9.81254780358036 -4.55220454025403 -0.67726002800280
 1 -9.12737671657166 -4.62700064606461 -2.32039893809381
 1 -8.10640581528153 -5.50703897089709 -1.10469842534253
 1 -3.78948079947995 -3.17773406360636 -0.26243759235924
 1 -1.85663605660566 -6.28757385308531  2.04628796289629
 1 -1.57019546594659 -4.70360384428443  2.96138058065807
 1 -2.85399841624162 -5.61346643824382  3.55899277487749
 1  2.46215012251225 -2.08643628712871 -1.61561272827283
 1  2.42710760526053 -0.42198977977798 -1.91013878107811
 1  4.47471024272427 -1.07164947924792  0.41647955095510
 1  5.00649247844784  1.61514402340234 -2.69467418721872
 1  5.52807942514251  0.23611957445745 -3.39768116971697
 1  3.89037915611561  0.55688687548755 -2.94362518761876
 1  6.55160317651765  1.33249937493749 -0.42760295139514
 1  6.15999404410441 -0.07523741334133  0.53677138453845
 1  7.38179496439644 -1.69303602820282 -1.32750350995100
 1  7.61161070357036 -0.11500948034804 -2.17313214221422
 1  9.07213270067007  0.81784062536254 -0.32402225392539
 1  8.46025908870887 -0.35780993249325  0.80258307070707
 1  9.95016768536854 -0.41121856515652 -1.80538511351135
 1  9.29963027922792 -2.68804749794980 -1.49914846264626
 1  10.89995502660266 -2.94028562836284 -1.21696230113011
 1  9.57020204030403 -2.94420610621062  0.11290302100210
 1  11.08909420682068  0.83495227532753  0.21151973717372
 1  11.00055601910191 -0.67665290179018  0.88303823402340
 1  12.98135284588459 -1.83108467966797 -0.43639685268527
 1  12.76323447564756 -0.39375945494549 -1.66003753745375
 1  13.56878803370337  1.22162187298730 -0.11350843994399
 1  13.82713694069407  0.09288286048605  1.39177602350235
 1  15.23179552375237 -0.04860365426543 -1.43696570987099
 1  15.02833838673867 -2.56822940474047 -0.37117645084508
 1  16.58262213571357 -1.84841887848785 -0.05466125002500
 1  15.33770904970497 -2.01634676727673  1.20098937033703
 1  15.91728200140014  1.85572214251425  0.05566602560256
 1  15.84754941174117  0.83131375467547  1.55807923052305
 1  17.86290751245124 -0.57627183768377  0.20507063926393
 1  17.79360394599460  0.62793468176818 -1.30808924142414
 1  18.06900158965897  2.68764516041604  0.38055344504450
 1  18.42748500270027  1.42351816131613  1.54193134313431
 1  20.39315564796480  0.47750571157116  0.22701385758576
 1  19.99353671027103  2.99395766586659 -1.54192609500950
 1  21.41237848154816  2.10736880658066 -1.71261436803680
 1  19.45182015501550  1.34871049274927 -2.15730791229123
 1  20.83961919841984  1.85391685968597  1.94416545314531
 1  22.01989484668467  2.44698472587259  0.82283644074407
 1  20.80207983738374  3.49617281688169  0.85427416531653
 1 -7.34772660576058  1.74307318051805  0.44242608870887
 1 -7.56254780318032 -0.39775995199520  0.26920679307931

