%nproc=3
%Mem=2GB
# td=(NStates=1) B3LYP/SVP 

TD

0 1
 6 -5.05303300140014 -1.89232547464746  0.45238011391139
 6 -4.72022234123412  2.81718817051705  1.39275566146615
 6 -9.41040094979498  3.24720551975197 -0.24057252515252
 6 -9.83934198869887 -1.55935673907391 -0.80358291169117
 7 -5.13315247754776  0.59483110601060  0.83574201120112
 6 -4.42917153325333 -0.60014673567357  0.69537298069807
 6 -2.97847753425343 -0.45812224692469  1.23375837163716
 6 -2.95580054545455  1.00154904720472  1.70119922572257
 6 -4.40456965006501  1.44348416631663  1.34676827382738
 6 -2.83385195369537  1.03165067736774  3.34561242384238
 6 -2.04222629332933 -0.69251921362136  0.02160010561056
 6 -0.59997320952095 -0.71358957555756  0.36980943364336
 6  0.36672033343334 -0.90670754365437 -0.72834439203920
 8  0.01743351095110 -1.29031139773977 -1.88540215171517
 8  1.60997119421942 -0.73787056015602 -0.27071951465147
 7 -6.99613420802080  2.70637790959096  0.50347985718572
 6 -5.89093066846685  3.43926834513451  1.04929578647865
 6 -6.31508469416942  4.76598303780378  0.89295578837884
 6 -7.60645974277428  4.93593242874287  0.40655718311831
 6 -8.12393333923392  3.52848134183418  0.18540869626963
 6 -5.44216473297330  5.96331184628463  1.36499776577658
 6 -8.34918220092009  6.16408041964196  0.18564706600660
 6 -9.22442034023402  6.50823054495450 -0.82425490429043
 7 -9.20960916151615  0.74821205420542 -0.40052252065207
 6 -9.88068193109311  1.93461596029603 -0.46946621582158
 6 -11.33837770427043  1.78369193019302 -0.81719555345535
 6 -11.37139108960896  0.41994933503350 -1.09235419011901
 6 -10.16383860956095 -0.21145109680968 -0.81554479697970
 6 -12.35520402130213  2.84228272987299 -0.94710780108011
 6 -12.71465920542054 -0.36515899539954 -1.49473043274327
 6 -12.81717184788479 -0.46303956835684 -3.08738690999100
 7 -7.54361331893189 -1.26870855605561 -0.10904943344334
 6 -8.61017260476048 -2.13428215501550 -0.45718908130813
 6 -8.14731717071707 -3.54455133733373 -0.54322688998900
 6 -6.77410231933193 -3.38577540584058 -0.07396502040204
 6 -6.42701380478048 -2.07687050565056  0.16320139633963
 6 -8.91683444104410 -4.72266301580158 -0.91611060546055
 6 -5.61726867206721 -4.27836287138714  0.10520146574657
 8 -5.38201769196920 -5.44138366846685 -0.03303056895690
 6 -4.40584821342134 -3.27089785138514  0.42904196629663
 6 -3.80265406330633 -3.67318141164116  1.70571709740974
 8 -4.32375744924492 -3.36533446734673  2.79679774787479
 8 -2.90068875647565 -4.61174614751475  1.62372280018002
 6 -2.38833353715372 -5.37221666776678  2.80412255185519
 6  2.67205937453745 -1.14142804040404 -1.32253627942794
 6  4.04849809660966 -0.84852535493549 -0.74906700680068
 6  4.91769402600260  0.14481553645365 -1.14351830843084
 6  4.67825702140214  0.91791252295230 -2.43223033983398
 6  6.24215596079608  0.40676841604160 -0.42984189838984
 6  7.43482472287229 -0.27227341024102 -1.14182104900490
 6  8.77235883698370 -0.05031901700170 -0.27897624512451
 6  10.00892181788179 -0.56801112771277 -0.96261361616162
 6  9.86245228382838 -2.08856265916592 -1.20168945384538
 6  11.33252710291029 -0.23487780248025 -0.12001255695570
 6  12.65879755395540 -0.43945926312631 -0.80857538063806
 6  13.75506409580958 -0.14416164236424  0.11053310881088
 6  15.17535644744474 -0.16295717721772 -0.50806436433643
 6  15.44876444824482 -1.60541940734073 -0.85654442274227
 6  16.21330207450745  0.42141665896590  0.56896591889189
 6  17.68815370417042  0.63345626332633 -0.01602550395039
 6  18.76212713701370  1.23907823672367  1.02484330053005
 6  20.26020792239224  1.46545435003500  0.42186391389139
 6  20.29768046694669  2.27350392649265 -0.91483956175618
 6  21.21540406170617  1.93583492229223  1.59286107430743
 1 -3.81642930323032  3.38805003700370  1.84628950985099
 1 -10.03578143124312  4.17755499759976 -0.24685600830083
 1 -10.85619987638764 -2.13524067956796 -0.95436490959096
 1 -2.71084341134113 -1.22932216741674  2.16206708240824
 1 -2.18939025352535  1.74373459665967  1.42285519771977
 1 -1.86011626962696  0.46802317071707  3.56684578857886
 1 -2.69925541744174  2.07087213691369  3.68719891509151
 1 -3.70981057795780  0.67981316581658  3.72664784098410
 1 -2.21204671307131 -1.88522325542554 -0.25823027022702
 1 -2.27311065046505 -0.02797660666067 -0.98746544074407
 1 -0.18506432623262  0.36269012261226  0.69597995929593
 1 -0.29577991729173 -1.33818577717772  1.23486099449945
 1 -4.67215203170317  6.30109447754776  0.69187198699870
 1 -5.93876908330833  6.96799171387139  1.77467676227623
 1 -4.94026211301130  5.79164720872087  2.31786592059206
 1 -8.03327833723372  6.99302917741774  0.96670822472247
 1 -9.67967331923192  5.71242140264026 -1.39549113521352
 1 -9.60873562016202  7.47075580308031 -0.85717594049405
 1 -12.60146450845084  3.35071425862586  0.01867405430543
 1 -12.06926077437744  3.59273323072307 -1.55261457825783
 1 -13.21449247204720  2.26945478117812 -1.35822017741774
 1 -12.97691006420642 -1.29051797849785 -0.91803655475548
 1 -13.58951597609761  0.10854500920092 -1.12246460526053
 1 -12.86081171107111  0.59090590369037 -3.37676502080208
 1 -11.88304327232723 -0.94831240484048 -3.43801275337534
 1 -13.48942569606961 -1.12145123992399 -3.34684222652265
 1 -9.94034058285829 -4.77993731353135 -0.28469077107711
 1 -9.27266124502450 -4.56785473147315 -2.09860675887589
 1 -8.34966014071407 -5.72095036203620 -0.79826778227823
 1 -3.58372022342234 -3.27923421362136 -0.17682903150315
 1 -1.53240363336334 -5.99174427012701  2.42102543664366
 1 -2.12858130453045 -4.48663214711471  3.55363980658066
 1 -3.27670068646865 -6.05886097769777  3.07938481408141
 1  2.60805471297130 -2.27165480898090 -1.80450161716172
 1  2.32379727422742 -0.49372695349535 -2.22028979617962
 1  4.09679245094509 -1.47131944624462  0.30606850985099
 1  4.59768159735974  2.10793330233023 -2.15367008680868
 1  5.66902351955196  0.80385634813481 -3.06967836943694
 1  3.65371548974897  0.53680486728673 -3.05036586168617
 1  6.40177819401940  1.47174329932993 -0.10617080818082
 1  6.13753179787979 -0.04341423102310  0.62660036743674
 1  7.04772155705570 -1.36994371897190 -1.29229998959896
 1  7.38050759325933  0.21426344694469 -2.14742957195720
 1  8.82684817221722  1.16887572887289 -0.40332018371837
 1  8.80616367916792 -0.31459561106111  0.77901071347135
 1  10.09901256985698 -0.08389583288329 -1.87695227022702
 1  9.06883719991999 -2.37954664786479 -1.89533808160816
 1  10.65859089018902 -2.59575117491749 -1.66615722062206
 1  9.59401442154216 -2.70316200180018 -0.31446971627163
 1  11.24063936133613  0.79596837693769  0.57767635283528
 1  11.21065702920292 -1.15226046254625  0.84214414461446
 1  12.66122083268327 -1.37106867806781 -0.98784199719972
 1  12.56217436963696  0.16528644964496 -1.89461099479948
 1  13.63682483738374  0.82835254605461  0.45859877077708
 1  13.82981720872087 -0.87479390719072  0.97491433733373
 1  15.18036038023802  0.36379758585859 -1.36866888018802
 1  14.75499105200520 -2.21503408520852 -1.31907124032403
 1  16.31450532403240 -1.82138617521752 -1.56581236513651
 1  15.77715299409941 -2.20058519111911 -0.09046977557756
 1  15.97658793199320  1.51892846314631  0.88599905890589
 1  16.32453711051105 -0.26931630833083  1.51209463206321
 1  18.06424764646465 -0.23132734323432 -0.48547841564156
 1  17.47910249584958  1.25787767606761 -0.98134656715672
 1  18.47429211871187  2.30167656355636  1.32763815351535
 1  18.73414566876688  0.56819262876288  1.99187633763376
 1  20.82092842524252  0.56837479847985  0.08679983618362
 1  19.78964632123212  3.35858412851285 -0.69891179357936
 1  21.27935517921792  2.27540561026103 -1.16491959855986
 1  19.70462543554356  1.89142476417642 -1.72164434593459
 1  21.07846308280828  1.32442391039104  2.55855689228923
 1  22.21191404860486  1.99928995639564  1.26116027312731
 1  20.99464909430943  3.11034423402340  2.02517125502550
 1 -6.97592942604260  1.71060993419342  0.74421626772677
 1 -7.50368191659166 -0.22707288328833  0.00646051845185

