%nproc=3
%Mem=2GB
# td=(NStates=1) B3LYP/SVP 

TD

0 1
 6 -5.12518021612161 -1.79087532963296  0.50409528542854
 6 -4.71780209920992  2.82902935463546  1.35542192809281
 6 -9.38697860756075  3.25723652285228 -0.30739920782078
 6 -9.88810686518652 -1.46879768316832 -0.79289184258426
 7 -5.26129529182918  0.50157178007801  0.89060749774977
 6 -4.54718333443344 -0.70845756675668  0.92441588498850
 6 -3.08388807530753 -0.53469990469047  1.31216621242124
 6 -3.07486245164516  0.88514740704070  1.93983308910891
 6 -4.46650584368437  1.37707752565257  1.34832842984298
 6 -3.32315088358836  0.90500801310131  3.55457331993199
 6 -2.13501557225723 -0.60279024072407  0.13385133073307
 6 -0.69378259045905 -0.69815803240324  0.53949640234023
 6  0.39148280968097 -1.00704757765777 -0.54957651525152
 8  0.09194096169617 -1.41103346994700 -1.64362797429743
 8  1.62579277637764 -0.69103587668767 -0.19636207890789
 7 -7.01622621722172  2.77149442124212  0.45920542974297
 6 -5.89334090949095  3.35322974127413  0.94929578647865
 6 -6.28925211091109  4.78172461196120  0.97599409220922
 6 -7.56045514231423  4.97296613211321  0.62668919631963
 6 -8.13763470937094  3.57180567426743  0.21820197559756
 6 -5.42213272977298  5.86542205730573  1.56840810681068
 6 -8.28387567026703  6.20855486708671  0.45828432973297
 6 -9.00036793499350  6.61619134103410 -0.67634011281128
 7 -9.26214441504150  0.80387762076208 -0.37635010341034
 6 -9.89145300820082  2.03008550725073 -0.57330659985999
 6 -11.19010287678768  1.83469703070307 -1.03144697859786
 6 -11.45529948044804  0.43770111021102 -1.08733368806881
 6 -10.14615684138414 -0.18409836153615 -0.76994023652365
 6 -12.25373387428743  2.75589409100910 -1.37402049234923
 6 -12.63538127762776 -0.28700117961796 -1.60248120782078
 6 -12.55920605130513 -0.53798706310631 -3.15776394769477
 7 -7.61840079767977 -1.32094377957796 -0.23525205370537
 6 -8.66445803330333 -2.07432615941594 -0.58089145154515
 6 -8.23687612661266 -3.43992087428743 -0.49694226152615
 6 -6.79877478657866 -3.36359318761876 -0.09854747864786
 6 -6.49841094449445 -1.99093191179118  0.05101017721772
 6 -9.03377613521352 -4.51323207270727 -0.86366536093609
 6 -5.59452639783978 -4.23328836393639  0.05088603420342
 8 -5.62026151635164 -5.45065459555956  0.08688142224222
 6 -4.45965359395940 -3.35770653225323  0.42715177727773
 6 -3.80426422432243 -3.83689778327833  1.74685121082108
 8 -4.09962503600360 -3.42205013891389  2.84213228132813
 8 -3.11437012461246 -4.95917088998900  1.55320574847485
 6 -2.60404510831083 -5.46400584668467  2.72405454505451
 6  2.72060422902290 -1.05458935653565 -1.19371339713971
 6  4.05713896069607 -0.57863836623662 -0.76233833393339
 6  4.97321957855786  0.20471152605261 -1.39217317391739
 6  4.87749694539454  0.66781751345134 -2.77704482128213
 6  6.40254199939994  0.30124786398640 -0.72998191239124
 6  7.65152639303930 -0.36945312821282 -1.33355022192219
 6  8.84833643474347 -0.06591057615762 -0.47836618411841
 6  10.11322224792479 -0.72071639823982 -1.06856421122112
 6  10.05090112871287 -2.24685848874887 -1.26551583648365
 6  11.24352820302030 -0.21116543124312 -0.01271182688269
 6  12.69689136333633 -0.30809612681268 -0.70776529962996
 6  13.80795938533853  0.21186396019602  0.08581063656366
 6  15.27879679147915 -0.16650753225323 -0.24376793469347
 6  15.56934650645064 -1.54048291369137 -0.38167693599360
 6  16.24273501780178  0.64063858115812  0.65003402570257
 6  17.70797568636864  0.59490240794079 -0.00465436683668
 6  18.74907583188319  1.39787411631163  0.76898771497150
 6  20.27926982858286  1.43233103770377  0.25799752725273
 6  20.26963766266627  2.21477805390539 -1.05684376217622
 6  21.19136165746575  2.00483182198220  1.39746153435344
 1 -3.87747540784078  3.46356758875888  1.58641352225222
 1 -9.98612646574657  4.16773401550155 -0.67804912761276
 1 -10.51885614201420 -2.33542069756976 -1.21057053015302
 1 -2.96751907890789 -1.63536277147715  1.94623549924993
 1 -2.15491680618062  1.64439466266627  1.72062497469747
 1 -2.34534479247925  0.55727209560956  4.14410351435143
 1 -3.39888538043804  1.97941299099910  4.11972216741674
 1 -4.24664426132613  0.17901308580858  3.78588376457646
 1 -2.43498900730073 -1.46545127822782 -0.63057750495050
 1 -2.24194753415341  0.38569476047605 -0.55889258345835
 1 -0.09536535633563  0.08563241684168  1.11615197649765
 1 -0.55525586488649 -1.45409736833683  1.32826033443344
 1 -4.28246306280628  5.58784315241524  1.18932173197320
 1 -5.94462966936694  6.84197911261126  1.09170846544654
 1 -5.28743683048305  5.79253729772977  2.79471360536054
 1 -8.00713572297230  6.88586846134613  1.25423697759776
 1 -9.25425077697770  5.75484564506451 -1.33802538863886
 1 -9.53786853345335  7.60010873837384 -0.63659388228823
 1 -12.57613197519752  3.47274646184618 -0.40290810391039
 1 -11.99814366266627  3.46224018141814 -2.13501281808181
 1 -13.09430045284529  2.17509534523452 -1.85441979737974
 1 -12.68937131033103 -1.30915984268427 -0.85997074817482
 1 -13.51853887838784  0.22615677037704 -1.29356171497150
 1 -12.51822745264526  0.51042785588559 -3.61468881318132
 1 -11.75067003500350 -1.26120369396940 -3.26661561366137
 1 -13.61833858735874 -0.77371646644664 -3.49439698199820
 1 -10.02015856465647 -4.50345966576658 -0.36789909190919
 1 -9.27733171207121 -4.45333327932793 -2.01647854605461
 1 -8.49843501820182 -5.41560982798280 -0.72128008350835
 1 -3.72963481488149 -3.64754104430443 -0.32284363296330
 1 -1.56721711471147 -5.91148624432443  2.24385771987199
 1 -2.30945939233923 -4.67729121302130  3.53261770437044
 1 -3.48437145354535 -5.99010410201020  3.17676455205521
 1  2.74269817731773 -2.11123876737674 -1.63611477847785
 1  2.31350624512451 -0.56235381618162 -2.17919568676868
 1  4.29541231293129 -1.08925123942394  0.16147405040504
 1  4.84978680788079  1.70215272427243 -2.71818653845385
 1  5.48078469566957  0.32225818831883 -3.53060446204620
 1  3.73086320452045  0.72693388018802 -3.22049287438744
 1  6.58350636683668  1.49083520852085 -0.52727291839184
 1  6.42245028972897 -0.18625851545155  0.34409211661166
 1  7.58982576747675 -1.57516424102410 -1.21361212081208
 1  7.69199874237424  0.07762978357836 -2.37039186818682
 1  9.11834732213221  1.12411125242524 -0.44995484718472
 1  8.74669773257326 -0.47376152765277  0.58650146254625
 1  10.14786745534554 -0.08523596689669 -2.00336491149115
 1  9.36653696989699 -2.51294998819882 -2.08120666846685
 1  11.09216424752475 -2.61468306810681 -1.49286989188919
 1  9.70109512961296 -2.72545423102310 -0.14872314161416
 1  11.08285358275828  0.72212099219922  0.39414800000000
 1  11.19495545904591 -0.79662489898990  0.93411334153415
 1  12.74195890649065 -1.50385195639564 -0.71454466746675
 1  12.74669282148215  0.07853777477748 -1.74759629332933
 1  13.68739989488949  1.26684639543954  0.35449836073607
 1  13.57231145814581 -0.08773520132013  1.11726857275728
 1  15.36573891809181  0.13573477957796 -1.21829384268427
 1  14.88369392229223 -2.02334491629163 -1.24333366656666
 1  16.61942581608161 -1.88462249884989 -0.67388317221722
 1  15.41682696149615 -2.00359549214921  0.58362763416342
 1  15.69337961116112  1.50697726802680  0.75999645864586
 1  16.44270892769277  0.33284390769077  1.66702012461246
 1  17.90717193889389 -0.59216342684268 -0.13016288408841
 1  17.77875246084609  0.90434232253225 -1.10561899439944
 1  18.45096978647865  2.40136653255326  0.54311970167017
 1  18.77547980218022  1.31333714321432  1.74741189118912
 1  20.59034536693669  0.33257121812181 -0.29084792859286
 1  20.13664102070207  3.33978224832483 -0.66247815021502
 1  21.29136638033804  2.22931100080008 -1.61134424102410
 1  19.42330730373037  1.97303292499250 -1.76298848034804
 1  21.18381361786179  1.27388885688569  2.27023806040604
 1  22.25463832103210  2.15469549694969  0.88862301940194
 1  20.71280090949095  3.01931513111311  1.78561729962996
 1 -7.08294012711271  1.74380325352535 -0.07468562246225
 1 -7.67091864026403 -0.31261143714371 -0.00961108870887

