%nproc=3
%Mem=2GB
# td=(NStates=1) B3LYP/SVP 

TD

0 1
 6 -5.15148284638464 -1.97082332443244  0.40258513441344
 6 -4.74547486648665  2.73262971467147  1.46959334523452
 6 -9.33767367706771  3.35213601280128 -0.17547601550155
 6 -9.85471352585258 -1.42601340474047 -1.02173472687269
 7 -5.19418858115812  0.39645126802680  0.83281171817182
 6 -4.53975259135914 -0.74711143214321  0.89622306570657
 6 -3.05663535003500 -0.53881031573157  1.31524652045204
 6 -3.10784574997500  0.80684957725773  1.88565767156716
 6 -4.36220541364136  1.37008682658266  1.33012660966097
 6 -3.12786135463546  0.84456196849685  3.46646450905091
 6 -1.98305037573757 -0.79683964566457  0.18255620122012
 6 -0.61200441264126 -0.99010722732273  0.67283973667367
 6  0.36547020842084 -1.22380925382538 -0.46541809940994
 8  0.02581434903490 -1.73897626422642 -1.54380799229923
 8  1.60550074717472 -0.86463323642364 -0.21725416811681
 7 -7.01451604620462  2.84370164196420  0.53734324352435
 6 -5.87158873427343  3.50872529082908  1.01856271317132
 6 -6.12189537523752  4.85793223272327  0.99854634743474
 6 -7.33516261306131  5.04984381988199  0.45278180558056
 6 -8.03028397429743  3.77350584428443  0.28090824622462
 6 -5.12756327282728  5.89040455555556  1.54082534853485
 6 -8.00813809650965  6.38276228782878  0.27113561486149
 6 -8.98696659485949  6.61495121702170 -0.68117059585959
 7 -9.10729893049305  0.96328356135614 -0.55454792319232
 6 -9.82605646854685  2.08065056375638 -0.55604487368737
 6 -11.17020088658866  1.91372493349335 -0.87282111601160
 6 -11.37150110061006  0.56256359645965 -1.09221417611761
 6 -10.03864609030903  0.02968301660166 -0.86687993049305
 6 -12.19318781968197  3.16104460606061 -1.03885697599760
 6 -12.56432417191719 -0.16468894839484 -1.54546550625062
 6 -12.62331246194620 -0.51624488888889 -3.07070524182418
 7 -7.52760171777178 -1.26280796599660 -0.42499102760276
 6 -8.64234582208221 -2.02398112491249 -0.81792515491549
 6 -8.19959239823982 -3.36024290649065 -0.76436900420042
 6 -6.93137804690469 -3.48373520182018 -0.27921554545455
 6 -6.41419252265227 -2.06146896549655 -0.06747167096710
 6 -9.01867462506251 -4.52562331183118 -1.24002299669967
 6 -5.71874882008201 -4.24511954705471 -0.01589064346435
 8 -5.71360085028503 -5.48590812091209 -0.20012727862786
 6 -4.61285891449145 -3.37467822942294  0.49596865896590
 6 -4.01898569646965 -3.77811190469047  1.78911543724372
 8 -4.24055912941294 -3.39052698659866  2.90784885298530
 8 -3.21787047464746 -4.81683665656566  1.51035146304630
 6 -2.86637134093409 -5.47785723182318  2.87657979757976
 6  2.63943611221122 -1.15658955655566 -1.07609163496350
 6  3.96360960776078 -0.86540704310431 -0.51039313941394
 6  4.91376363296330 -0.12890183528353 -1.07109106570657
 6  4.93386258195820  0.51736246794679 -2.35407252405241
 6  6.21304304950495  0.07621536073607 -0.18784769896990
 6  7.48699994039404 -0.53279946284628 -0.86875374227423
 6  8.75603720482048 -0.32012599769977 -0.13650199769977
 6  10.07662858855886 -0.87089141574157 -0.74687204200420
 6  10.07584362296230 -2.41151495439544 -0.82600188508851
 6  11.33883773397340 -0.33556787148715 -0.03668422412241
 6  12.69241091529153 -0.66714203140314 -0.71358588168817
 6  13.89947853725373 -0.00796802300230  0.03291534703470
 6  15.30922983478348 -0.11908278977898 -0.53651720962096
 6  15.84764433623362 -1.52930179557956 -0.79572834113411
 6  16.26003674797480  0.73701821912191  0.32883190549055
 6  17.77016190499050  0.78079099679968 -0.07832173357336
 6  18.63966489078908  1.87059138803880  0.59914073027303
 6  20.05698760036003  1.95681348594860  0.14820654815482
 6  20.08905960486049  2.39846642274227 -1.20443852165217
 6  20.78616113741374  2.81163250205020  1.12394418261826
 1 -3.87463512381238  3.31479271127113  1.92049693059306
 1 -10.02884073717372  4.13794103620362 -0.36516783948395
 1 -10.73464772117212 -2.17592474797480 -1.31751122422242
 1 -2.93700602760276 -1.35769500470047  2.18169904560456
 1 -2.31683299779978  1.47442766596660  1.65799871207121
 1 -2.22676293429343  0.29027539593959  4.05770487448745
 1 -3.07661315321532  1.85426047574757  3.86716691189119
 1 -4.30774037093709  0.48313349784979  3.78418359455946
 1 -2.38997450585058 -1.63395812891289 -0.28686313351335
 1 -1.90099343874387  0.05026121712171 -0.59680637483748
 1 -0.13180900070007 -0.07103324972497  1.38340870217022
 1 -0.65215555485549 -1.87008896749675  1.29292680108011
 1 -4.21702651915192  5.87893226132613  0.76075887568757
 1 -5.58339354575457  6.76715162986299  1.32680197479748
 1 -4.73924201100110  5.68688673267327  2.41174530853085
 1 -7.68485349474948  7.32477235173517  0.90489204310431
 1 -9.07023237513751  5.66430659115912 -1.51537312341234
 1 -9.55761050765076  7.56169489698970 -1.02654287718772
 1 -12.12187654965497  3.71876106330633 -0.06503431653165
 1 -11.79948379667967  3.65355931333133 -1.97187650445044
 1 -13.24386540934093  2.94483231893189 -1.19098345374538
 1 -12.80152252545255 -0.99786871357136 -0.91799655075508
 1 -13.58680570507051  0.47173132783278 -1.31801416021602
 1 -12.88612424232423  0.36856366946695 -3.63363070737074
 1 -11.93201816981698 -1.43301087468747 -3.19044799689969
 1 -13.50474722822282 -1.05143423822382 -3.25292283458346
 1 -9.94115066386639 -4.79825914571457 -0.79932223422342
 1 -9.26504048294829 -4.19131707770777 -2.30802770097010
 1 -8.41086626132613 -5.47646591359136 -1.38995695119512
 1 -3.93924577597760 -3.51198748894889 -0.32768411701170
 1 -2.18514890789079 -5.96775187088709  2.63087642174217
 1 -2.58641708810881 -4.83496698059806  3.69999444204420
 1 -3.85274829122912 -5.76136122772277  3.35178205380538
 1  2.67757166466647 -2.25255289878988 -1.30043121012101
 1  2.51903679817982 -0.59046662746275 -1.99034680188019
 1  4.07263003470347 -1.35407772207221  0.49416731973197
 1  5.45913774297430  1.48779128812881 -2.34879959975998
 1  5.57818443564356  0.06941290379038 -3.03674507610761
 1  3.92295241344134  0.42730391719172 -3.02155298039804
 1  6.38560657685769  1.21324744974497 -0.15583577467747
 1  6.06011405610561 -0.52167205680568  0.65231293869387
 1  7.27264404930493 -1.59814653925393 -1.00961172077208
 1  7.54030357285729 -0.24126210561056 -1.93635846484648
 1  8.97893338073807  0.66631547284728  0.11689183748375
 1  8.70581364416442 -0.76439059055906  0.85130794319432
 1  9.98255092369237 -0.47666510981098 -1.95894046904690
 1  9.39293961016102 -2.51111980518052 -1.60599914771477
 1  11.01519655075507 -2.79281088088809 -1.38889949484949
 1  9.74106912701270 -2.85662734833483  0.04093582428243
 1  11.32316761416142  0.72270105020502  0.10982956815682
 1  11.17306326982698 -0.93100833733373  0.91478140834083
 1  12.77405211581158 -1.87208878007801 -0.82637585058506
 1  12.75034318651865 -0.30737081608161 -1.65348688238824
 1  13.57697885278528  1.15000471127113  0.40917382828283
 1  13.91484571157116 -0.36353278107811  1.06582342824282
 1  15.19355169936994  0.46234744084408 -1.53961597489749
 1  15.23272882578258 -2.18126070787079 -1.36538587178718
 1  16.95261913541354 -1.67479151575158 -1.25473125702570
 1  15.95896117491749 -2.14103923652365  0.12990226162616
 1  15.82630290349035  1.75992256255626  0.40716117511751
 1  16.13421807860786  0.67211783508351  1.57371079367937
 1  18.14160538223822 -0.16576078657866  0.10806093829383
 1  17.90556514211421  0.75301719001900 -1.28382681518152
 1  18.17924261376138  2.81404780068007  0.36843223292329
 1  18.78853110731073  1.67537334683468  1.68247539753975
 1  20.50201653405340  0.76077403840384  0.14657581378138
 1  19.95625298189819  3.58117638773877 -1.49878178057806
 1  21.21516876057606  2.30888895859586 -1.71079418601860
 1  19.46578155115511  1.72409803150315 -1.71106328782878
 1  20.63674891139114  2.54320578857886  2.22904394099410
 1  21.99245210241024  2.86043607100710  1.04975913301330
 1  20.47323695309531  3.83237643724372  1.15301403930393
 1 -7.07310914401440  1.96433530673067  0.17972981908191
 1 -7.54911646004600 -0.33395357135714 -0.53107323492349

