%nproc=3
%Mem=2GB
# td=(NStates=1) B3LYP/SVP 

TD

0 1
 6 -5.07825552365237 -1.90020626272627  0.44599947584758
 6 -4.84026434543454  2.78136458815882  1.42225861176118
 6 -9.44964487418742  3.26899769896990 -0.23030149804980
 6 -9.78591664616462 -1.50270107350735 -1.04703725712571
 7 -5.25870503280328  0.39958158105811  0.99008744574457
 6 -4.48433704980498 -0.68110483148315  0.83631707510751
 6 -2.98771845834583 -0.45648208290829  1.28517351315131
 6 -3.11814678007801  0.96149504180418  1.82087119291929
 6 -4.46807600070007  1.46557637553755  1.31920551755176
 6 -3.01242981148115  1.02354986728673  3.37261512411241
 6 -2.01290336103610 -0.70026998869887  0.18794674027403
 6 -0.56936014821482 -0.70414863146315  0.59967241994199
 6  0.33812747414741 -0.74910178307831 -0.67854941254125
 8  0.08721048864886 -1.08619098569857 -1.84185779727973
 8  1.56072626972697 -0.51740851395140 -0.32200464316432
 7 -7.14988958355836  2.77065433723372  0.51078058725873
 6 -6.07846942234223  3.42690710901090  1.00540139703970
 6 -6.39127231293129  4.80181662116212  1.02959945274527
 6 -7.63137223402340  5.02904173967397  0.52891941934193
 6 -8.19371031693169  3.62796128982898  0.26428658405841
 6 -5.49118963546355  5.90098561366137  1.48963022902290
 6 -8.40791807450745  6.31572558415842  0.39277777907791
 6 -9.26902480068007  6.59574929682968 -0.64694717351735
 7 -9.21524972557256  0.80734796779678 -0.42456492489249
 6 -9.95409927282728  1.97088958765877 -0.46790605980598
 6 -11.35299916641664  1.62666622762276 -0.92918675257526
 6 -11.43696764726473  0.36368370847085 -1.21469642434243
 6 -10.13677590329033 -0.08975892759276 -0.86064930743074
 6 -12.31897039793979  2.77535603720372 -1.12260535083508
 6 -12.55619335883588 -0.35523800330033 -1.73398435813581
 6 -12.46592672337234 -0.80895415981598 -3.22277044834483
 7 -7.39922888048805 -1.29753143834383 -0.26257478597860
 6 -8.45884747224722 -2.03881260806081 -0.73339670207021
 6 -8.08872131113111 -3.41527841004100 -0.65671823912391
 6 -6.69782469156916 -3.40457728602860 -0.34316194009401
 6 -6.39074017741774 -2.16247906650665  0.02357743394339
 6 -8.94032679027903 -4.64075482498250 -1.02727172157216
 6 -5.48820576577658 -4.30341537663766 -0.05351440584058
 8 -5.42783227342734 -5.51094062416242 -0.09471673757376
 6 -4.43309093769377 -3.28382914451445  0.44127318941894
 6 -3.93014681258126 -3.76479057255726  1.82287881358136
 8 -4.24305937943794 -3.26346428032803  2.86286435453545
 8 -2.82446113371337 -4.67814278717872  1.64785521342134
 6 -2.42445714951495 -5.27908735483548  2.90507264686469
 6  2.67591976057606 -0.92310620822082 -1.16152017781778
 6  3.93453670047005 -0.70405090749075 -0.50534263436344
 6  4.96444870147015  0.11695275017502 -0.97216117271727
 6  4.96154535023502  1.01154188588859 -2.13551066786679
 6  6.17571931713171  0.22543028222822 -0.11295020922092
 6  7.44998623902390 -0.30599678257826 -0.77370423732373
 6  8.80161176227623 -0.19546353145315  0.01301295379538
 6  10.08634956065607 -0.64918924552455 -0.73015036983698
 6  10.05908194679468 -2.14028783168317 -1.14467375227523
 6  11.36445029522952 -0.27201151585159  0.10432987728773
 6  12.67610928512851 -0.47538285548555 -0.71031555465547
 6  13.79617820722072 -0.22570979717972  0.24249630513051
 6  15.21227013881388 -0.25503638513851 -0.48201175907591
 6  15.62589216101610 -1.78804767016702 -0.91478024632463
 6  16.24999574387439  0.47824234153415  0.34634365666567
 6  17.69406429522952  0.58541145884588 -0.14478838023802
 6  18.59546047034704  1.45516984588459  0.61664248044804
 6  20.08454035563556  1.36160396499650  0.09684141164116
 6  20.16699739863986  2.00242681878188 -1.28347642544254
 6  21.00914343564357  2.11744308310831  1.20901268946895
 1 -4.02074973527353  3.48803003500350  1.75201008190819
 1 -10.08029588268827  4.03638088018802 -0.25755707840784
 1 -10.46077033343334 -2.23934108960896 -1.48793826692669
 1 -2.83205553255326 -1.12787202240224  1.93963483918392
 1 -2.43621493599360  1.67088731193119  1.31459437163716
 1 -1.99673993199320  0.64213058145815  3.79335843984398
 1 -3.14117960986099  2.03840889058906  3.49780997619762
 1 -3.86005560246025  0.37618280278028  3.92247742394239
 1 -2.25678118651865 -1.60544527762776 -0.46390083728373
 1 -2.03118645804580  0.42067825882588 -0.42750944514451
 1 -0.46183200300030  0.48492234583458  1.07684804610461
 1 -0.35002534183418 -1.44563652225222  1.35143265166517
 1 -4.62708752525253  5.95976034413441  0.77266006580658
 1 -6.14292949934994  6.84556947164717  1.22613190779078
 1 -5.03669175597560  5.86447449144914  2.57884201820182
 1 -8.15073008240824  7.01270114461446  1.19070062396240
 1 -9.42220757265726  5.76192635313531 -1.41643322942294
 1 -9.66563130973097  7.62280100760076 -0.61252147504750
 1 -12.47250161216122  3.48723791099110 -0.27438525162516
 1 -12.05660950925093  3.33578753615362 -2.00074939173917
 1 -13.29753077587759  2.60872870857086 -1.41450580598060
 1 -12.65661803500350 -1.26295522222222 -1.09324407550755
 1 -13.52772979747975  0.04055821052105 -1.89424178297830
 1 -12.30716634653465 -0.08756194309431 -4.08465580988099
 1 -11.67549251725173 -1.46562413601360 -3.40580953305331
 1 -13.29065581908191 -1.52880197499750 -3.46428397069707
 1 -9.73699024782478 -4.63011233103310 -0.24007630963096
 1 -9.28277225612561 -4.52994094009401 -1.99557645584558
 1 -8.13737891259126 -5.60194846184618 -0.85275323082308
 1 -3.64760661206121 -3.47267355755576 -0.37445879447945
 1 -1.50068046104610 -6.10005510121012  2.73902723682368
 1 -1.90266871327133 -4.42673615751575  3.61767621022102
 1 -3.23868688508851 -5.62053714531453  3.50390726632663
 1  2.54130803830383 -1.98310595409541 -1.36039720672067
 1  2.62048694319432 -0.42230981178118 -2.18944671187119
 1  4.14675744744474 -1.41159347364736  0.36069397239724
 1  5.42804463366337  2.10048255725573 -1.97115183498350
 1  5.67929454665467  0.48156411891189 -2.76345774737474
 1  3.89911002920292  1.26021720852085 -2.59276010111011
 1  6.14434245044504  1.35202132713271  0.18238804770477
 1  5.98256630133013 -0.37994788438844  0.80645835323532
 1  7.41940872577258 -1.30604732933293 -1.21824258385839
 1  7.75755529802980  0.39214123472347 -1.78846367536754
 1  8.95506099349935  0.91404024532453  0.26628677697770
 1  8.83611667446745 -0.97634178567857  0.82619543194319
 1  10.32652532113211  0.10417297399740 -1.62947752275228
 1  9.04552486868687 -2.20084877807781 -1.61185973377338
 1  10.87000203130313 -2.27920952075208 -2.16917752265226
 1  10.10338535863586 -2.92464415001500 -0.35358362766277
 1  11.26370166756676  0.66305508560856  0.65274385958596
 1  11.22099806330633 -0.92748798529853  1.08273820402040
 1  12.75150986158616 -1.45966753795380 -1.21651486448645
 1  12.70092824502450  0.32333225422542 -1.43342487618762
 1  13.82604375927593  0.91175088588859  0.94901781268127
 1  13.82626685368537 -0.85017144494449  1.13105995189519
 1  15.20769311351135  0.48624983108311 -1.39890190349035
 1  14.98198375127513 -2.45773835563556 -1.68829816301630
 1  16.58248212171217 -1.72373641024102 -1.45927171107111
 1  15.68827410621062 -2.30268540114011  0.15657492889289
 1  15.87249752295230  1.60149671997200  0.51660211921192
 1  16.20827548434843  0.06876750005001  1.39265268786879
 1  18.07821904360436 -0.44028823932393 -0.32306217401740
 1  17.70355494109411  0.91384327262726 -1.35302373487349
 1  18.16928161766177  2.56997339323932  0.68493388308831
 1  18.59873212741274  1.13550936043604  1.68916606660666
 1  20.17208354075408  0.17695565656566  0.05081623782378
 1  19.76318367496750  2.89097736783678 -1.46102800520052
 1  21.36383362706271  2.17680575027503 -1.49527263386339
 1  19.72396736973697  1.40825644734473 -2.29844202570257
 1  20.82594783128313  1.57342881088109  2.20550158675868
 1  22.21762461966197  2.09610963836384  0.95176933403340
 1  20.71749137853785  3.11213441304130  1.15329406730673
 1 -7.27526936003600  1.85573444664466  0.22517436353635
 1 -7.48821036943694 -0.30161033703370 -0.23480360796080

