%nproc=3
%Mem=2GB
# td=(NStates=1) B3LYP/SVP 

TD

0 1
 6 -5.03912161026103 -2.04557079917992  0.41835671157116
 6 -4.66482680168017  2.67503395509551  1.37887427332733
 6 -9.35800571027103  3.40003080228023 -0.18141660956096
 6 -9.77879593409341 -1.47117792119212 -0.90817337073707
 7 -5.11835099739974  0.29653127602760  0.91444988198820
 6 -4.44732334843484 -0.85088180918092  0.89299274267427
 6 -3.07251693819382 -0.69063549824982  1.40329532533253
 6 -3.13146811221122  0.82887177947795  1.92929203500350
 6 -4.37557675077508  1.31770158805881  1.34160775777578
 6 -3.07279584808481  0.78078559085909  3.43341120372037
 6 -1.98302037273727 -0.95874583628363  0.13884182978298
 6 -0.56492970517052 -0.84703291989199  0.67062951565157
 6  0.39729339073907 -1.18374524742474 -0.45539709730973
 8  0.15285705330533 -1.60325269186919 -1.47880149164917
 8  1.68790898799880 -0.71334810791079 -0.08334077677768
 7 -7.08010260486049  2.70089736153615  0.53728323752375
 6 -5.93817539293929  3.30646506480648  0.94625548244824
 6 -6.19424260996100  4.68140457995800  0.94158065086509
 6 -7.48853795059506  4.94736357185719  0.56406293369337
 6 -8.08978992489249  3.67105559925993  0.30329048444844
 6 -5.12517303380338  5.72654816991699  1.49471073707371
 6 -7.95655293799380  6.26996100770077  0.32921142244224
 6 -8.94695259345935  6.59036875877588 -0.55535801460146
 7 -9.21967016761676  0.90516774977498 -0.58217068546855
 6 -9.84700856375638  2.16732923162316 -0.62992226142614
 6 -11.22328619511951  1.99622318331833 -1.04643847774777
 6 -11.36414036453645  0.61901924202420 -1.36128108280828
 6 -10.04654688038804  0.04799484778478 -0.93392663516352
 6 -12.21719021992199  3.04143264486449 -1.09640273057306
 6 -12.58017575707571 -0.04893737323732 -1.78394935463546
 6 -12.47077720842084 -0.26200946534653 -3.36012418371837
 7 -7.47313627122712 -1.15040672587259 -0.27059558805881
 6 -8.70389197669767 -1.93823255005501 -0.66554991739174
 6 -8.20669310831083 -3.32955983818382 -0.68715128242824
 6 -6.88133304240424 -3.38308513681368 -0.32923054695470
 6 -6.45796690009001 -2.00627344594459  0.05289036523652
 6 -8.96729948754875 -4.53012376187619 -1.18581757615762
 6 -5.77009395459546 -4.38571360646065 -0.09351840624062
 8 -5.77831732193219 -5.60034956505651 -0.11953921982198
 6 -4.53259088768877 -3.44203496509651  0.36867592969297
 6 -3.91723552145215 -3.94214830833083  1.64564108980898
 8 -4.11844691819182 -3.46213414731473  2.71234930303030
 8 -3.16098478607861 -4.99980495339534  1.46375680358036
 6 -2.69465416921692 -5.53884333043304  2.73364550415041
 6  2.67521969056906 -0.96395029262926 -1.07749177497750
 6  3.90597384418442 -0.54129463186319 -0.46296839693969
 6  4.95307756435644  0.15058611351135 -0.96694065066507
 6  4.87657685338534  0.78546927862786 -2.27819493629363
 6  6.24936668186819  0.15069280848085 -0.16870578477848
 6  7.52690393079308 -0.30993717661766 -0.89206607350735
 6  8.69276087718772 -0.15461944704470 -0.04093244074407
 6  10.07211813751375 -0.76080040664066 -0.52649000380038
 6  9.99676571517152 -2.28839264216422 -0.81063034793479
 6  11.21099494969497 -0.29132344704470  0.27959740404040
 6  12.62094376857686 -0.45127044424442 -0.40018454155416
 6  13.83401199059906  0.09109188298830  0.33267532303230
 6  15.16728564036404 -0.27320820232023 -0.26077963586359
 6  15.59423899569957 -1.75910477587759  0.05980721242124
 6  16.16647739203921  0.84330884818482  0.29673869616962
 6  17.61115600440044  0.69028194589459 -0.24503840524052
 6  18.55112603690369  1.79804413331333  0.41714253045305
 6  20.04687658925893  1.69670747534753 -0.27744601710171
 6  20.06725742464246  2.02205878197820 -1.81694977277728
 6  20.90843336463647  2.71119245804580  0.41790357855786
 1 -3.99572723302330  3.43737496949695  2.08976385728573
 1 -9.87239509260926  4.42563980608061 -0.25711703440344
 1 -10.72093635003500 -2.11233838933893 -1.23844331743174
 1 -2.72553488048805 -1.47029626482648  1.98326920262026
 1 -1.99466078057806  1.11003122632263  1.44370728292829
 1 -2.18541879987999  0.23012938133813  3.98795789978998
 1 -3.23193868576858  1.77375242494249  3.86564675987599
 1 -4.09924952185219  0.03645883038304  3.72710788698870
 1 -2.19215472387239 -2.14769950305030 -0.07076152335234
 1 -2.09157249664966 -0.19229303830383 -0.63091978617862
 1 -0.33314913471347  0.14942879647965  1.11289165046505
 1 -0.25311565086509 -1.43110506910691  1.64249175757576
 1 -4.20773559005901  5.43533790189019  0.68870166996700
 1 -5.53975918231823  6.78353326802680  1.24200349494950
 1 -4.79875796259626  5.67992603660366  2.56564069806981
 1 -7.68777378677868  7.09346922142214  0.78577013091309
 1 -9.38577392929293  5.78263842434243 -1.22760434653465
 1 -9.11491623822382  7.85416414391439 -0.80765098799880
 1 -12.70759512151215  3.44406359355936 -0.03176098919892
 1 -11.59838368666867  4.04277823522352 -1.62867218401840
 1 -13.11245226802680  2.69860769646965 -1.99889424482448
 1 -12.90477285048505 -0.99327825452545 -1.49261401250125
 1 -13.60570759525953  0.46304045874588 -1.74417677647765
 1 -12.42752838273827  0.76757357045705 -3.95259260356036
 1 -11.61763673167317 -0.65595316891689 -3.69935888798880
 1 -13.50538729222922 -0.67579667446745 -3.82598014031403
 1 -10.00072662146215 -4.43355267506751 -0.58946124812481
 1 -9.09483346224622 -4.43658160416042 -2.35529242744274
 1 -8.42772794749475 -5.52674094109411 -0.68037599309931
 1 -3.95167701910191 -3.45798208840884 -0.24441579017902
 1 -1.81255164816482 -6.13738883458346  2.55283861796180
 1 -2.42537098349835 -4.64487797169717  3.42882732533253
 1 -3.73030604700470 -6.03731882348235  3.21028790439044
 1  2.66861076857686 -2.10543818731873 -1.35928709570957
 1  2.49122401690169 -0.53576115691569 -1.95829359655966
 1  4.13538631033103 -1.15725804010401  0.44829273227323
 1  5.26634846404640  1.86450895989599 -2.21899661946195
 1  5.64922153935394  0.21099706220622 -2.95846724832483
 1  3.89557967616762  0.80491167796780 -2.50929175427543
 1  6.49821783798380  1.37888401340134 -0.05695588668867
 1  6.14189223392339 -0.28560845044504  0.84321202860286
 1  7.46564334923492 -1.32254897949795 -0.92305306490649
 1  7.79125866836684  0.16448846944694 -1.86631146014601
 1  8.91682717011701  1.01825066636664  0.26215636393639
 1  8.34307737053705 -0.54011816331633  0.98811162356236
 1  10.17309997859786 -0.23929137243724 -1.52034660966097
 1  9.22082239843984 -2.76576526972697 -1.34417296509651
 1  11.00308533963396 -2.67696929672967 -1.18481908680868
 1  9.87928294839484 -2.77671935753575  0.18006973767377
 1  11.18876417381738  0.91259003910391  0.71913049824982
 1  11.29226519001900 -0.95487072357236  1.05444537473747
 1  13.04574928552855 -1.40284185538554 -0.57237045004500
 1  12.68008616081608  0.08009793079308 -1.24309584328433
 1  13.61058221312131  1.38473818461846  0.40060297119712
 1  13.80352457945795 -0.25297172497250  1.50619746564656
 1  15.19387173137314  0.06563776987699 -1.19358137143714
 1  14.70676622952295 -2.50161274307431 -0.41249058225823
 1  16.49616348984899 -2.15566960356036 -0.29414519841984
 1  15.71610688948895 -1.99538467106711  1.31141041244124
 1  15.86646691989199  2.01599817011701  0.11101156015602
 1  16.33795845264526  0.67821844514451  1.46813023562356
 1  17.94618584028403 -0.34519873037304  0.00839097129713
 1  17.62207679327933  0.69410129842984 -1.44792322482248
 1  18.10039472897290  2.81433782968297  0.06078146784678
 1  18.34505675987599  1.60866667616762  1.40634778477848
 1  20.47116344874487  0.75722368336834  0.07932908910891
 1  19.68707606420642  3.08053632373237 -2.14068597099710
 1  21.16966421012101  2.23199126882688 -2.05847895449545
 1  19.65096006900690  1.32047766946695 -2.41374355585559
 1  21.05825106160616  2.54411587958796  1.66894793139314
 1  21.90052290949095  2.78147817521752  0.07659181628163
 1  20.70948057745775  3.94267746734673  0.33948268616862
 1 -7.09520135323532  1.61540041324132  0.25718756485649
 1 -7.69250079847985 -0.23294347034703  0.00182005440544

