%nproc=3
%Mem=2GB
# td=(NStates=1) B3LYP/SVP 

TD

0 1
 6 -5.11980967906791 -1.98178442054205  0.54540941684168
 6 -4.72158247724772  2.71609806150615  1.38813519941994
 6 -9.25840575027503  3.36279707890789 -0.39294776267627
 6 -9.77838589308931 -1.36674747814781 -0.85830838423842
 7 -5.13195235753575  0.40800242314231  0.81351978897890
 6 -4.54518313441344 -0.82001872287229  0.82112555595560
 6 -3.11965165166517 -0.52483891859186  1.27444244004400
 6 -3.07091205660566  0.92370126242624  1.96827593339334
 6 -4.45476466956696  1.35379519741974  1.29862345934593
 6 -3.06373494199420  0.78709622192219  3.48223608620862
 6 -2.05765783648365 -0.87437739943994  0.20753869946995
 6 -0.60686389858986 -0.96039425602560  0.64802725542554
 6  0.39454311571157 -1.20582745564556 -0.55353691129113
 8  0.05702747034703 -1.77286965356536 -1.57447105860586
 8  1.55711590869087 -0.82718949204920 -0.21068351105111
 7 -6.98517311191119  2.73074034583458  0.28244775397540
 6 -5.85683725912591  3.37184160246025  0.93183404030403
 6 -6.21551473717372  4.79439587908791  1.09204569736974
 6 -7.47251634843484  4.93255209070907  0.63983051045104
 6 -8.06563750965097  3.64843333703370  0.12508266366637
 6 -5.32114263076308  5.80091560666067  1.62808407440744
 6 -8.20807809050905  6.25545955755576  0.42158065936594
 6 -8.91726962516251  6.65196491839184 -0.56636911571157
 7 -9.07372557315731  0.92824005700570 -0.47802027042704
 6 -9.70586444934493  2.05888838753875 -0.58236750595060
 6 -11.13223709020902  1.96903046404640 -1.17191102500250
 6 -11.34818876937694  0.63135047514751 -1.27841279597960
 6 -10.01896412211221  0.04173422172217 -0.78431167366737
 6 -12.19339784068407  3.05073357495750 -1.38762185248525
 6 -12.53854159365937 -0.12618509800980 -1.73380434013401
 6 -12.67395752645264 -0.29237250165017 -3.25500367166717
 7 -7.50290924852485 -1.24737642284228 -0.30277880638064
 6 -8.58674026152615 -1.96554528132813 -0.62738610101010
 6 -8.15247768676868 -3.43058994119412 -0.63659622692269
 6 -6.87627253635364 -3.47092392069207 -0.31314893879388
 6 -6.47805890929093 -2.12529534813481  0.01282635883588
 6 -9.07186994459446 -4.57703845334533 -1.06918591299130
 6 -5.73775072027203 -4.33814884998500  0.10307125272527
 8 -5.64049353955396 -5.55447497759776 -0.10568783468347
 6 -4.50992862146215 -3.44686544814481  0.48289735183518
 6 -4.11763556145615 -3.91192528602860  1.82808933463346
 8 -4.16059113261326 -3.20009794369437  2.97609567766777
 8 -3.40897958555856 -4.97218219111911  1.68612904080408
 6 -2.78849355315532 -5.55674512061206  2.93912605220522
 6  2.67979014761476 -1.12631652925293 -1.12442646844684
 6  3.98645189198920 -0.70695119751975 -0.45604770487049
 6  4.86452870947095  0.13622467736774 -1.04766872347235
 6  4.64749394509451  0.94635536723672 -2.24745186198620
 6  6.24463620882088  0.25533327252725 -0.32406132033203
 6  7.50187142754275 -0.36025220812081 -0.99248611551155
 6  8.77794939603960 -0.14963894899490 -0.12359070657066
 6  10.12505343104310 -0.69424375097510 -0.80020737553755
 6  10.06394243284329 -2.17087088998900 -0.99966925182518
 6  11.35618946914692 -0.36544085878588  0.06667611191119
 6  12.74179585378538 -0.52137745494549 -0.67210173327333
 6  13.81696028542854 -0.09521674787479  0.23198525402540
 6  15.25022393419342 -0.21737261876188 -0.38804236213621
 6  15.73050262206221 -1.58588745414541 -0.84956372467247
 6  16.33213395769577  0.56828134543454  0.43130215251525
 6  17.69697458625863  0.83545646334633 -0.21457535893589
 6  18.60028095239524  1.65855018391839  0.57235805200520
 6  20.15298720032003  1.72793059765977  0.09545127262726
 6  20.20446114501450  2.40604718081808 -1.34725280308031
 6  20.92682520382038  2.59252059085909  1.02601438963896
 1 -3.91856951725172  3.40713194519452  1.81950683158316
 1 -9.93006085918592  4.02742998509851 -0.43261458415842
 1 -10.66580083648365 -2.09374653015302 -1.16843631673167
 1 -2.70643297029703 -1.28237747294729  2.32465334103410
 1 -2.25338665316532  1.43372359555956  1.61020393259326
 1 -2.11846210421042  0.41266763516352  3.84547365136514
 1 -3.29718521042104  1.89248429812981  3.88805900110011
 1 -3.86756635353535  0.01295648014802  3.56871204740474
 1 -2.29869537793779 -1.82993772687269 -0.53169761696170
 1 -2.27612095149515  0.14973116411641 -0.56116281048105
 1 -0.11110693049305 -0.16143228962896  1.04841520282028
 1 -0.37072741204120 -1.77658961756176  1.24414192259226
 1 -4.29046386288629  5.69969433753375  0.94566736653665
 1 -5.69819502590259  6.86985189988999  1.65860515511551
 1 -4.80349843664366  5.48571661566157  2.43260739473947
 1 -7.94155916531653  6.89937981248125  1.27425897979798
 1 -8.96551190309031  5.77071723222322 -1.34430601670167
 1 -9.45617036363636  7.66761548904890 -0.71354157705771
 1 -12.51350571257126  3.58593778097810 -0.49178699179918
 1 -12.03874772307231  4.00530448784879 -2.00263958075808
 1 -13.07279830263026  2.74782261796180 -1.68199255465547
 1 -12.71292366556655 -0.98347727442744 -1.01062581368137
 1 -13.40799782428243  0.48399255395540 -1.48272063086309
 1 -12.48274390429043  0.68787560066007 -3.75281262556256
 1 -11.91255622362236 -1.09851742534253 -3.71797074917492
 1 -13.71697845134513 -0.60488958375838 -3.52903044534453
 1 -9.82218876767677 -4.77718703850385 -0.33683598559856
 1 -9.25145912481248 -4.53200114611461 -1.96098299649965
 1 -8.51014618931893 -5.45459372637264 -0.90203815931593
 1 -3.58043989538954 -3.43089938013801 -0.28158950755076
 1 -2.25684607760776 -6.42148724442444  2.72127546164617
 1 -2.36289473587359 -4.69994347824782  3.28729317191719
 1 -3.56595961236124 -5.97010210181018  3.67331420702070
 1  2.59492339983998 -2.10450809430943 -1.68222938993899
 1  2.35720061456146 -0.64463204400440 -2.00914868206821
 1  4.28883165486549 -1.36684899919992  0.40304820782078
 1  4.98795062426243  1.98984149314931 -2.00212493229323
 1  5.36807342454245  0.65869183168317 -2.95413681528153
 1  3.83470358855886  1.00123130993099 -2.58451927702770
 1  6.33030104630463  1.25343146814682 -0.22841303240324
 1  6.18480652535254 -0.17047693729373  0.70988869626963
 1  7.18683546844684 -1.37492421702170 -1.39548030763076
 1  7.68702824532453  0.20745276587659 -2.12105693469347
 1  8.81865735313531  0.90646948824882  0.33304345264526
 1  8.64091715451545 -0.69943409490949  0.87516032843284
 1  10.20956362496250 -0.31456890019002 -1.79028360336034
 1  9.30788110431043 -2.56705539873987 -1.82280082788279
 1  11.06668169926993 -2.62904450425043 -1.12355296019602
 1  9.62783780388039 -2.63415510111011 -0.00354862416242
 1  11.31195649304930  0.58032681278128  0.28540712591259
 1  11.16627259075908 -1.07336257275728  0.85938586878688
 1  13.04416912751275 -1.58167973917392 -0.85026823982398
 1  12.80942909510951  0.01944186518652 -1.62425395909591
 1  13.74924607950795  0.91121083188319  0.76104901580158
 1  13.67015124212421 -0.66744317211721  1.17888473437344
 1  15.08619096329633  0.35403660976098 -1.39846185948595
 1  15.12539809270927 -2.25456803860386 -1.56555588878888
 1  17.01577545104510 -1.59614365096510 -1.05302108600860
 1  15.63000827962796 -2.41112624522452  0.09477874927493
 1  15.94338461166117  1.67135370567057  0.69971043004300
 1  16.16851150795080 -0.13131250795080  1.48509193179318
 1  18.26810803250325 -0.13253746424642 -0.20487035483548
 1  17.78560314591459  1.25512740104010 -1.31147958045805
 1  18.11534622412241  2.75433182908291  0.73834922462246
 1  18.64659691389139  1.33099890939094  1.73575072507251
 1  20.60008634103410  0.66103406440644  0.37190834703470
 1  20.08707606420642  3.43201147124713 -1.36296819921992
 1  21.34286152985299  2.38871694139414 -1.75041814841484
 1  19.70015498849885  1.88067368906891 -1.94748693019302
 1  20.99487472397240  2.16778824682468  2.15850688728873
 1  22.04125698289829  2.54986501390139  0.67004116121612
 1  20.66591622102210  3.55902910251025  1.13882262016202
 1 -7.14651648474847  1.79251812501250  0.31218306440644
 1 -7.55881743014301 -0.25043521952195  0.10583045544554

