%nproc=3
%Mem=2GB
# td=(NStates=1) B3LYP/SVP 

TD

0 1
 6 -5.11863956205621 -2.00117635973597  0.52872774867487
 6 -4.63739405840584  2.74108055975598  1.49134552045205
 6 -9.24789469916992  3.46381718091809 -0.28401686958696
 6 -9.77949600410041 -1.41588239163916 -0.98643119651965
 7 -5.17010617291729  0.32950457335734  0.83379181618162
 6 -4.54484310041004 -0.77385410641064  0.77635107850785
 6 -3.14024371087109 -0.58165460016002  1.26759175497550
 6 -3.06581154655466  0.93587247954795  1.74947405320532
 6 -4.35275446854685  1.37417723562356  1.28371196819682
 6 -2.94787335583558  0.88375588788879  3.27665552815282
 6 -2.02137420812081 -0.86767672937294  0.00477842344234
 6 -0.61784499669967 -1.00570878747875  0.54309676237624
 6  0.32445610701070 -1.28106497939794 -0.61883344094409
 8 -0.00951918431843 -1.77647001360136 -1.69266287778778
 8  1.60454065116512 -1.04720149324933 -0.28569101180118
 7 -6.97602219681968  2.77623489528953  0.45136464566457
 6 -5.80906248164816  3.34224864316432  1.01538239513951
 6 -6.15937912361236  4.80222666216622  1.03603009580958
 6 -7.38952804960496  4.99443827932793  0.57268379577958
 6 -7.84194514041404  3.70712920662066  0.12053220862086
 6 -5.18974949144914  5.78818433353335  1.44466573257326
 6 -8.06517380008001  6.34805881748175  0.43634213551355
 6 -9.12826072427243  6.67754747664767 -0.40662314111411
 7 -9.09959816041604  0.92302953595360 -0.45450791919192
 6 -9.65912977587759  2.14479697839784 -0.68354762396240
 6 -11.09796366286629  2.03424698569857 -1.01326516041604
 6 -11.25917986848685  0.66161350145014 -1.18140309500950
 6 -10.04492671837184  0.01266131443144 -0.91576481898190
 6 -12.12065056595659  3.12616111771177 -1.25076816711671
 6 -12.57599533903390 -0.04693717321732 -1.57868882858286
 6 -12.83035316601660 -0.02573583798380 -3.10292846414641
 7 -7.50988994659466 -1.24749643484348 -0.28680720922092
 6 -8.60135172267227 -1.97918664546455 -0.70141350375038
 6 -8.28927136613661 -3.42713959615962 -0.63972653995400
 6 -6.94978988808881 -3.43649047734773 -0.19921754565457
 6 -6.50871197459746 -2.05730854945495  0.01480655685569
 6 -9.17967072467247 -4.53764451395140 -0.95509450385038
 6 -5.86218316351635 -4.33452848794879  0.17080802640264
 8 -5.86176566676668 -5.54766429652965  0.09217195129513
 6 -4.59228685728573 -3.45758652025203  0.48577763986399
 6 -4.08276207410741 -3.94164825832583  1.80318684438444
 8 -4.27964303780378 -3.51909984388439  2.93829189728973
 8 -3.16896558415842 -4.97168214111411  1.60229065696570
 6 -2.67315201900190 -5.58993843994399  2.87894003360336
 6  2.66394856345635 -1.20824472207221 -1.32443646944694
 6  3.89573282008201 -0.84863536593659 -0.58587068716872
 6  4.97756001260126 -0.14029297439744 -1.08334229082908
 6  4.84899409510951  0.47416814851485 -2.45919303610361
 6  6.22361410661066  0.02354009320932 -0.35011392559256
 6  7.49965120552055 -0.51147733063306 -0.95534240114011
 6  8.77598920002000 -0.44872885798580 -0.08152650015002
 6  10.13945487118712 -0.81113544014401 -0.85944329912991
 6  10.26242228082808 -2.28742254515452 -1.03967325222522
 6  11.28411226142614 -0.22600691539154  0.06741618591859
 6  12.60223189738974 -0.37651296849685 -0.54489901300130
 6  13.74790337973797  0.26394916871687  0.17410946644664
 6  15.17281619341934  0.02540165866587 -0.34793835173517
 6  15.56190576237624 -1.49684855025503 -0.45092386068607
 6  16.27716846114611  0.85776029332933  0.42987200950095
 6  17.60307519631963  1.00159307700770 -0.24737863926393
 6  18.67957888218822  1.78899322822282  0.65370618681868
 6  20.09152105370537  1.78081588618862  0.03390511801180
 6  20.23749444834483  2.47091366746675 -1.28170624842484
 6  20.92183470477048  2.53095443424342  1.23386517471747
 1 -3.85452311261126  3.37246847884788  1.61424630553055
 1 -9.95575342844284  4.24246148824882 -0.20652197489749
 1 -10.43749800620062 -2.10975813131313 -1.40513998709871
 1 -2.57559988698870 -1.15217445264526  1.95790666636664
 1 -2.16500781528153  1.46955717891789  1.39580249244924
 1 -2.07392765076508  0.27724409280928  3.59551865586559
 1 -2.90889638153815  1.86762181188119  3.68824902010201
 1 -3.53678327522752  0.12460764526453  3.83006818301830
 1 -2.15828133653365 -1.79616434953495 -0.37021146834683
 1 -2.24186752615261  0.00693688468847 -0.53670036423642
 1 -0.08716453625363 -0.08181432783278  1.07719808110811
 1 -0.29919025832583 -1.81959391799180  1.34602211061106
 1 -4.13815863236324  5.71678604670467  0.78219101890189
 1 -5.53634884128413  6.85262017671767  1.43810310491049
 1 -4.79786787358736  5.50552859685969  2.48131226522652
 1 -7.83722873227323  7.03458333283328  1.28801035493549
 1 -9.45189054095409  6.07499766026603 -1.45451703780378
 1 -9.64396914351435  7.60537926542654 -0.32267249014901
 1 -12.41516587858786  3.63494268146815 -0.33623143624362
 1 -11.79966381468147  3.86896085348535 -2.01974129092909
 1 -13.07642866566657  2.58602643834383 -1.64710906630663
 1 -12.74399677287729 -1.09552847954795 -1.19810456155616
 1 -13.34810183468347  0.46670082478248 -1.14491685048505
 1 -13.13730936083608  0.96930374347435 -3.65922326662666
 1 -11.92183715171517 -0.47663523712371 -3.66837578967897
 1 -13.69186594009401 -0.71923101790179 -3.26133367566757
 1 -10.08684523332333 -4.54771409120912 -0.15857815981598
 1 -9.77259123802380 -4.47341528752875 -1.76847374557456
 1 -8.71460663536354 -5.62254052105211 -0.99826778227823
 1 -3.70188203960396 -3.76866315651565 -0.02542389098910
 1 -1.97223761676168 -6.22755785148515  2.50405373947395
 1 -2.56318476487649 -4.82258574247425  3.64377882048205
 1 -3.66706972337234 -5.95180027162716  3.44999187478748
 1  2.68219212671267 -2.19812745624562 -1.90202136913691
 1  2.52107700220022 -0.34269184998500 -1.99069683688369
 1  4.00738351005100 -1.44034634893489  0.22692059505951
 1  4.96473830303030  1.47343985298530 -2.22180690049005
 1  5.72615923312331  0.11717768026803 -3.09702110371037
 1  3.93599371757176  0.03274446124612 -3.11161198629863
 1  6.46718473467347  1.16319244424442 -0.27410760186019
 1  6.14423246794679 -0.35854574417442  0.64786249364936
 1  7.36753353825383 -1.45378210281028 -1.28054881448145
 1  7.72518206070607  0.02575459605961 -2.04423925292529
 1  9.02781826922692  0.57604644594459  0.32159230753075
 1  8.81371443424342 -0.80261441294129  0.91578439083908
 1  10.15222789138914 -0.25267271057106 -1.92780735573557
 1  9.60020033623362 -2.37135582878288 -1.91867041484148
 1  11.38270330143014 -2.59790138993899 -1.47739834473447
 1  9.98394341444144 -2.56427811341134 -0.16305457475748
 1  11.13458875627563  0.91425020512051  0.27921650685068
 1  11.09266523002300 -0.86140137663766  0.76089601980198
 1  12.85978068866887 -1.49769134033403 -0.66547976097610
 1  12.57637578977898 -0.06987706670667 -1.68212974667467
 1  13.77607876277628  1.40833054385439  0.54265717661766
 1  13.65785001200120 -0.20926735453545  1.27903474937494
 1  15.42729507370737  0.46786799289929 -1.37892990629063
 1  15.14708026092609 -2.07647022882288 -1.30101943514351
 1  16.60354422792279 -1.53477751435144 -0.62044782868287
 1  15.12256753555356 -1.85110024262426  0.63508277967797
 1  15.98412868606861  1.86240281058106  0.71283174217422
 1  16.59207386418642  0.14644526782678  1.32216563916392
 1  18.25679690139014 -0.04911912241224 -0.54057392519252
 1  17.49457404300430  1.41528341664166 -1.28417685018502
 1  18.54162885238524  2.88775517141714  0.76168155785579
 1  18.57085934013401  1.23148895839584  1.69017616761676
 1  20.39152548494850  0.78374633563356 -0.06824566836684
 1  19.84414177077708  3.52041031113111 -1.14765666806681
 1  21.32192943664366  2.30800887058706 -1.56109921652165
 1  19.78679365236524  2.00181580328033 -2.12202438393839
 1  20.48060329682968  2.34980644864486  2.31775281188119
 1  22.03884674187419  2.27372740014001  1.03674783188319
 1  20.69621925132513  3.73178637823782  1.08721745964596
 1 -6.95956778987899  1.73895276847685  0.34402624872487
 1 -7.54565611401140 -0.25414559055906 -0.22578270587059

