%nproc=3
%Mem=2GB
# td=(NStates=1) B3LYP/SVP 

TD

0 1
 6 -5.05951364946495 -1.86027226932693  0.57605248114811
 6 -4.74384470347035  2.84406085778578  1.48942532843284
 6 -9.29483939363936  3.30751155035504 -0.27528599649965
 6 -9.81538959345935 -1.46655745914591 -0.84297685108511
 7 -5.17013617591759  0.51389301220122  1.00313875087509
 6 -4.51786040214021 -0.66401312231223  0.89421286468647
 6 -3.02988267476748 -0.48102453715372  1.25309030483048
 6 -3.06677164256426  0.86539543184318  1.88812791859186
 6 -4.44529372247225  1.43654347224722  1.46623022002200
 6 -2.91134970347035  0.75704321662166  3.40809867246725
 6 -2.13458552925292 -0.68132809450945  0.07068501410141
 6 -0.70762397459746 -0.88400661726173  0.51216366906691
 6  0.39896355775578 -0.86140301320132 -0.60549210681068
 8  0.09191095869587 -1.19586195279528 -1.73194680618062
 8  1.59033923102310 -0.59420619371937 -0.10572301500150
 7 -6.98249284388439  2.70305757755776  0.50520002920292
 6 -6.02971454685469  3.36976139443944  1.11673253015302
 6 -6.35852903860386  4.71889832933293  1.16742323512351
 6 -7.65674477127713  4.90368920442044  0.50246677407741
 6 -8.00513145904591  3.48609710341034  0.15619577497750
 6 -5.39396991349135  5.91794730983098  1.61761302730273
 6 -8.44380166286629  6.17598160976098  0.42077057835784
 6 -9.06031392959296  6.67678740064006 -0.61654413321332
 7 -9.19249745034503  0.85598283128313 -0.56101857025703
 6 -9.82564642754275  2.04019651835184 -0.72804207340734
 6 -11.28357222372237  1.80919448044804 -0.98381221512151
 6 -11.38586253675367  0.41860920102010 -1.18572352705271
 6 -10.05988821452145 -0.10749070077008 -0.85940918341834
 6 -12.22120062096210  2.97782628422842 -1.24680777107711
 6 -12.51548928842884 -0.40297277677768 -1.66487744744474
 6 -12.60573070377038 -0.65143840824082 -3.21545971727173
 7 -7.45537449504950 -1.20611229642964 -0.20160868936894
 6 -8.59140072757276 -2.01834056085609 -0.59717307970797
 6 -8.12897533653365 -3.36989387158716 -0.60082264956496
 6 -6.83636854595460 -3.35763259155916 -0.11920954485449
 6 -6.40840194359436 -2.02963578217822  0.08072314851485
 6 -8.91617437503750 -4.59765051455146 -1.18090708510851
 6 -5.70611755695570 -4.25983101820182  0.03062400800080
 8 -5.62523201340134 -5.41401093119312 -0.16612387828783
 6 -4.55657328592859 -3.44790555215521  0.48534759685969
 6 -3.91162496039604 -3.83798789228923  1.86578310401040
 8 -4.14130920442044 -3.46421435533553  2.92728079617962
 8 -3.09644833243324 -4.83491846474648  1.58365879377938
 6 -2.58976368016802 -5.57475692179218  2.75985812541254
 6  2.77162933153315 -0.90496439403940 -1.17447147294729
 6  3.98440168696870 -0.47242774517452 -0.62896499659966
 6  4.93084534113411  0.17757881278128 -1.23367732433243
 6  4.95180437613761  0.59122985468547 -2.62934005080508
 6  6.28064981018102  0.37942568176818 -0.42058097229723
 6  7.39743098349835 -0.49644582748275 -1.11839870677068
 6  8.74325592669267 -0.11519550465047 -0.33634198169817
 6  10.11751267696770 -0.74610893749375 -0.85767312211221
 6  10.02775881448145 -2.36877067996800 -0.84351363626363
 6  11.32563641384139 -0.06425073977398 -0.06027658335834
 6  12.68760043424342 -0.54225954315432 -0.55570009310931
 6  13.82424101350135  0.02893566736674  0.31518357385739
 6  15.17763667546755 -0.15675655715572 -0.31610516841684
 6  15.58875844764476 -1.60088895429543 -0.51135990429043
 6  16.18926967126713  0.56664118141814  0.45845486778678
 6  17.66158104690469  0.55654857255726 -0.10900480188019
 6  18.55603652795280  1.65519984888489  0.56246706290629
 6  20.02933483508351  1.52720052465246  0.24279600710071
 6  20.26599729862986  1.86554313041304 -1.25574365216522
 6  21.02961548284829  2.39768110691069  1.06050783898390
 1 -4.03517117741774  3.44236546854685  1.90489537043704
 1 -9.89974782788279  4.14873211531153 -0.28116943964396
 1 -10.59311356775678 -2.11822897839784 -1.13311278437844
 1 -2.71464379137914 -1.24787402260226  2.18089896559656
 1 -2.18644995949595  1.67272749594959  1.51268418061806
 1 -1.66213647164717  0.69470583898390  3.66846595059506
 1 -3.35984147604760  1.80616566626663  3.75005520072007
 1 -3.51730132703270 -0.14672948844884  3.87532270847085
 1 -2.51404691309131 -1.64554928802880 -0.36346079327933
 1 -1.96413975337534  0.05487167816782 -0.69662635683568
 1 -0.43211903170317  0.09577343094309  0.99239960126013
 1 -0.32146248554855 -1.73139509810981  1.17266477487749
 1 -4.41164598109811  6.01786615471547  1.20625342514251
 1 -5.96359156555656  6.79889480418042  1.40904019861986
 1 -5.25196328312831  5.64564260826083  2.55010914491449
 1 -8.20221523092309  6.92687256175618  1.04321587548755
 1 -8.98606395829583  6.16385654615462 -1.54789637573757
 1 -9.45293003960396  7.77511623912391 -0.68799902280228
 1 -12.17252161416142  3.64565375257526 -0.36202401550155
 1 -12.05522937123712  3.54054801220122 -2.32438175497550
 1 -13.25299632243224  2.69623745944595 -1.53501785718572
 1 -12.61842421562156 -1.25254418111811 -1.20195494659466
 1 -13.59819684418442  0.23270742544254 -1.58392075087509
 1 -12.53346897679768  0.22390920402040 -3.71377872217222
 1 -11.73088805680568 -1.18848642224222 -3.57571652375238
 1 -13.41473822732273 -1.41953104790479 -3.44039158145815
 1 -9.84158070687069 -4.49005832563256 -0.75852815481548
 1 -9.24411839073907 -4.40064801080108 -2.21078797699770
 1 -8.42560773547355 -5.40481874887489 -0.74683263876388
 1 -3.83255510691069 -3.48678496869687 -0.27991934053405
 1 -1.80140053305330 -6.30048514421442  2.52856619071907
 1 -2.22231067746775 -4.89614309820982  3.33681812441244
 1 -3.59770278667867 -6.05533062466247  3.35744261986199
 1  2.72466637413741 -1.92175981948195 -1.45724689168917
 1  2.30306520102010 -0.33147072787279 -2.10698846604660
 1  4.29896266796680 -0.79280159445945  0.45876377937794
 1  5.28545037423742  1.80712322132213 -2.75513023282328
 1  5.48997561476148 -0.03850788828883 -3.25803720532053
 1  4.11670178837884  0.61876306310631 -3.34159498459846
 1  6.48103611981198  1.52489861486149 -0.44372456355636
 1  5.91966001070107  0.10958106850685  0.64212191959196
 1  7.22303908880888 -1.70217694229423 -1.02445320492049
 1  7.58557810031003 -0.17164514391439 -2.25485031403140
 1  8.90987647504750  1.04969381068107 -0.34767461916192
 1  8.54128719151915 -0.53018717021702  0.60703351575158
 1  10.37084975357536 -0.46757420072007 -2.03621819681968
 1  9.08509882608261 -2.55626431963196 -1.46142469026903
 1  10.95108013911391 -2.74078567836784 -1.33607421232123
 1  9.90232525262526 -2.64096578217822  0.28019975067507
 1  11.18910420782078  1.08720750085009 -0.13374478927893
 1  11.44122008550855 -0.24846008250825  0.93234316451645
 1  12.72476718731873 -1.61917348854886 -0.33338655165517
 1  12.68566671887189 -0.07299737873787 -1.50238177187719
 1  13.65086624152415  1.01943165396540  0.33367627852785
 1  13.77126135313531 -0.51161758955896  1.28699554545455
 1  15.20617296149615  0.45086629272927 -1.36470848414841
 1  14.77108266116612 -2.23043562536254 -1.02006133933393
 1  16.41264513801380 -1.51469550615061 -1.13318910281028
 1  15.86127140594059 -2.25962109470947  0.52923219461946
 1  15.94253452665267  1.71550812111211  0.38321878087809
 1  16.10017467426743  0.09762038533853  1.54477790039004
 1  17.93962518421842 -0.52630684118412  0.05790592279228
 1  17.64896948254825  0.56999888818882 -1.24048248074807
 1  18.29809449894990  2.54794119001900  0.37259264896490
 1  18.41223347754775  1.37318312781278  1.65221237123712
 1  20.19965629802980  0.45900386138614  0.46285744194419
 1  20.04852220882088  2.95663393349335 -1.63051495389539
 1  21.31074831853185  1.69476754645465 -1.34208731533153
 1  19.84974994799480  1.11207682938294 -2.08053023452345
 1  21.15734097059706  2.03249471747175  2.05739677627763
 1  22.07875073227323  2.24158418581858  0.57976213331333
 1  20.62584221362136  3.38088128772877  0.98872761066107
 1 -7.01779361246125  1.61772064526453 -0.00034818871887
 1 -7.61386293469347 -0.24043421942194 -0.20706083368337

