%nproc=4
%Mem=3GB
# td=(NStates=1) B3LYP/SVP 

TD

0 1
 8 -3.40373728392839 -1.48736379187919 -2.90611126542654
 8  3.20339079387939  3.09237089558956  2.96474074497450
 8  3.71231553975398  1.43559068736874  4.32253669726973
 8  7.74063266616662 -1.48146426062606 -0.65013577537754
 8  6.79698385478548 -3.01862265716572 -1.98636508460846
 8 -2.59631053755376  1.70738622772277  1.54035409590959
 7 -0.30431617781778 -2.43105942024202  0.92833767456746
 7 -2.66310834883488 -1.22806794179418 -0.73905605020502
 7  1.19119066846685  0.01517242694269 -0.81009594679468
 7 -1.00744989048905  1.51738714661466 -0.16107700560056
 6 -3.39105425512551 -1.24464202660266  0.58203517741774
 6 -2.65763438953895 -2.22075622182218  1.47673298009801
 6 -1.25788142984298 -2.03341115511551  1.76582457105711
 6 -0.56497629992999 -1.26435762746275  2.78442646314631
 6  0.73096420902090 -1.14977997899790  2.37971916651665
 6  0.93709639583958 -1.87667410211021  1.25524032803280
 6 -4.78063300990099 -1.81820746944694  0.26895378267827
 6  1.82646723812381 -0.46958728832883  3.07324947944794
 6 -4.84606096749675 -2.11703041144114 -1.00839117961796
 6  2.09008696509651 -1.89428762096210  0.26514879357936
 6  2.11854787668767 -0.96294820702070 -0.70725462696270
 6 -3.55803047294729 -1.67269923522352 -1.75635291869187
 6  3.08168923212321 -0.61740248854885 -1.81337523642364
 6 -1.25777434963496 -0.45474933193319  3.87904341264126
 6 -5.84719994409441 -2.11136761706171  1.24267527312731
 6  2.61387104400440  0.50761813001300 -2.39858446844684
 6  1.79582901530153  1.09689538153815  2.82644928652865
 6  1.43178654515452  0.96929357795780 -1.74353045904590
 6  4.24049939903990 -1.53609303840384 -2.04329395949595
 6 -5.94130846694669 -2.56142823322332 -1.85632908110811
 6  5.51819737073707 -1.09940168536854 -1.08408182508251
 6  3.26720681608161  1.21786018861886 -3.63204971417142
 6  0.59046147024702  2.03428857575758 -2.01453319841984
 6  2.94269290959096  1.82862244774477  3.49636498169817
 6 -0.58214204580458  2.26385101730173 -1.19296458435844
 6 -7.03306723322332 -3.23018678277828 -1.48117667636764
 6  6.72469203880388 -2.03540179527953 -1.30096078607861
 6 -1.45038369316932  3.48503073627363 -1.20017809250925
 6 -2.42983707310731  3.30235071407141 -0.14367227342734
 6 -1.99345161756176  2.10037097059706  0.53889282128213
 6 -1.31464144254425  4.64759101930193 -2.22701446944694
 6 -3.42154279077908  4.22621310421042  0.32383662336234
 6 -1.85158905010501  5.79290470867087 -2.38568230103010
 1 -3.59100759395940 -0.29203469336934  0.82870707530753
 1 -2.79308093449345 -3.41289641464146  0.88699904900490
 1 -3.06101592139214 -2.32216566096610  2.45888527722772
 1 -0.35239054385439 -2.75859462456246 -0.14262725272527
 1 -2.06556494619462 -0.45279158265827 -0.72729683208321
 1  1.59513747514751 -0.76188764256426  4.07550965006501
 1  2.81210854375438 -0.89074096539654  2.84366929632963
 1  2.91196000990099 -2.65844742764276  0.53491654485449
 1 -2.08445107440744 -1.26053532753275  4.09844690649065
 1 -0.54171393939394 -0.23475767936794  4.56765312181218
 1 -1.87409672347235  0.25483793049305  3.16853561886189
 1 -5.68299908710871 -1.44768289948995  2.08802309530953
 1 -5.93520228092809 -3.22063616821682  1.56553940024002
 1 -6.84459183598360 -1.74965060846085  0.75205156685669
 1  1.67458359775978  1.25599554145414  1.71674928622862
 1  0.83000295179518  1.46991923622362  3.44218219191919
 1  0.42490074767477  0.38931330113011 -0.16345837813781
 1  4.57108282748275 -1.32863592259226 -3.17005260716072
 1  3.97208803860386 -2.45643742294229 -1.99994710271027
 1 -5.82370450885089 -2.20155107970797 -2.81338480228023
 1  5.39766768806881 -1.08215869576958 -0.07964474077408
 1  5.80478191949195 -0.19279627572757 -1.50112459495950
 1  3.87766767826783  0.50211670377038 -4.10858908840884
 1  3.69834558615862  2.24834591329133 -3.44581691709171
 1  2.50174596389639  1.43238773667367 -4.42016516851685
 1  0.89640355035504  2.91064256075608 -2.68859975197520
 1 -7.10737982408241 -3.55252743664366 -0.46320534173417
 1 -7.93432169706971 -3.37694902540254 -2.30253330683068
 1  3.80643437093709  3.46250561156116  3.57900115431543
 1 -0.59590346914692  4.49636091559156 -2.94720261566157
 1 -4.13175176477648  4.49420600240024 -0.36491764326433
 1 -4.00699944964496  3.71025581918192  1.19382019341934
 1 -3.00265858205821  5.13725401650165  0.98742451235124
 1  8.41632732623262 -2.19619277347735 -0.79583021802180
 1 -1.62871579617962  6.64126458355836 -3.14188904110411
 1 -2.70454280718072  6.27955933173317 -1.78057396489649

