%nproc=4
%Mem=3GB
# td=(NStates=1) B3LYP/SVP 

TD

0 1
 8 -3.31156806700670 -1.20324538003800 -2.87068772307231
 8  3.18278873367337  3.03100475897590  2.98228249914991
 8  3.67653196139614  1.36874400270027  4.36876131973197
 8  7.75555415831583 -1.34454056825683 -0.71533229502950
 8  6.83576773317332 -2.71648244314431 -2.32494894299430
 8 -2.52762366886689  1.57628311741174  1.42573263376338
 7 -0.23119886608661 -2.42107842214221  0.89492433323332
 7 -2.64231626962696 -1.24431956695670 -0.62245439003900
 7  1.14011556095610  0.04478538823882 -0.70015495269527
 7 -0.92653179867987  1.47134254215422 -0.19149004690469
 6 -3.37612276197620 -1.31618918131813  0.67150412431243
 6 -2.58779740584058 -2.35383953015302  1.55037034383438
 6 -1.23686932863286 -2.05540335433543  1.75158314691469
 6 -0.72334213651365 -1.22020321202120  2.80272829332933
 6  0.65683679627963 -1.11280628162816  2.49217041164116
 6  0.90942362856286 -1.96836327102710  1.28207301130113
 6 -4.71329627622762 -1.76127177587759  0.26139302660266
 6  1.68029262066207 -0.35177550715072  3.36837899239924
 6 -4.86026238763876 -1.90741945034503 -1.07949829032903
 6  2.13625158155816 -1.85169336153615  0.47628990769077
 6  2.11390741264126 -0.90084199639964 -0.57610151165117
 6 -3.52109677957796 -1.39606157145715 -1.77307459085909
 6  2.89184024722472 -0.77018776707671 -1.68208210711071
 6 -1.49613818601860 -0.59431328832883  3.81199670797080
 6 -5.78729395349535 -2.02611909220922  1.32888389398940
 6  2.57757741464146  0.30253762196220 -2.41583619361936
 6  1.87460689308931  1.08453414541454  2.80248689028903
 6  1.31282464896490  0.88923557215722 -1.75757186318632
 6  4.13745909500950 -1.71079050815082 -1.83910354045405
 6 -5.90482481858186 -2.41332342274227 -1.97210065826583
 6  5.33735928692869 -1.17492923812381 -1.07597101400140
 6  3.25021511691169  0.95222362496250 -3.68490499969997
 6  0.54139656375638  1.95982112901290 -2.07766951205121
 6  3.02518115841584  1.87232681818182  3.44328967416742
 6 -0.61725555715572  2.21105573777378 -1.24304959285929
 6 -6.81090501700170 -3.26190995509551 -1.63614217291729
 6  6.70706027562756 -1.79563781888189 -1.48584927492749
 6 -1.42754140894089  3.48563079627963 -1.25126320102010
 6 -2.25192928232823  3.38320879987999 -0.21969987618762
 6 -1.97910018241824  2.07535846934693  0.51566049804980
 6 -1.26737671607161  4.51632789298930 -2.24596636463646
 6 -3.41281191769177  4.26793727662766  0.24881912161216
 6 -1.93642753395340  5.69024444264427 -2.26193992679268
 1 -3.40633912711271 -0.39415490539054  0.99459366396640
 1 -2.84547617401740 -3.41974709970997  1.24815516461646
 1 -3.23372319211921 -2.58116156055606  2.56546593529353
 1 -0.20244554935494 -3.01955072017202  0.08317532753275
 1 -1.91018940864086 -0.53839014251425 -0.83175727812781
 1  1.39845780718072 -0.35834728852885  4.34827692679268
 1  2.66924425732573 -0.73806569786979  3.13474840424042
 1  2.94096291019102 -2.63391497439744  0.34427748094810
 1 -2.17601023032303 -1.24049332333233  4.23286034783478
 1 -0.89681944994499 -0.30749495309531  4.77555391189119
 1 -2.10233954775478  0.38233067976798  3.30900966626663
 1 -5.84588537573757 -1.36952508370837  2.19554384738474
 1 -5.85690445114511 -3.04853895849585  1.73030587688769
 1 -6.64479185598560 -1.74751039443944  1.00933729542954
 1  2.19563570297030  1.17411735363536  1.77552516381638
 1  1.00611056255626  1.63768601290129  3.12401037473747
 1  0.34836309390939  0.06728109790979 -0.12924495679568
 1  4.48641436063606 -1.62500555955596 -3.06483208510851
 1  3.84706553635364 -2.86156793599360 -1.51732884088409
 1 -5.96516865526553 -2.01531245584558 -2.99301276507651
 1  5.49344726602660 -1.33590407030703  0.01308453215322
 1  5.40800224152415 -0.07533452955296 -1.31320580308031
 1  3.82866277777778  0.15045153725373 -4.28317654715472
 1  3.93315906750675  1.81120219891989 -3.38925126052605
 1  2.48394418371837  1.57289178707871 -4.43516666866687
 1  0.58837274727473  2.39496099259926 -3.10158105010501
 1 -6.92505159125913 -4.08087027092709 -0.60528955015502
 1 -7.72970123502350 -3.67761909240924 -2.29171222472247
 1  4.00559428692869  3.33153251425143  3.16891014521452
 1 -0.56255013381338  4.56054733423342 -2.97704559996000
 1 -3.98768735833583  4.30116669846985 -0.54385553705370
 1 -3.75602435213521  3.96337113071307  1.13640445184518
 1 -2.87407572377238  5.30937122822282  0.25333110301030
 1  8.76899259275928 -1.60135328952895 -1.14558519351935
 1 -1.99125204980498  6.27910836793679 -3.14059891209121
 1 -2.59110146304630  6.08744011981198 -1.37721362886289

