%nproc=4
%Mem=4GB
# td=(NStates=1) B3LYP/SVP 

TD

0 1
 8 -5.25511174117412  0.26194163376338 -3.37479726942694
 8  2.94598460396040  2.84401165586559  3.54927100550055
 8  3.34868321692169  0.76825222422242  2.91434331943194
 8  1.40520816031603 -7.15372164226423  1.51906041234123
 8  0.83876876487649 -7.06799322292229 -0.63539152205221
 8  1.71404845294529  3.90771389418942  0.21294080148015
 7 -2.24481409250925 -0.91846027622762  0.55690270687069
 7 -4.24251913331333  0.59608727522752 -1.29576793159316
 7  1.82465285688569 -0.73055462846285 -0.31980045764576
 7  2.58088363026303  1.90864661016102 -0.31183793049305
 6 -4.63245963716372  1.17294879187919  0.01561736153615
 6 -4.36276366916692  0.26081624692469  1.21045840354035
 6 -2.86019111471147 -0.03694343764376  1.46042805580558
 6 -1.93586268296830  0.58355331253125  2.18839200880088
 6 -0.70248685898590 -0.02723815931593  1.87276795439544
 6 -0.92050623842384 -0.95306836573657  0.81387320672067
 6 -6.21457381348135  1.32458024732473 -0.15468068346835
 6  0.61512011861186  0.19200987748775  2.59925894599460
 6 -6.51350186468647  0.94090333873387 -1.44156988568857
 6 -0.22693894999500 -1.89243798069807  0.17534961646165
 6  1.11317821402140 -1.86028557515752 -0.28840042224222
 6 -5.31386198649865  0.50238845354535 -2.15451276277628
 6  1.97580166536654 -2.99015955435544 -0.76771378067807
 6 -2.12719842074207  1.69256501340134  3.17492188238824
 6 -7.02825031823182  2.00598872807281  0.93221720762076
 6  3.10716705040504 -2.35791574277428 -1.27095834093409
 6  1.17698372567257  1.65803429682968  2.65877951385139
 6  3.05063313861386 -0.91570019561956 -0.98174216241624
 6  1.56170994119412 -4.41079704410441 -0.89720143704370
 6 -7.84146005200520  0.91794343194319 -2.07733612141214
 6  1.77842540814081 -5.17019795439544  0.38005400090009
 6  4.37467307630763 -3.04495296409641 -1.87782701400140
 6  3.92220309090909 -0.00694129062906 -1.17738242064206
 6  2.62060268146815  1.61658924712471  3.05995189508951
 6  3.57315169296930  1.41682709420942 -1.03549011631163
 6 -9.07960294369437  0.88477063736374 -1.53998881418142
 6  1.32052711741174 -6.48157480768077  0.33208186718672
 6  4.40280911551155  2.62679943484348 -1.54188127122712
 6  3.64228349674967  3.79548007170717 -1.13484477877788
 6  2.62932450325032  3.23806165726573 -0.29643840654065
 6  5.59930353565357  2.55285012561256 -2.44881683678368
 6  3.92908852865287  5.26337121292129 -1.32238425182518
 6  6.36619667726773  3.52032771757176 -3.00851532843284
 1 -4.20987547364736  2.20180126022602  0.48338137843784
 1 -4.88527318421842 -0.73971544764477  1.11203594779478
 1 -4.85116195609561  0.82415641534153  2.21785869556956
 1 -2.69910895079508 -1.52112950845085 -0.11511843364336
 1 -3.25105610291029  0.55146706380638 -1.67716526742674
 1  0.43411784648465 -0.19359904790479  3.56215576367637
 1  1.39140314971497 -0.66878154555456  2.23660879367937
 1 -0.58986764766477 -2.65042250725073 -0.18573357105711
 1 -3.01938208350835  1.40610187428743  3.40002999269927
 1 -1.52204341944194  1.48720808470847  3.84498288618862
 1 -1.81708808990899  2.69987380718072  2.85075249704970
 1 -6.50545399629963  2.83320212371237  1.30679291229123
 1 -7.41668143514351  1.26186599579958  1.61077808850885
 1 -7.83690962816282  2.68005408850885  0.56080456065607
 1  1.14752746114611  2.18227026362636  1.76365443274327
 1  0.64071718421842  2.20558738073807  3.34441026522652
 1  1.70157448384838  0.23798444344434 -0.14544991029103
 1  2.09934772697270 -4.99614344474447 -1.76213082278228
 1  0.43152494999500 -4.47566741424142 -1.17303578697870
 1 -7.67995905770577  0.77286751735173 -3.10814675287529
 1  1.32767495639564 -4.51324250395039  1.24653222982298
 1  3.05538180828083 -5.18980618511851  0.81896971187119
 1  4.30503556585659 -4.04826227842784 -2.04963842494249
 1  5.21753285168517 -2.86571542174217 -1.25501911951195
 1  4.65950738383838 -2.41573380598060 -2.82060113371337
 1  4.93177279677968 -0.39496159065907 -1.63061923762376
 1 -9.11341494199420  0.90455791129113 -0.50558324812481
 1 -9.97844597819782  0.68211962766277 -2.14458055805581
 1  3.99081376787679  2.80611399509951  3.47683244894490
 1  5.72117558575858  1.50783293249325 -2.82391120612061
 1  4.70910160996100  5.66626939113911 -1.09104772467247
 1  4.07287931043104  5.40870763646365 -2.34284682958296
 1  3.04896256585659  5.77702730913091 -0.95959770137014
 1  1.01670897899790 -8.06682783988399  1.38249430433043
 1  7.16192863726373  3.27197273717372 -3.52648992229223
 1  6.45930781828183  4.66702221442144 -2.54529688218822

