%nproc=4
%Mem=3GB
# td=(NStates=1) B3LYP/SVP 

TD

0 1
 8 -3.25118202840284 -1.31312636813681 -2.86844749904990
 8  3.05935639043904  3.11001265976598  3.33457772867287
 8  3.79807411561156  1.23886101440144  4.36119056265627
 8  7.81083968686869 -1.40163627782778 -0.79632039383938
 8  6.80314447084708 -2.75578637353735 -2.22318876697670
 8 -2.71495240174017  1.67682317141714  1.34820488098810
 7 -0.32522826902690 -2.51746806110611  1.00516535733573
 7 -2.63758579657966 -1.04812994799480 -0.60019216381638
 7  1.12420396979698  0.02295320502050 -0.66525146234623
 7 -0.91879102460246  1.52143755165517 -0.07584848274828
 6 -3.38810396009601 -1.16887444984498  0.60451742564256
 6 -2.75030365646565 -2.25984013021302  1.67650295709571
 6 -1.23750939263926 -1.92365017901790  1.89284727332733
 6 -0.62880268256826 -1.16723791549155  2.90754877537754
 6  0.68619973257326 -1.14205920692069  2.54850604520452
 6  0.89020170637064 -1.88650508520852  1.34904970897090
 6 -4.73327827442744 -1.82174782348235  0.20841772907291
 6  1.86466105750575 -0.40472080168017  3.22918507300730
 6 -4.80174653605361 -2.05400410881088 -1.10783112361236
 6  2.01459941634163 -1.99219741194119  0.26761904060406
 6  2.04622064396440 -1.03130504270427 -0.69726362786279
 6 -3.41321599149915 -1.53091505680568 -1.68808609200920
 6  3.01210227342734 -0.70997174547455 -1.72715661456146
 6 -1.34006257845785 -0.40908476547655  3.90319582788279
 6 -5.85391061516152 -2.22596907720772  1.22879388498850
 6  2.50791044794479  0.32646001420142 -2.54450906090609
 6  1.95864529692969  1.02053774577458  2.88545518711871
 6  1.31499486598660  0.87584423302330 -1.83572967896790
 6  4.23511886098610 -1.53449287838784 -2.05984561466147
 6 -5.83098743484348 -2.51121321172117 -2.00216366456646
 6  5.38374392539254 -1.08443018821882 -1.10200361726173
 6  3.06414651005101  1.01907030963096 -3.74726123532353
 6  0.46027845194519  1.92529767666767 -2.00640238533853
 6  3.05480412071207  1.77035662116212  3.55010035523552
 6 -0.62891672327233  2.27609224142414 -1.20491577947795
 6 -6.86274020052005 -3.22927669176918 -1.67092565126513
 6  6.67186675627563 -1.86172442754275 -1.45349603960396
 6 -1.33710236503650  3.49280151335133 -1.25519359405941
 6 -2.29630371977198  3.37956843584358 -0.21489939613961
 6 -2.05626789918992  2.10119105260526  0.49467839983998
 6 -1.21314129252925  4.44546080628063 -2.41101286928693
 6 -3.35135577207721  4.32395287818782  0.20368460816082
 6 -1.90015390659066  5.61458687688769 -2.34489822262226
 1 -3.57368586178618 -0.16467195709571  1.15265947054705
 1 -2.67135876227623 -3.30754587958796  1.17889823892389
 1 -3.39246906670667 -2.39023246764676  2.60863025172517
 1 -0.73748905370537 -2.71040980608061  0.00992800280028
 1 -2.08255664536454 -0.29536584008401 -0.72825692809281
 1  1.73565152655266 -0.68686013981398  4.44925702480248
 1  2.98166549944994 -0.86758865016502  3.01625655505550
 1  2.92714152805281 -2.82131371427143  0.28188124132413
 1 -2.22987561686169 -1.00623989798980  4.23152021382138
 1 -0.72522229022902  0.17144294069407  4.74881123762376
 1 -1.75643495729573  0.42589503620362  3.08428719401940
 1 -5.92693348054805 -1.56555468666867  2.16134042704270
 1 -5.60317907860786 -3.14732883748375  1.50334318061806
 1 -6.86857423422342 -2.09370501390139  0.89274563626363
 1  2.18845498489849  0.92540248214822  1.79637724902490
 1  0.93147309880988  1.50517276157616  3.00792876657666
 1  0.24757301490149  0.08125249504951 -0.20340237253725
 1  4.68585430463046 -1.43510656965697 -3.25347094899490
 1  4.15127595739574 -2.62686446564656 -2.16120322832283
 1 -5.63726586498650 -2.37559848444845 -3.13994745854585
 1  5.21509943124312 -1.20679115901590 -0.17065384168417
 1  5.71509295059506 -0.04178117421742 -1.40474495699570
 1  3.79050896239624  0.47900439253925 -4.07271550105011
 1  3.52579833143314  1.98719979867987 -3.09636197159716
 1  2.33347913721372  1.47398189608961 -4.45772892489249
 1  0.72240615061506  2.46153765026503 -2.88382927492749
 1 -7.06514560066007 -3.66306849074908 -0.69310833203320
 1 -7.44862312721272 -3.47277860836084 -2.50854390789079
 1  3.83588731623162  3.40297965896590  3.90349360356036
 1 -0.74578845764576  4.12343362286229 -3.53590148554856
 1 -4.02947153675368  4.70612719451945 -0.72834398589859
 1 -4.08770752045204  3.70039483308331  0.82363317471747
 1 -2.84021233743374  5.13114340544054  0.71344711461146
 1  8.49424511801180 -2.10149330353035 -1.15188582358236
 1 -1.96770969556956  6.56572702980298 -3.12205705790579
 1 -2.38616096899690  5.93477485328533 -1.42065797329733

