%nproc=4
%Mem=4GB
# td=(NStates=1) B3LYP/SVP 

TD

0 1
 8 -5.52219844984498 -0.08381294169417 -3.26284607430743
 8  2.89828983448345  3.02800005470547  3.14090016841684
 8  3.51184953355336  0.81265666466647  2.87048893399340
 8  1.56535417491749 -7.07421369146915  1.56977548384838
 8  0.79526441444144 -7.11401782538254 -0.58607659055906
 8  1.67497454555456  3.88284140694069  0.06169567696770
 7 -2.30531014211421 -0.91647007720772  0.52799981658166
 7 -4.51181606300630  0.46273393989399 -1.26376473127313
 7  1.90706109770977 -0.73538511151115 -0.39088756635664
 7  2.62481802370237  1.88086383188319 -0.56715346204620
 6 -4.81286767796780  1.15917741474147 -0.06256045624562
 6 -4.36703409620962  0.31386155145515  1.15371272897290
 6 -2.95639073467347 -0.00545028832883  1.25103711671167
 6 -1.94515361206121  0.65467042424242  2.15330850045004
 6 -0.64046065636564 -0.02263769926993  1.76676735433543
 6 -0.93542773057306 -0.92065512441244  0.75583740314031
 6 -6.30028238433843  1.32297008630863 -0.07898311371137
 6  0.65737434403440  0.13707438393839  2.43870289038904
 6 -6.81139165366537  0.91048029642964 -1.33745947464747
 6 -0.16917317341734 -1.96163490039004  0.24620670217022
 6  1.17059395559556 -1.88595814241424 -0.38131971417142
 6 -5.59556015631563  0.35434364906491 -2.20663797529753
 6  1.92956704190419 -2.93625416381638 -0.89199620892089
 6 -2.14348004890489  1.75495125202520  3.08028241844184
 6 -7.08928642184218  1.97088521772177  1.02174616051605
 6  3.19816615031503 -2.35504545574557 -1.36919816491649
 6  1.17104313161316  1.54686317971797  2.59248288418842
 6  3.10775885118512 -0.88297692329233 -1.07191117931793
 6  1.57834160436044 -4.40305627002700 -0.90215193209321
 6 -8.11378728472847  0.93453509110911 -1.96302469026903
 6  1.72749031463146 -5.13562449704971  0.39484548004800
 6  4.40771638063806 -3.05625409420942 -1.85724495579558
 6  3.99972084268427  0.09628903240324 -1.25717039943994
 6  2.66733735493549  1.77181476967697  2.90259615951595
 6  3.79120349814982  1.47753316481648 -1.07690425772577
 6 -9.39115409880988  1.03999615991599 -1.32786760206021
 6  1.26540160486049 -6.51229787998800  0.38527718671867
 6  4.58825766036604  2.65316207110711 -1.46415349844984
 6  3.85978524692469  3.80917144084408 -1.06465776007601
 6  2.65032660346035  3.28605645674567 -0.43353211591159
 6  5.86100970627063  2.53613845444544 -2.13270522562256
 6  4.25056067586759  5.22463733953395 -0.87685969936994
 6  6.80617067466747  3.46115179998000 -2.32165664256426
 1 -4.34427891399140  2.15527660776078 -0.08963592329233
 1 -5.06723138003800 -0.68946042214221  1.12932767696770
 1 -4.77504434433443  0.72075607530753  1.88831574127413
 1 -2.83806284618462 -1.34068146364636 -0.14041096289629
 1 -3.51801279857986  0.52635455255526 -1.77437498839884
 1  0.68383281798180 -0.46562625062506  3.57938748684869
 1  1.38149215861586 -0.54177884528453  1.66710184298430
 1 -0.62053071397140 -2.97822528752875  0.20319532183218
 1 -3.08957910321032  2.12597386148615  3.30992098179818
 1 -1.78815003010301  1.40612997689769  4.00352874077408
 1 -1.64544092519252  2.70061388118812  2.87579500130013
 1 -6.49070252115211  2.58970777427743  1.77839007200720
 1 -7.80947071407141  1.12575238443844  1.71010802150215
 1 -7.83059899709971  2.74911099419942  0.69846832703270
 1  1.03992670107011  2.18710074667467  1.63966203350335
 1  0.53220633313331  2.11947876987699  3.36053187738774
 1  1.55900022642264  0.03713435843584 -0.22477784308431
 1  2.06062385458546 -4.73550738113811 -1.76349095879588
 1  0.56040783828383 -4.47193704120412 -1.53144162756276
 1 -8.07934899669967  0.42034226482648 -3.15540147834783
 1  1.25806799569957 -4.75621680138014  1.18865644224422
 1  2.78711498159816 -5.07671487598760  0.50816863176318
 1  4.12081714401440 -4.10519797199720 -2.11098455955596
 1  5.33296439483948 -3.07907675787579 -1.12938655625562
 1  4.82135356845685 -2.52385461806181 -2.90965003860386
 1  4.95711533103310 -0.07574966946695 -1.68063423912391
 1 -9.37031063156316  1.34391184668467 -0.22066475627563
 1 -10.20445857945795  0.98609002470247 -1.92628872887289
 1  3.91924661116112  3.18975235893589  3.15972073777378
 1  5.90726419461946  1.41558370757076 -2.39195801080108
 1  4.99191989178918  5.28249101330133 -0.10898951885189
 1  4.39421144364436  5.77927469316932 -1.83811635653565
 1  3.49589725932593  5.64553415981598 -0.22101384298430
 1  1.15869317741774 -7.88549970707071  1.35419147404741
 1  7.73750619501950  3.13295883578358 -2.83669094239424
 1  6.64204609210921  4.45419093129313 -2.13407576007601

