%nproc=4
%Mem=3GB
# td=(NStates=1) B3LYP/SVP 

TD

0 1
 8 -3.47320423062306 -1.42279733523352 -2.93978463276328
 8  3.25244569936994  3.08152981148115  3.13770804170417
 8  3.69357366556656  1.42376950525053  4.47659210281028
 8  7.59993859675968 -1.59469558375838 -0.35875663746375
 8  6.80041419781978 -2.93055385028503 -2.10967741584158
 8 -2.54856576307631  1.65056054515452  1.59139920042004
 7 -0.24706045224522 -2.40272658695870  0.87713255405541
 7 -2.79984202220222 -1.16346148114811 -0.75492763736374
 7  1.05670722012201  0.12552346204620 -0.81078601580158
 7 -1.10862000750075  1.42566797469747 -0.25300619851985
 6 -3.38673382308231 -1.39794735713571  0.53831080498050
 6 -2.55559418551855 -2.38884303050305  1.52916822362236
 6 -1.16195183688369 -1.96739455345535  1.70316830543054
 6 -0.47062686498650 -1.14529572127213  2.73483150365037
 6  0.85021613421342 -1.12492749374938  2.49781097569757
 6  1.01757444364436 -1.85001143584358  1.28032283628363
 6 -4.77394234083408 -1.90343599229923  0.29521640894089
 6  1.87838242964296 -0.34517484708471  3.24511666616662
 6 -4.89995635703570 -1.97250595899590 -1.13785412591259
 6  2.16350430683068 -1.83399159135914  0.35841812051205
 6  2.16658268016802 -0.83467537973797 -0.64218812031203
 6 -3.68688335823582 -1.46911887718772 -1.76086336973697
 6  3.06922798599860 -0.58679942824282 -1.71355525442544
 6 -1.39667824002400 -0.44100795779578  3.79142465076508
 6 -5.71544676877688 -2.19331581188119  1.35666667226723
 6  2.48552820972097  0.46134350255026 -2.49669427942794
 6  2.06552598499850  1.03561925392539  2.56654329592959
 6  1.32209557605761  0.92403905250525 -1.86282238823882
 6  4.26944229332933 -1.39532896199620 -2.09038866896690
 6 -5.85196953305331 -2.55267735813581 -1.99294274247425
 6  5.40091564256426 -1.31588333353335 -0.97334075097510
 6  3.09727982338234  1.07238564116412 -3.83154966416642
 6  0.50118254235424  2.02517766466647 -2.07582932803280
 6  3.08918755905591  1.84735432093209  3.51674701990199
 6 -0.68638246984698  2.25352998519852 -1.33770905880588
 6 -6.95407933443344 -3.40776454055406 -1.67712627132713
 6  6.63540310991099 -2.10481873697370 -1.31032172217222
 6 -1.50632928772877  3.55461769496950 -1.20985906060606
 6 -2.26583067246725  3.44482496149615 -0.13231113731373
 6 -2.07033930633063  2.15526646014601  0.50009894189419
 6 -1.26021600000000  4.55738199839984 -2.25218698669867
 6 -3.27433807030703  4.35399588248825  0.46441068076808
 6 -1.98377226842684  5.70389580778078 -2.25828956175618
 1 -3.27324581778178 -0.32692818271827  1.15649985458546
 1 -2.61065269166917 -3.55438056305631  1.18164851395140
 1 -3.21978179797980 -2.37241068546855  2.43299268796880
 1 -0.11558686348635 -3.01877064216422  0.02736974697470
 1 -2.25823421312131 -0.25379168266827 -0.80372447484748
 1  1.43155111651165 -0.13330478427843  4.31628372747275
 1  2.86126345924592 -0.95701759305931  3.24189911931193
 1  2.76260507440744 -2.64431601450145  0.35113816701670
 1 -2.15211784108411 -1.24160343434343  4.21983904570457
 1 -0.93446321432143 -0.05348955255526  4.84911126762676
 1 -1.86307562136214  0.29797224392439  3.26687545284528
 1 -5.55381616881688 -1.46979511071107  2.28599289228923
 1 -5.42803156385639 -3.17273137773777  1.66146899319932
 1 -6.80703808060806 -2.13065870927093  1.08245460716072
 1  2.65957209660966  0.86316625852585  1.60899851115112
 1  1.06290624212421  1.63799604390439  2.45803377707771
 1  0.18185644324432  0.34435880568057 -0.51169320162016
 1  4.66160187938794 -1.23387644664466 -3.11669727162716
 1  3.98155898569857 -2.46148792799280 -2.00358746674668
 1 -5.92429456785678 -2.33212413701370 -3.03548701250125
 1  4.94594251555156 -1.71655213511351 -0.00260703700370
 1  5.60063150445045 -0.11378837493749 -0.91667615011501
 1  4.07089700120012  0.55440193229323 -4.05365359485949
 1  3.31221697329733  2.20541161986199 -3.78880121552155
 1  2.39384517381738  1.03383788168817 -4.73552670467047
 1  0.83358726872687  2.44514601110111 -3.06290718271827
 1 -7.03928301440144 -3.79935211911191 -0.82982200340034
 1 -7.65491375627563 -3.84359569006901 -2.40639369286929
 1  3.69922364986499  3.64828418941894  3.88279153335333
 1 -0.71057493629363  4.23658493799380 -3.04712260766077
 1 -4.27147573717372  4.43730031183118 -0.14431558305831
 1 -3.66120487018702  4.20834562816282  1.46193700510051
 1 -2.86524484068407  5.32004229532953  0.64898066796680
 1  8.30974666816682 -2.17734088828883 -0.58564919991999
 1 -1.57619054365437  6.50374083118312 -3.04983983618362
 1 -2.65443779667967  6.27778915471547 -1.44653056055606

