%nproc=4
%Mem=4GB
# td=(NStates=1) B3LYP/SVP 

TD

0 1
 8 -5.24971120112011  0.35123056265627 -3.30758054775478
 8  3.08034804030403  2.81668892359236  3.48844492289229
 8  3.41370971957196  0.64264966396640  3.17050893599360
 8  1.87319495899590 -7.20067633773377  1.47423592989299
 8  0.68664355235524 -7.16559298289829 -0.40578856175618
 8  1.75264231233123  3.95584870767077  0.14614412181218
 7 -2.39255886698670 -0.89035746594659  0.51501851845185
 7 -4.30931581298130  0.74143180968097 -1.26775513031303
 7  1.76767715931593 -0.72993456645665 -0.39900837843784
 7  2.65397093899390  1.81969771527153 -0.36247299399940
 6 -4.73519991119112  1.22073357035704 -0.05442964316432
 6 -4.45292268506851  0.37636780208021  1.36203356105611
 6 -3.01952704830483  0.03337359405941  1.37178919191919
 6 -1.98855795249525  0.62928788598860  2.14192736233623
 6 -0.79710632093209  0.06868143264326  1.85295597319732
 6 -1.07681186898690 -0.96218927782778  0.83100491989199
 6 -6.27855021112111  1.33936172547255 -0.12952816821682
 6  0.58716732333233  0.16001667816782  2.46918593869387
 6 -6.55959647414741  0.95982523092309 -1.42331806050605
 6 -0.21662791889189 -1.95833457035704  0.16968905040504
 6  1.05724262046205 -1.86841638823882 -0.35671725392539
 6 -5.40851145144514  0.60873908860886 -2.15433274477448
 6  1.81551563676368 -2.94374491289129 -0.93031004030403
 6 -2.07078277917792  1.59629538643864  3.24139853005301
 6 -7.17226471967197  1.87956608580858  0.90165415131513
 6  3.01460779447945 -2.37384733593359 -1.34705595069507
 6  1.18268429572957  1.72348084148415  2.53599723562356
 6  2.91846992229223 -0.84620324592459 -1.10314430263026
 6  1.47239100930093 -4.43817978237824 -0.88200991789179
 6 -7.81444735073507  0.79358099569957 -2.03501188898890
 6  1.85326289188919 -5.07918885348535  0.40549654515452
 6  4.20604621362136 -3.02086055485549 -1.89281851315132
 6  3.88064893549355  0.09228863236324 -1.40441512391239
 6  2.65335595679568  1.62119970817082  3.07840374027403
 6  3.67148152595260  1.55009042054205 -1.18542510981098
 6 -9.05734071747175  0.54925708600860 -1.57733254855486
 6  1.31694675937594 -6.55925257545755  0.37966662566257
 6  4.58814764936494  2.70056681158116 -1.58961604470447
 6  3.79060832923292  3.78649917361736 -1.13702499679968
 6  2.60169173997400  3.30766861796180 -0.46858562126213
 6  5.80845445074508  2.50606544714471 -2.28448040314031
 6  4.21644726452645  5.22039691549155 -1.34908692209221
 6  6.55648570617062  3.53534921972197 -2.60262473937394
 1 -4.19858434453445  2.26516759685969  0.11230427072707
 1 -5.11622627952795 -0.54958643474347  1.03129787398740
 1 -4.80731757165717  0.88013201290129  2.23532044174417
 1 -2.88043708360836 -1.66953434893489  0.05041812001200
 1 -3.40470146744674  0.43383530063006 -1.52416996789679
 1  0.66899133383338 -0.41317100510051  3.64969451755176
 1  1.26701071047105 -0.62534720212021  2.07554268706871
 1 -0.63479214011401 -2.91211867686769 -0.06648164586459
 1 -3.05435558085809  1.77787905200520  3.75352534223422
 1 -1.19771098619862  1.45652501640164  4.18784717261726
 1 -1.70176655775578  2.57600141994199  2.70851827362736
 1 -6.70949440034003  2.53581238473847  1.62416464946495
 1 -7.65237500450045  1.13834364356436  1.51808881958196
 1 -7.96654259145915  2.50434651775178  0.59791827202720
 1  1.06070877927793  2.24143618021802  1.68974704200420
 1  0.55005811831183  2.16492331433143  3.31770759495950
 1  1.53402772917292  0.27466811181118 -0.00521588688869
 1  2.20383817601760 -4.75724955535554 -1.60405501520152
 1  0.33505530303030 -4.79017886538654 -1.24216269966997
 1 -7.83413447524752  0.83608383898390 -3.02827876607661
 1  1.39313150205020 -4.63584476417642  1.46537411401140
 1  2.90948721882188 -5.25452265676568  0.65510332523252
 1  4.09133419571957 -4.09273672587259 -2.30792425352535
 1  5.03196429482948 -3.25162401260126 -1.12277589518952
 1  4.61936336943694 -2.60312254485449 -2.77356643024302
 1  4.66464608410841 -0.13728582308231 -2.02051822752275
 1 -9.25079868036804  0.60660811631163 -0.57436012581258
 1 -10.03696182978298  0.43243465916592 -2.11643774377438
 1  4.01816650315032  2.74827821152115  3.75268003370337
 1  6.11104457265727  1.57880002920292 -2.56509532453245
 1  5.10269096889689  5.69661242544255 -0.61204982488249
 1  4.55888791129113  5.53370013571357 -2.57429997489749
 1  3.43019068866887  5.92576218261826 -0.83221496309631
 1  1.65672298039804 -8.12361351845185  1.57438349324933
 1  7.60027247164716  3.58134367426743 -3.11922919621962
 1  6.37315920342034  4.71288680088009 -2.23925627812781

