%nproc=4
%Mem=4GB
# td=(NStates=1) B3LYP/SVP 

TD

0 1
 8 -5.42816904690469 -0.10173473387339 -3.21077086678668
 8  3.06495650115012  2.90790804550455  3.20329640804080
 8  3.36487483608361  0.73537893689369  2.96949883498350
 8  1.67112475197520 -7.29578584868487  1.43044155045505
 8  0.74253914191419 -7.01778820242024 -0.63358134103410
 8  1.89509655775578  4.06288941174117  0.15110461786179
 7 -2.36911652275228 -0.84680311051105  0.67756477307731
 7 -4.46478135953595  0.48355602210221 -1.33039139393939
 7  1.62088247984798 -0.74123569656966 -0.42206068366837
 7  2.57153269516952  1.90304605010501 -0.37682442914291
 6 -4.82706909810981  1.17658915591559 -0.04657885808581
 6 -4.29425681848185  0.46060622592259  1.27013437113711
 6 -2.88911400700070  0.19024928162816  1.34648666166617
 6 -1.94980407710771  0.76615157235724  2.05688885848585
 6 -0.71134774507451  0.08713327782778  1.87976865446545
 6 -1.01812600040004 -0.99769282818282  0.93510532993299
 6 -6.30120247634763  1.31138892819282 -0.23694891029103
 6  0.60496910351035  0.26856753325333  2.54894391449145
 6 -6.65471598609861  0.78043729212921 -1.42183791249125
 6 -0.23560981708171 -1.98544728162816  0.28090017151715
 6  0.98994589078908 -1.86512605920592 -0.21638322052205
 6 -5.42779337963796  0.33542175687569 -2.10005731723172
 6  1.87288137333733 -2.94778531693169 -0.87517452675268
 6 -2.11470717161716  1.94034979187919  3.13772816301630
 6 -7.09037653085309  2.05245337453745  0.84276826272627
 6  3.04319065276528 -2.33515346654665 -1.31145239033903
 6  1.18521454875488  1.75171366476648  2.58969260516052
 6  3.00497857315732 -0.92311093669367 -1.05050903910391
 6  1.54920869106911 -4.41237720212021 -0.99654137103710
 6 -8.01849775577558  0.63350498809881 -1.91901028882888
 6  1.87645521112111 -5.06565750035004  0.29877587308731
 6  4.23773938293829 -3.02694116291629 -2.10492972427243
 6  3.86615748634863  0.16346575007501 -1.32756743914391
 6  2.69947056825683  1.66903449164916  2.88255415531553
 6  3.62668704650465  1.52829824132413 -1.09868643594359
 6 -9.28145312871287  0.74478663896390 -1.51339615491549
 6  1.31851691639164 -6.57327397759776  0.24437309630963
 6  4.59812864746475  2.56495325022502 -1.39413649674967
 6  3.97100636903690  3.68681920562056 -0.97736903120312
 6  2.75725729652965  3.28097594869487 -0.32461122382238
 6  5.83980758605861  2.43983882448245 -2.17395935103510
 6  4.27913353315332  5.24513938973897 -1.12202421582158
 6  6.71481153875387  3.43023870867087 -2.35514999189919
 1 -4.33354784088409  2.15217629772977  0.10837387768777
 1 -4.78581323822382 -0.51799327542754  1.58699344354435
 1 -4.64009084898490  1.05888988868887  2.24280118981898
 1 -2.85477451735174 -1.35651304680468 -0.10533745554555
 1 -3.52074307160716  0.38945086218622 -1.66247379827983
 1  0.48458289298930 -0.07359704770477  3.57575712381238
 1  1.36075008440844 -0.42747741514151  2.18121325412541
 1 -0.58199686058606 -2.99948741374137  0.25399040134013
 1 -3.28161830713071  2.29384064816482  3.29557954765477
 1 -1.70675189028903  1.57215657955796  4.04020240814081
 1 -1.49432581368137  2.81648546834683  2.82793021482148
 1 -6.41312476337634  3.06252505600560  1.30408264126413
 1 -7.34341410841084  1.22985279447945  1.70974798549855
 1 -8.16371230843084  2.32262834593459  0.57465594579458
 1  1.03060576897690  1.94419645624562  1.48972704000400
 1  0.63155626812681  2.48742556455646  3.21394721892189
 1  1.27006133253325  0.11743238823882 -0.20051541684168
 1  2.02779057125713 -4.81032486288629 -1.87893250295030
 1  0.46583838133813 -4.55243509100910 -1.20394887828783
 1 -8.12596365816582  0.76197642824282 -3.19785572377238
 1  1.47019920882088 -4.52605378507851  1.09381695829583
 1  2.97789405950595 -5.28960616511651  0.24774258915892
 1  4.27224228652865 -3.92348980118012 -2.30605406650665
 1  5.19582068046805 -2.69756860706071 -1.37354097169717
 1  4.32778421152115 -2.41617384998500 -3.08921799539954
 1  4.83835345484549 -0.07312940744074 -1.83473964966497
 1 -9.74149775027503  0.58081553705371 -0.40581327112711
 1 -10.07532566616662  0.65924734043404 -2.31101720172017
 1  3.96325101160116  3.22029541324132  3.45501026672667
 1  6.15802927112711  1.53231538073807 -2.73740255525553
 1  5.25763646344634  5.33165592979298 -0.61283990389039
 1  4.37142916541654  5.74250101580158 -2.25074761966197
 1  3.48468613821382  5.95492509890989 -0.65981772337234
 1  1.46812412051205 -8.08909006610661  1.17834388928893
 1  7.68302074647465  3.10151569146915 -2.89240651395140
 1  6.62497438493849  4.50128564076408 -1.92699505200520

