%nproc=4
%Mem=4GB
# td=(NStates=1) B3LYP/SVP 

TD

0 1
 8 -5.19194542454245  0.03054849444944 -3.26207599729973
 8  3.02983298879888  2.82290954565457  3.32102818121812
 8  3.25094344294429  0.62332773177318  3.11476336143614
 8  1.42427006650665 -7.04532080218022  1.64856336263626
 8  0.82882777077708 -7.02810923452345 -0.63065104800480
 8  1.60012706080608  3.90957408020802  0.19334884228423
 7 -2.31949156025603 -0.99376780698070  0.74367138373837
 7 -4.24576945834583  0.49115678217822 -1.23148150295030
 7  1.86316670827083 -0.77626919991999 -0.30767924552455
 7  2.50998654055406  1.85789153465347 -0.38973572027203
 6 -4.63162955415542  1.09804130113011 -0.00220442064206
 6 -4.25664305710571  0.39809997529753  1.37443480118012
 6 -2.91095619121912  0.05642589928993  1.38410042304230
 6 -1.88494759145915  0.58429338653865  2.18328149774977
 6 -0.70744735503550 -0.09716515201520  1.88571924952495
 6 -0.93534772257226 -0.99987304620462  0.95457727712771
 6 -6.11386374247425  1.39865765506551 -0.20587580298030
 6  0.64788339493949  0.17393807030703  2.57044606470647
 6 -6.49365988048805  0.90262951135113 -1.44406013471347
 6 -0.16067232333233 -2.05639437633763  0.29144122562256
 6  1.06880377657766 -1.96238578517852 -0.25413699589959
 6 -5.20423102340234  0.37367558225823 -2.13279059055906
 6  1.86435052025203 -2.92557309570957 -1.00108711801180
 6 -2.11002670357036  1.69591534843484  3.17715210541054
 6 -6.93229072227223  2.11296942614261  0.86246023192319
 6  3.01598793249325 -2.36149610081008 -1.33792503760376
 6  1.18471449874987  1.59391788518852  2.51078471437144
 6  3.04572264756476 -0.99383800940094 -0.97794178237824
 6  1.49126289648965 -4.33058902330233 -1.03920563746375
 6 -7.79875578157816  0.87031866946695 -2.17843623142314
 6  1.67311487708771 -4.93900483508351  0.36506250175018
 6  4.26532214121412 -3.08128659745975 -2.09028826012601
 6  3.92990386098610  0.13883328682868 -1.39651433383338
 6  2.67816843804380  1.63685127332733  2.97179307920792
 6  3.58938331613161  1.51647705920592 -1.08375494279428
 6 -9.00355533893389  0.93818597889789 -1.65002981828183
 6  1.30849591429143 -6.39425607580758  0.38559721872187
 6  4.40518935353535  2.65519227412741 -1.48721580468047
 6  3.65587485588559  3.79685020872087 -1.06892818711871
 6  2.52831440224022  3.27942579367937 -0.31897065976598
 6  5.63160676597660  2.57815265586559 -2.30078203330333
 6  3.97295291509151  5.25467034283428 -1.17295930933093
 6  6.42600265786579  3.60142582738274 -2.81856633353335
 1 -4.05083957005701  2.07644872497250  0.27041008130813
 1 -4.84759941684168 -0.37513898999900  1.60238498269827
 1 -4.60814765466547  1.13749774947495  2.14752166186619
 1 -2.66431547144714 -1.57316471197120  0.08161123932393
 1 -3.35184618191819  0.54096601370137 -1.62902045294529
 1  0.59239367406741 -0.22058174617462  3.71382093019302
 1  1.16227023642364 -0.73401806920692  2.20652578537854
 1 -0.54725338623862 -2.97108457345735  0.19281428372837
 1 -3.13957410271027  1.94364562866287  3.40210019971997
 1 -1.64566578167817  1.66307567146715  4.22280066796680
 1 -1.84193057415742  2.79958377817782  3.04744216601660
 1 -6.12718616951695  2.67930673417342  1.31988422142214
 1 -7.39509927692769  1.38785859505951  1.76655366606661
 1 -7.64594053125312  2.82114819791979  0.40843932413241
 1  1.04137684608461  1.96656869346935  1.53927199449945
 1  0.76456956945695  2.20431725372537  3.14857068126813
 1  1.60283460986099  0.22959360436044 -0.17149251455145
 1  1.84543233543354 -4.90667449784979 -2.05183979367937
 1  0.47097889538954 -4.47586743424342 -1.29673815721572
 1 -7.70459152095210  0.74954518511851 -3.25183112131213
 1  1.06936912581258 -4.45295647534754  1.14744232083208
 1  2.65887215731573 -4.80414761926193  0.48628644354435
 1  4.11007606990699 -4.11234868706871 -2.25371883298330
 1  5.14438553695370 -3.02761161136114 -1.62251586918692
 1  4.38125955905591 -2.52929516211621 -3.15466454005400
 1  5.12861248074808  0.19530743624362 -1.90896707240724
 1 -9.12043564406441  0.83758121362136 -0.62488517831783
 1 -9.83216134973497  0.83275469116912 -2.31919801980198
 1  4.10805549204921  3.01038442214221  3.36965173087309
 1  6.16386985518552  1.48647079627963 -2.73623243824383
 1  4.90245094489449  5.58668143234323 -0.67372599249925
 1  3.84214623712371  5.34721148684868 -2.20531307620762
 1  3.18940661026103  5.86528613501350 -0.83934567616762
 1  1.04775208330833 -7.90372152925293  1.45721177607761
 1  7.33936638103810  3.43875941584158 -3.41610888418842
 1  6.18008989648965  4.66759227142714 -2.57834018651865

