%nproc=4
%Mem=4GB
# td=(NStates=1) B3LYP/SVP 

TD

0 1
 8 -5.18114434443444  0.10350579017902 -3.25893568326833
 8  3.05793579907991  2.95441269596960  3.07852393079308
 8  3.27892624122412  0.72622802180218  3.34294617971797
 8  1.59076671617162 -7.25660193029303  1.50690919721972
 8  0.65679056705671 -7.07420384398440 -0.56450443334333
 8  1.70544759285929  4.00704382718272  0.04912441984198
 7 -2.30891050215021 -0.85812424262426  0.58387540414041
 7 -4.33394827622762  0.61997966446645 -1.16792514731473
 7  1.87166755835584 -0.66240781378138 -0.33399187678768
 7  2.55164070597060  1.89665541104110 -0.53433017971797
 6 -4.80520691189119  1.26799829682968  0.00732653245325
 6 -4.36525391819182  0.32848301360136  1.19717707540754
 6 -2.89614471007101  0.19086934363436  1.42663467646765
 6 -1.88123722042204  0.60145510271027  2.22897606720672
 6 -0.69984659495950 -0.03731916741674  1.84194487208721
 6 -0.93898808660866 -0.96756981588159  0.85087690709071
 6 -6.31153350945095  1.27724551385138 -0.20082529792979
 6  0.60946955355536  0.13588426492649  2.57071609170917
 6 -6.65917643214321  0.82745199359936 -1.40167589628963
 6 -0.22106836293629 -1.99954869176918  0.10943302480248
 6  1.15273216941694 -1.83749329592959 -0.26869845204520
 6 -5.41154175447545  0.43830204490449 -2.18848616011601
 6  1.92640672587259 -2.94779531793179 -0.88295530483048
 6 -2.14096979787979  1.76592234913491  3.21945633583358
 6 -7.05367286048605  1.96444457365737  0.95620960686069
 6  3.11880821452145 -2.27768771997200 -1.35139638473847
 6  1.17415344264426  1.57117561096110  2.52475611151115
 6  3.10464854015402 -0.90779940554055 -0.98931291949195
 6  1.56263003320332 -4.41279724412441 -1.04377609450945
 6 -7.88696460246025  0.71259289688969 -2.08070645844584
 6  1.68989655525553 -5.13391432603260  0.34773076857686
 6  4.22009761876188 -2.97482595139514 -2.04318354965497
 6  4.00548141874187  0.14909431293129 -1.35404008640864
 6  2.61741236243624  1.66103369156916  3.06375227512751
 6  3.65804018181818  1.49041445294529 -1.08163473077308
 6 -9.12446743014301  0.77747990829083 -1.46344115941594
 6  1.29318438313831 -6.60524717491749  0.31147980698070
 6  4.48930776537654  2.63050980588059 -1.46008309140914
 6  3.86805607400740  3.77417794149415 -1.13185447974797
 6  2.57182875367537  3.31063891499150 -0.40134889758976
 6  5.74007761306131  2.45171001160116 -2.16041799689969
 6  4.08345396519652  5.28328320412041 -1.26363837723772
 6  6.65043510111011  3.42810849564956 -2.50003448034803
 1 -4.31735622172217  2.22271335143514 -0.04923188288829
 1 -4.71237589448945 -0.69264074017402  1.22895763996400
 1 -4.71888872877288  0.70336433613361  2.14219112881288
 1 -2.71674071397140 -1.21998939443944 -0.30539746154615
 1 -3.46967796509651  0.97314923202320 -1.56785433633363
 1  0.55657009170917 -0.08211789978998  3.83373292139214
 1  1.32984699409941 -0.59481414881488  2.22272740554055
 1 -0.76149481038104 -2.93298076307631 -0.04716971467147
 1 -3.25900604590459  1.82490375447545  3.38411840154015
 1 -1.82801401650165  1.55754511841184  4.25004339223922
 1 -1.93809019011901  2.71002482228223  2.90075749754975
 1 -6.28366181708171  2.82997180068007  1.25904813781378
 1 -7.04365413241324  1.18254806400640  1.99411642234223
 1 -8.00408634583458  2.23345942904291  0.69002748294829
 1  1.13299600800080  2.13983602020202  1.47219528682868
 1  0.65148826132613  2.31785860786079  3.33674949914991
 1  1.62922724912491  0.42458310331033 -0.24511987728773
 1  2.12971076327633 -4.70745457585759 -1.93499810951095
 1  0.55167696519652 -4.52713256075608 -1.38052653605361
 1 -7.60609167096710  0.42235246584658 -3.17287322552255
 1  1.14330651955195 -4.48948012771277  1.00772834943494
 1  2.78659492959296 -5.28824602910291  0.72317013191319
 1  3.71090615291529 -4.08606605880588 -2.26973043414341
 1  5.32087318571857 -2.94405325552555 -1.55902952055206
 1  4.44124555765577 -2.47191942454246 -3.09778885248525
 1  4.62646226572657 -0.23543563806381 -1.91011718741874
 1 -9.46681028152815  1.03433088858886 -0.38815150495049
 1 -10.04349248284828  0.72669408510851 -1.92121822182218
 1  3.97194188068807  2.73933731743174  3.28145291099110
 1  6.19166263446345  1.34300644984498 -2.35547436243624
 1  4.98728942874287  5.55327809200920 -0.71576019591959
 1  4.44641666416642  5.39849661536154 -2.37821036593659
 1  3.25358302790279  5.88603821022102 -0.70831257285729
 1  1.02211952005201 -8.07484864196420  1.64848090299030
 1  7.51394383878388  3.04774031393139 -2.75606287958796
 1  6.35532742024202  4.53099861206121 -2.55218757125713

