%nproc=4
%Mem=4GB
# td=(NStates=1) B3LYP/SVP 

TD

0 1
 8 -5.47174340434043  0.08153359295930 -3.35124491419142
 8  2.99904991049105  2.86776403110311  3.57219329772977
 8  3.43740208880888  0.70680607960796  2.95801768686869
 8  1.43995163466347 -7.17795406550655  1.41297980428043
 8  0.23828871687169 -6.91057748134813 -0.46647463036304
 8  1.79225627372737  3.99458258105811  0.12497200460046
 7 -2.29809942104210 -0.95309373957396  0.62954997159716
 7 -4.31834671607161  0.54006167266727 -1.29554790959096
 7  1.74470486208621 -0.65938751175117 -0.53938241584158
 7  2.66421196309631  1.92670841634163 -0.39336608330833
 6 -4.63511990319032  1.23501499849985  0.00551635143514
 6 -4.27684507730773  0.35033519881988  1.20801815951595
 6 -2.89457455305531  0.07530778747875  1.36607862086209
 6 -1.93476257295730  0.66995195239524  2.08237140674067
 6 -0.70403701400140  0.06420098459846  1.72702337993799
 6 -1.03823801160116 -0.96405946484648  0.68104992439244
 6 -6.24695705180518  1.27430521982198 -0.15167038243824
 6  0.64781338793879  0.19400007650765  2.46893591369137
 6 -6.60452096659666  0.61783103150315 -1.26773250195020
 6 -0.22472872897290 -1.96726546344634  0.10885296679668
 6  1.09113600980098 -1.82298184478448 -0.36397797999800
 6 -5.42001260156016  0.39295751045104 -2.12971028252825
 6  1.92430651585159 -2.91376191459146 -0.93252026132613
 6 -2.02073777467747  1.75951170807081  2.99190358055806
 6 -6.91892938613861  2.05851398059806  0.85317930383038
 6  3.17158349204920 -2.32214216541654 -1.23267451255126
 6  1.20875690299030  1.68527702110211  2.61465510141014
 6  3.03877195249525 -0.86936556215622 -0.99021300950095
 6  1.57309107930793 -4.32113807820782 -0.95814753165317
 6 -7.92477838383838  0.44677631523152 -1.90693908170817
 6  1.70211777737774 -5.08726966156616  0.37087308280828
 6  4.37835344434443 -3.00275874467447 -1.84853408470847
 6  3.99642051265126  0.13537294079408 -1.34004868726873
 6  2.61895251645165  1.63264085228523  2.91565746564656
 6  3.77530190799080  1.61318673017302 -1.04643121042104
 6 -9.12432741614161  0.46561872217222 -1.34933974927493
 6  0.97995306000600 -6.48582523272327  0.33925258425843
 6  4.54880371497150  2.71735849074907 -1.47894497759776
 6  3.93639290769077  3.80610113381338 -0.98504979927993
 6  2.64884645544555  3.27317516861686 -0.38714747744775
 6  5.76004961026103  2.59500434103410 -2.11970392549255
 6  4.21048666846685  5.26695157095710 -1.17916993039304
 6  6.62811286888689  3.46856254105411 -2.65555003190319
 1 -4.35895038113811  2.28459954005401 -0.05367232693269
 1 -4.65835049194919 -0.61556303240324  1.15374011821182
 1 -4.68126496639664  0.78823282298230  2.10590750045005
 1 -2.84119315921592 -1.33376077157716 -0.16406332813281
 1 -3.44766576387639  0.77219913701370 -1.65552310321032
 1  0.50890532523252 -0.08132782078208  3.54512406050605
 1  1.56345035443544 -0.53320798819882  2.08651378417842
 1 -0.74469313021302 -3.04556202120212 -0.31037603530353
 1 -3.01413155845585  2.03487475157516  3.18109809950995
 1 -1.55971718681868  1.31473083698370  3.77708609650965
 1 -1.28348472957296  2.45832965276528  2.62807022882288
 1 -6.36911036193619  2.73952275577558  1.39327156015602
 1 -7.58680844784478  1.23153296249625  1.51962897359736
 1 -7.85533147034703  2.65950203330333  0.36007448764876
 1  1.05418812721272  2.36438847544754  1.68756682398240
 1  0.76386949944994  2.31704852685268  3.35949177337734
 1  1.36422074847485  0.46794743974398 -0.31801716701670
 1  2.08320611281128 -4.96303013341334 -1.66420102980298
 1  0.58658045554555 -4.28790863836384 -1.28377686108611
 1 -7.90420148194820  0.09510974157416 -2.79751568976898
 1  1.21743393229323 -4.43900508020802  1.20406798339834
 1  2.76243251335134 -5.20154735923592  0.65428324322432
 1  4.07422248454846 -4.09155660786079 -2.12973643474347
 1  5.15824692309231 -3.13832268246825 -1.08811242884288
 1  4.83531496459646 -2.48101033363336 -2.78277735133513
 1  4.94671429092909 -0.11511360586059 -1.74151032673267
 1 -9.34352795329533  0.52584003950395 -0.27048973877388
 1 -9.90444857845785  0.18048946464647 -1.85601170117012
 1  3.93654834133413  2.97755113881388  3.92692745844585
 1  6.05018848704870  1.49873202240224 -2.09736855185519
 1  5.35718641844184  5.63725648984898 -0.91315993589359
 1  3.94734675717572  5.77165393109311 -2.19693223812381
 1  3.79782745234524  5.82743234963496 -0.45160690229023
 1  0.76608391649165 -8.13401455855585  1.45398145304530
 1  7.45913835823582  3.30650619051905 -3.28045531883188
 1  6.34650653815381  4.58753426562656 -2.58248060056006

