%nproc=4
%Mem=3GB
# td=(NStates=1) B3LYP/SVP 

TD

0 1
 8 -3.25194210441044 -1.28066312181218 -2.91934258855886
 8  3.10886134093409  3.14145580408041  2.89461373227323
 8  3.64447875607561  1.47308443674367  4.32389683328333
 8  7.59637824072407 -1.61846796099610 -0.49809057085709
 8  6.69013316971697 -3.13298409330933 -1.84994144224422
 8 -2.59853075957596  1.54986047514751  1.53623368386839
 7 -0.29562530873087 -2.36444275857586  0.84074891569157
 7 -2.73531556955696 -1.22902803780378 -0.69249139373937
 7  1.07310886028603  0.12371328102810 -0.76196113331333
 7 -0.87911705720572  1.57400280818082 -0.09403030093009
 6 -3.37460260996100 -1.35359292169217  0.52577955185519
 6 -2.66228485458546 -2.25903004920492  1.58647395419542
 6 -1.27502314401440 -1.98317613161316  1.79293728232823
 6 -0.53969377167717 -1.25331652335234  2.79589761026103
 6  0.76818793139314 -1.16383138413841  2.43045424002400
 6  0.90748343454345 -1.80730716541654  1.18885368936894
 6 -4.64830977757776 -1.97744339303930  0.19138602590259
 6  1.86917150855085 -0.31316164576458  3.06874902940294
 6 -4.71632799419942 -2.09987869626963 -1.10495083558356
 6  1.93515147154715 -1.89436762896290  0.21573385208521
 6  2.03671969386939 -0.83801571377138 -0.65052895439544
 6 -3.52501717161716 -1.51032299759976 -1.73359064246425
 6  2.97722878607861 -0.67656840514051 -1.82775667456746
 6 -1.17976654885489 -0.67149100610061  3.94323983228323
 6 -5.68772399649965 -2.23935041534153  1.30808181378138
 6  2.49314897179718  0.37645501370137 -2.46782139213921
 6  1.88569800220022  1.14364005600560  2.54492113371337
 6  1.32283565006501  0.85178182678268 -1.85382148814881
 6  4.28904425352535 -1.43393282238224 -2.09651928202820
 6 -5.79644398049805 -2.60945303570357 -1.96606005420542
 6  5.37798334933493 -1.10798254345435 -1.11235465236524
 6  3.08974907030703  1.13553195579558 -3.64650115931593
 6  0.45603802790279  1.95327047394739 -2.07597934303430
 6  2.99186782708271  1.90240982648265  3.38645399059906
 6 -0.44123795539554  2.41849648184818 -1.08372366026603
 6 -6.91241516801680 -3.28748251235124 -1.57932649134913
 6  6.58215778537854 -2.05396365146515 -1.28480917091709
 6 -1.30289894469447  3.59086131933193 -1.14673274797480
 6 -2.22306639603960  3.38662914191419 -0.07568547474747
 6 -2.00125239763976  2.07326826032603  0.58131706370637
 6 -1.25501547994799  4.71541780198020 -2.08283005100510
 6 -3.39920055655566  4.32728321122112  0.32886712641264
 6 -1.97518140934093  5.74933035123512 -2.26607033983398
 1 -3.65417391059106 -0.27947343724372  1.10630483508351
 1 -2.70771239763976 -3.27528265326533  1.12344269336934
 1 -3.24793461326133 -2.19661310571057  2.48684807350735
 1 -0.50863616841684 -2.46013477857786 -0.06122911291129
 1 -2.16465485518552 -0.44650095359536 -0.82244634703470
 1  1.85711367276728 -0.21387284108411  4.21320341944194
 1  2.81938927182718 -0.80117200850085  2.98335326472647
 1  2.63720253415342 -2.55140672357236  0.72367542074207
 1 -2.03612624192419 -1.31754102810281  4.35082214401440
 1 -0.60833060106011 -0.54625882948295  4.87850420692069
 1 -1.65809512331233  0.37631007770777  3.62057082238224
 1 -5.39335012221222 -1.61378951015101  2.10797509050905
 1 -5.79263802450245 -3.34705881048105  1.69835268156816
 1 -6.71316869366937 -2.01780742414241  0.80455681738174
 1  2.10484662406241  1.18511845374537  1.54764237553755
 1  0.95256520802080  1.30342258655866  2.75942391609161
 1  0.31824008160816  0.31204557435744 -0.13155518781878
 1  4.48658437763776 -1.41593465246525 -3.05961156305631
 1  4.09801063086309 -2.45094687388739 -2.08822593059306
 1 -5.60090222862286 -2.41866279087909 -3.07113057685769
 1  5.00861878317832 -1.45898637853785 -0.23729050535054
 1  5.69297073837384  0.02301530543054 -1.18890337283728
 1  3.99918983048305  0.37290378247825 -4.06092432193219
 1  3.50288604020402  2.11949302800280 -3.42975531093109
 1  2.25372116141614  1.24644914281428 -4.31467461946195
 1  0.66837074707471  2.72731422792279 -2.96925781778178
 1 -7.31212029812981 -3.30976316021602 -0.62454147534753
 1 -7.39501776667667 -3.84688601910191 -2.35910896439644
 1  3.95484921242124  3.54022338333833  3.16710996519652
 1 -0.47016089488949  4.49201048054805 -2.85849374477448
 1 -4.12143073267327  4.33774035583558 -0.55574672617262
 1 -4.04648339803980  3.83482827642764  1.07606841824182
 1 -3.12025034123412  5.36076636773677  0.75565133503350
 1  8.31983767726773 -2.22196535073507 -0.40450108510851
 1 -1.97278020262026  6.54470492759276 -3.14003885608561
 1 -2.95533788668867  6.08351972777278 -1.77342324982498

