%nproc=4
%Mem=4GB
# td=(NStates=1) B3LYP/SVP 

TD

0 1
 8 -5.11666789678968  0.19286472607261 -3.29220901060106
 8  3.22745275077508  2.82290954565457  3.13030910931093
 8  3.39830817941794  0.57805320432043  3.02799468456846
 8  1.56777441694169 -7.20721699179918  1.53972247854785
 8  0.69068395639564 -6.94943136673667 -0.56495447834783
 8  1.62683973207321  4.05007813061306 -0.00766125872587
 7 -2.39183879497950 -0.85631406160616  0.63411042764276
 7 -4.26843172457246  0.54109177567757 -1.11482983778378
 7  1.63331372297230 -0.65930750375037 -0.32330080768077
 7  2.42408795069507  1.91249699519952 -0.58368511521152
 6 -4.74999139033903  1.21041253825383  0.18552435223522
 6 -4.41421881468147  0.27654782008201  1.41479883758376
 6 -3.00800589618962  0.05762601930193  1.46702871587159
 6 -1.97791688838884  0.67261221842184  2.20025319491949
 6 -0.75164177447745  0.06423098759876  1.83855453305331
 6 -0.95859004680468 -0.90003306220622  0.78933075247525
 6 -6.26170852695270  1.23237102640264 -0.12719793519352
 6  0.48247685428543  0.32820349684968  2.51881090119012
 6 -6.53475398989899  0.78901815021502 -1.40701643034303
 6 -0.28487474357436 -1.95677441434143  0.16188827032703
 6  1.09202609880988 -1.88053760036004 -0.38247983018302
 6 -5.22635323562356  0.48839705440544 -2.09508682018202
 6  1.85873995919592 -2.95092563096310 -0.92758976827683
 6 -2.10729643054305  1.76033179007901  3.24729912011201
 6 -7.12238973217322  1.85846397559756  0.89935392129213
 6  3.05620195389539 -2.29619957115712 -1.32835408050805
 6  1.28460448774877  1.69710820422042  2.47872150805080
 6  3.01736981228123 -0.85841446704670 -0.98415240344034
 6  1.52564633483348 -4.39861582598260 -0.95794751165117
 6 -7.79332523852385  0.79319095669567 -2.24197258505851
 6  1.85232279787979 -5.08958989358936  0.31367736323632
 6  4.23863947294729 -3.07021549034903 -1.91973120442044
 6  3.94680555115512  0.12170157365737 -1.28651333373337
 6  2.71817243844384  1.59887747594759  2.89700560046005
 6  3.54999937773777  1.50802621412141 -1.07008357565757
 6 -9.02022700610061  0.73088524882488 -1.62840765606561
 6  1.33855892059206 -6.49507615781578  0.37707636663666
 6  4.50156899149915  2.64885164006401 -1.46632371547155
 6  3.81136040444044  3.71726224992499 -1.05003629792979
 6  2.48523009380938  3.31955980708071 -0.43987274997500
 6  5.66573017831783  2.48446328692869 -2.24673662876288
 6  4.25236085588559  5.15532040784078 -0.92190420382038
 6  6.50769082668267  3.44097978277828 -2.62835731263126
 1 -4.30344483058306  2.11460254035404  0.10162320262026
 1 -5.08819347624762 -0.61483295939594  1.30405514971497
 1 -4.85496233613361  1.05874987468747  2.32146905660566
 1 -2.94564360426043 -1.09274667016702 -0.17029395119512
 1 -3.34053505080508  0.81520343744374 -1.43195074597460
 1  0.47739217391739 -0.04423411141114  3.60774032213221
 1  1.33670768016802 -0.39224389178918  2.04219935273527
 1 -0.76872553345335 -2.81855932093209  0.23007801010101
 1 -3.15449559485949  1.80272153625363  3.77116710641064
 1 -1.46078729382938  1.37854721862186  3.92509089698970
 1 -1.61716809790979  2.60260408020802  2.73730115191519
 1 -6.55496894779478  2.67363616711671  1.39975220822082
 1 -7.34150391739174  1.11509131833183  1.83175018571857
 1 -8.15128106530653  2.30062614571457  0.50088856905691
 1  1.21417412581258  2.05856789338934  1.47329539683968
 1  1.00491360386039  2.43857067906791  3.31860768496850
 1  1.22586691309131  0.34229487448745 -0.49399476477648
 1  2.20978877107711 -5.08306213661366 -1.61561617131713
 1  0.42808460596060 -4.63922376987699 -1.05726420982098
 1 -7.54918598039804  0.72555278587859 -3.35606154435444
 1  1.70943313221322 -4.68968014771477  1.54152172877288
 1  3.07562383248325 -5.43553075757576  0.40180799569957
 1  4.18631369366937 -4.14195164736474 -2.21897535863586
 1  5.16753785218522 -2.75732458265827 -1.21112473007301
 1  4.51047248034803 -2.61809404200420 -3.02206127972797
 1  4.89706932643264 -0.08262035653565 -1.74848102380238
 1 -8.94941854235424  0.73427088258826 -0.60718340814081
 1 -9.83919205280528  0.57405882158216 -2.23972007200720
 1  4.18602328882888  2.73030641434143  3.42400716641664
 1  6.12232570077008  1.52130427962796 -2.41468028302830
 1  5.04999569936994  5.14584734893489 -0.19864848474847
 1  4.41374339683968  5.49424619031903 -1.87644018891889
 1  3.24416208580858  5.55144475087509 -0.52910465206521
 1  1.19761706980698 -8.13908506560656  1.53484953985399
 1  7.43348579297930  3.35618115801580 -3.12597987128713
 1  6.51514340184018  4.58719423162316 -2.44847720022002

