%nproc=4
%Mem=4GB
# td=(NStates=1) B3LYP/SVP 

TD

0 1
 8 -5.34301053105311 -0.04774933533353 -3.35517530723072
 8  3.11870187568757  2.78951620632063  3.00401648004800
 8  3.44894324292429  0.64254965396540  3.05724760986099
 8  1.56758439793979 -6.90573684378438  1.60918942524252
 8  0.43173806180618 -6.89543596719672 -0.36046402930293
 8  1.64524157225723  3.95873899669967  0.04743425082508
 7 -2.32014162526253 -1.02052048224823  0.61269828642864
 7 -4.41919680108011  0.58250591709171 -1.30788914371437
 7  1.87277766936694 -0.64078565156516 -0.46120459805981
 7  2.56375191709171  1.86711245674567 -0.52442918961896
 6 -4.68932532373237  1.11438293529353 -0.02104630483048
 6 -4.37664505730573  0.23841400670067  1.22835019271927
 6 -2.89369446504650  0.01824208090809  1.37623963696370
 6 -1.86132522922292  0.54154911211121  2.14746791639164
 6 -0.64668127842784  0.05246981148115  1.75985666326633
 6 -0.96607079487949 -0.98250130903090  0.84516633603360
 6 -6.23510586668667  1.33908169746975 -0.14537975337534
 6  0.68635724232423  0.06964764126413  2.47471649174918
 6 -6.63902441694169  0.82614186258626 -1.35133086178618
 6 -0.17032328842884 -2.01003974087409  0.22184426592659
 6  1.18842573877388 -1.80836038263826 -0.33577515971597
 6 -5.40149074937494  0.44009222392239 -2.25009232073207
 6  1.93247733293329 -2.91772231063106 -0.97876488578858
 6 -2.11428712961296  1.45988174507451  3.32998738893889
 6 -7.08572606580658  2.01856998619862  0.87279126502650
 6  3.12926926062606 -2.36885683688369 -1.38079932503250
 6  1.20643667096710  1.52520101350135  2.63388702460246
 6  3.04319239453945 -0.87695632123212 -1.02000598879888
 6  1.51083485368537 -4.34882084648465 -0.89117083398340
 6 -7.96187209320932  0.75928756635664 -2.02457084488449
 6  1.62496006160616 -4.91716265086509  0.42826882238224
 6  4.35156076507651 -2.89185765456546 -2.03370260156016
 6  3.92785365596560  0.11666106960696 -1.35736041844184
 6  2.67462808400840  1.55300288848885  2.91934783468347
 6  3.74800917871787  1.52973838533853 -1.06218278557856
 6 -9.13151813521352  0.86341850215022 -1.44165898119812
 6  1.12983804850485 -6.38613526372637  0.46685534453445
 6  4.54022285688569  2.75881263616362 -1.37471455455546
 6  3.83090235863586  3.72510303400340 -0.97845914021402
 6  2.56315788658866  3.32574042514251 -0.41079984268427
 6  5.74648825412541  2.54834967556756 -2.22976493159316
 6  4.11691731153115  5.27450232603260 -1.02164417781778
 6  6.76212627022702  3.55828151295130 -2.51020549744974
 1 -4.24877936403640  2.18102918301830  0.08758179847985
 1 -4.91130578747875 -0.62752422852285  1.29104384858486
 1 -4.65304214411441  0.86624062376238  2.15979288898890
 1 -2.77079611951195 -1.73546094159416  0.08329140734073
 1 -3.53433443074307  0.90225214231423 -1.53298084898490
 1  0.71803623832383 -0.48486817481748  3.32392194029403
 1  1.42042605200520 -0.41983665106511  1.76775190799080
 1 -0.71378003890389 -2.91157862286229  0.00291529382938
 1 -3.16961710701070  1.44647591169117  3.45204519421942
 1 -1.69681089618962  1.10397976187619  4.25584397229723
 1 -1.89439582068207  2.34652847264726  3.05722314411441
 1 -6.58774222512251  2.81675047854785  1.39519175217522
 1 -7.42603237023702  1.35967577677768  1.64865187588759
 1 -8.12524846204620  2.30015609870987  0.42205068526853
 1  0.86913962236224  1.88718075467547  1.47301536883688
 1  0.62428554105410  2.19769659165917  3.54616044024402
 1  1.52913724012401  0.44009465446545 -0.22345771107111
 1  2.17362515471547 -4.88626245664566 -1.63095770547055
 1  0.44264606210621 -4.49608945644565 -1.35209369276928
 1 -7.86655771757176  0.64236446704671 -3.24961089928993
 1  1.04869705860586 -4.52160334003400  1.28322589918992
 1  2.66085235533553 -5.14246145064506  0.84679249414941
 1  4.33426848914891 -3.90966841904190 -2.32968642974297
 1  5.13812491089109 -3.10091894209421 -1.10181379897990
 1  4.93881531463146 -2.26857909050905 -2.92140121372137
 1  4.85424504400440 -0.11690378487849 -1.99523569926993
 1 -9.27929152965297  1.12851030653065 -0.33951664146415
 1 -10.02577071067107  0.82112352805281 -2.07998409840984
 1  4.06543122962296  2.80875425912591  2.93294806050605
 1  6.03738720692069  1.59371152035204 -2.73840265526553
 1  5.15419611941194  5.54801756595660 -0.50282890279028
 1  4.45920794329433  5.70137690339034 -2.02451499639964
 1  3.28637630723072  5.74111371777178 -0.50294203580358
 1  1.16234354245424 -7.69222037913791  1.50736679157916
 1  7.52929537393739  3.19573511341134 -3.15997327062706
 1  6.56547843534353  4.57474298649865 -2.01668402090209

