%nproc=4
%Mem=4GB
# td=(NStates=1) B3LYP/SVP 

TD

0 1
 8 -5.33643987398740  0.13189862946295 -3.31047083678368
 8  2.96031603710371  2.93519077377738  3.18898497689769
 8  3.41857020562056  0.80470586958696  2.84162604770477
 8  1.73857149664966 -7.06930320042004  1.61389989628963
 8  0.57941282928293 -6.93366979057906 -0.26301428432843
 8  1.70523757185719  3.96941006380638  0.02639214661466
 7 -2.36787639873987 -0.91970040024002  0.55975299189919
 7 -4.41829671107111  0.56724439093909 -1.15812416721672
 7  1.86770716231623 -0.69504107710771 -0.47243572117212
 7  2.50349589148915  1.86656240174017 -0.62048879557956
 6 -4.83715010621062  1.23239473647365  0.08675447524752
 6 -4.46556394919492  0.21159132443244  1.25109246694669
 6 -2.93635873147315 -0.01271101440144  1.40223223622362
 6 -2.02067116381638  0.48383334053405  2.20490365996600
 6 -0.75236184648465 -0.11579701520152  1.80593127072707
 6 -0.95657984578458 -0.97879093799380  0.73230504990499
 6 -6.31773412951295  1.28994678397840 -0.16748196359636
 6  0.53272187878788  0.04943562006201  2.48124714481448
 6 -6.66278679317932  0.86470571897190 -1.38944467316732
 6 -0.13469972607261 -1.92775151205121  0.04083616511651
 6  1.11728862506251 -1.83206275287529 -0.54975655785579
 6 -5.46712731303130  0.49906812151215 -2.19085639713971
 6  1.95754984018402 -2.90882142054205 -1.16630363966397
 6 -2.16259196009601  1.66388214511451  3.24533892409241
 6 -7.15805329852985  1.86965509470947  0.93687767366737
 6  3.18819515321532 -2.24747469866987 -1.38350959605961
 6  1.12350837813781  1.56435492889289  2.56104974087409
 6  3.09729780508051 -0.93165179077908 -1.03205719391939
 6  1.59720349054905 -4.33419938433843 -0.96895861276128
 6 -7.94782068806881  0.98569020662066 -1.99737812561256
 6  1.91920948654865 -4.92937387198720  0.40924692019202
 6  4.33600920992099 -3.06188465726573 -1.95049428072807
 6  3.87543841444144  0.06705610911091 -1.49314399679968
 6  2.60504112531253  1.71232882108211  2.92859875977598
 6  3.63827820562056  1.51498691019102 -1.19097566486649
 6 -9.15022000540054  0.89206136643664 -1.41122593789379
 6  1.37837290199020 -6.42722937313731  0.46963562256226
 6  4.51331016561656  2.59585634053405 -1.42925000810081
 6  3.96083535193519  3.72887341104110 -0.89057035133513
 6  2.62750432123212  3.27818566966697 -0.40902966566657
 6  5.88126173147315  2.38618345894589 -1.99673162826283
 6  4.31791741154115  5.16436131193119 -0.98364037743774
 6  6.69584964256426  3.37356304110411 -2.45990046694669
 1 -4.55482996909691  2.34413549364937  0.43795683598360
 1 -4.85077973487349 -0.72717419351935  0.76892163636364
 1 -4.93014985488549  0.47089108880888  2.23245015471547
 1 -2.89040808070807 -1.33062045754575 -0.08248517031703
 1 -3.45825682298230  0.55726764386439 -1.40652820372037
 1  0.37623205790579 -0.23094278227823  3.63170271837184
 1  1.36678068746875 -0.39776444384438  2.14971010381038
 1 -0.66416507740774 -2.92015948094809 -0.12040703840384
 1 -3.09898004330433  2.04901616571657  3.25717570727073
 1 -2.00194140924092  1.07440680458046  4.29282767066707
 1 -1.40942732383238  2.49132295209521  3.14952237403740
 1 -6.64806825772577  2.53945274877488  1.76539877287729
 1 -7.38585835283528  1.11125093429343  1.65591260196020
 1 -7.93021895909591  2.35094117721772  0.36446492669267
 1  0.87578028642864  2.23781581818182  1.69770783808381
 1  0.62127524002400  2.21397821982198  3.29749557375738
 1  1.69865419181918  0.31566221122112 -0.26551191649165
 1  1.99185697789779 -4.85562939333933 -1.79404401410141
 1  0.56870866836684 -4.66963681118112 -0.99314779817982
 1 -7.85506656845685  0.94942517311731 -2.99928586678668
 1  1.35023721262126 -4.14741592129213  1.04510208680868
 1  2.93660993109311 -4.87210441494149  0.85316313121312
 1  4.22929799209921 -4.27408486068607 -2.12409587068707
 1  5.20340143854385 -2.67129597979798 -1.50103372097210
 1  4.51555298839884 -2.81009324192419 -3.03666273987399
 1  4.75760538003800  0.10430833633363 -2.12835901160116
 1 -9.13809741024103  0.79338679417942 -0.34301699149915
 1 -10.26978511211121  0.86308772447245 -1.70030613061306
 1  3.89403408990899  2.97160054375438  3.31145591129113
 1  6.06069953815382  1.38229037823782 -2.05604441944195
 1  5.26839753955396  5.26646941114111 -0.33461208110811
 1  4.36147817031703  5.38351511721172 -1.94540708560856
 1  3.45512318191819  5.70348995539554 -0.28893063466347
 1  1.30913822192219 -7.90895205230523  1.50970702560256
 1  7.69669211361136  3.20326586648665 -2.96376364966497
 1  6.51422330983098  4.44309982218222 -2.59285163766377

