%nproc=4
%Mem=4GB
# td=(NStates=1) B3LYP/SVP 

TD

0 1
 8 -5.43151938193819  0.15433087268727 -3.30357014671467
 8  3.07309731523152  2.96860411511151  3.14161023942394
 8  3.30638898749875  0.74885028402840  3.05213709880988
 8  1.65787342684268 -7.17079334943494  1.39684819111911
 8  0.47497238523852 -6.83105952955296 -0.56601458435844
 8  1.77677472557256  3.96192931573157 -0.02600309290929
 7 -2.32848245934593 -0.98027645784578  0.64584160076008
 7 -4.43046792819282  0.40674834133413 -1.18341669646965
 7  1.96586697829783 -0.57039861286129 -0.42168064566457
 7  2.61569711161116  1.90062580808081 -0.59477622432243
 6 -4.88041443264326  1.08540003700370  0.14118991879188
 6 -4.43996138893889  0.23079324462446  1.35306266396640
 6 -2.96430152575258 -0.08614835813581  1.39330134313431
 6 -2.02995209190919  0.49054401160116  2.20415358495850
 6 -0.68855546584658  0.04617918241824  1.83513419101910
 6 -0.95927011481148 -0.92097515641564  0.80766258565857
 6 -6.43914627072707  1.26678446774677 -0.16035125052505
 6  0.58708731533153  0.16137681418142  2.58751777187719
 6 -6.67485800030003  0.82674192259226 -1.39217494619462
 6 -0.06415267136714 -1.87401613851385  0.27650973247325
 6  1.23698059425943 -1.81230077667767 -0.32419400160016
 6 -5.48506910721072  0.36519473417342 -2.09503681518152
 6  1.94571865706571 -2.89880041844184 -0.83166017531753
 6 -2.08400410131013  1.60389614651465  3.21168555875588
 6 -7.20530802400240  1.89603773297330  0.99160314621462
 6  3.16786312001200 -2.29963991519152 -1.29718096319632
 6  1.12288831613161  1.65155364876488  2.49664330023002
 6  3.16306438173817 -0.85927455305531 -1.10482447064706
 6  1.48666243644364 -4.29376534093409 -0.91680339723972
 6 -8.01496740274027  0.72216385398540 -2.06890527832783
 6  1.61335890149015 -5.02287322192219  0.45618161366137
 6  4.25659126812681 -3.00350881968197 -1.91018024932493
 6  3.98910978157816  0.15097450095009 -1.37211189358936
 6  2.56595721692169  1.68845643384338  2.89693559345935
 6  3.81796617441744  1.49404481598160 -1.08425499279928
 6 -9.26576155955596  0.92428458875888 -1.64232904820482
 6  1.17654271897190 -6.49583623382338  0.32360101910191
 6  4.70838967356736  2.69146590149015 -1.40814789788979
 6  4.04336360476048  3.77910843454345 -1.00397169146915
 6  2.76803837463746  3.36703455455546 -0.46040480318032
 6  5.93774738003800  2.48170301090109 -2.10741269636964
 6  4.31094671447145  5.20458533433343 -1.13946595999600
 6  6.72981303890389  3.44208989378938 -2.62817729462946
 1 -4.63968845494549  2.12820390049005  0.33668670897090
 1 -4.92978763566357 -0.77512898899890  1.24150889508951
 1 -4.76377321722172  0.74373837353735  2.21602851255125
 1 -2.83185222512251 -1.55446284178418  0.02997607580758
 1 -3.46659765706571  0.37877979507951 -1.62839038993899
 1  0.39061349604960 -0.11359104710471  3.63244279237924
 1  1.62771678107811 -0.39518418581858  2.10779591239124
 1 -0.71640030093009 -2.83767123212321  0.01335633793379
 1 -3.22079222452245  2.19621088518852  3.34824481418142
 1 -1.75560677577758  1.09721908580858  4.23394178207821
 1 -1.54706108720872  2.38581240104010  2.74706212801280
 1 -6.71851530243024  2.60660946444644  1.76615884888489
 1 -7.38259802680268  0.95653546274627  1.69022603330333
 1 -8.45169110631063  2.16808289138914  0.63300178037804
 1  1.18075078347835  2.05014705130513  1.34564263156316
 1  0.46265937843784  2.50503732573257  3.10695651985198
 1  1.51396572297230  0.29513015801580 -0.01009637493749
 1  2.03981177337734 -4.93168699909991 -1.62880749044905
 1  0.42863466096610 -4.30874072157216 -1.27358584198420
 1 -7.61922298409841  0.33917414801480 -3.18805474367437
 1  1.07097928682868 -4.80307148684868  1.50113769036904
 1  2.72036830693069 -5.08591579607961  0.90140795569557
 1  4.16033109540954 -4.18106555875588 -2.52290575167517
 1  4.90620171857186 -3.02095094529453 -0.94914853245325
 1  4.65858729182918 -2.37878011061106 -2.61919099269927
 1  4.99787940744074 -0.26618871337134 -1.66483265896590
 1 -9.31696529702970  0.65305276077608 -0.52292498229823
 1 -10.18833696729673  1.11096251195119 -2.19718581858186
 1  3.93353804030403  2.65351873557356  3.40115488118812
 1  6.09832330053005  1.46959910911091 -2.65302411741174
 1  5.44305500530053  5.54844760896090 -0.83011163106311
 1  4.07388941144114  5.46357312301230 -2.32043458835884
 1  3.63346101570157  5.80123973037304 -0.40490223182318
 1  1.10020732883288 -8.00527168426843  1.34174022892289
 1  7.60522296669667  2.80614615451545 -3.09452672597260
 1  6.36650853835383  4.34001951415142 -2.39230158265827

