%nproc=4
%Mem=4GB
# td=(NStates=1) B3LYP/SVP 

TD

0 1
 8 -5.37500373037304  0.13917935753575 -3.29517930763076
 8  2.97719772527253  3.10216747144714  3.03517959635964
 8  3.43472182078208  0.90307570657066  2.86869875497550
 8  1.70630827032703 -7.21447771787179  1.29151765806581
 8  0.29553444144414 -6.89456588018802 -0.47737572047205
 8  1.63545059315932  3.97877099989999 -0.07024751735174
 7 -2.33116272737274 -0.97496592679268  0.54888190479048
 7 -4.39103398479848  0.64907257375738 -1.20260861566157
 7  1.86064645624562 -0.75179675267527 -0.47377585518552
 7  2.58028357025703  1.84535028052805 -0.50126687338734
 6 -4.88174456565657  1.14851634863486  0.06487228702870
 6 -4.36299369216922  0.35367553285329  1.27943530123012
 6 -2.83417851345135 -0.00215995929593  1.33432544554455
 6 -1.94068316501650  0.60440539773977  2.04339750935093
 6 -0.70867747804781 -0.00403583908391  1.81151182878288
 6 -0.96932111991199 -0.98997205610561  0.80671249064907
 6 -6.34396675277528  1.29221701100110 -0.16914212961296
 6  0.63430203680368  0.29094977147715  2.53191221132113
 6 -6.68514902940294  0.83262251065107 -1.37886361506151
 6 -0.17535379147915 -1.94988372527253  0.18584066556656
 6  1.16433332953295 -1.86641618821882 -0.28377996019602
 6 -5.42910351065107  0.53212142684268 -2.17342465396540
 6  1.88881296649665 -2.91806234463446 -0.89990700000000
 6 -2.11923762466247  1.61354711161116  3.06762115231523
 6 -7.14361185438544  1.91522965216522  0.97889187508751
 6  3.23965029872987 -2.35986593779378 -1.26947819291929
 6  1.10777680498050  1.63912240564056  2.61233486938694
 6  3.13664173947395 -0.95761438703870 -0.95511950015002
 6  1.46297006720672 -4.34339030343034 -0.93793551045105
 6 -7.97605351135114  0.76953859145915 -1.96023441124112
 6  1.74593215881588 -5.07483841844184  0.36588258375838
 6  4.45578118711871 -2.87127559635964 -1.85236446774677
 6  4.04197506810681  0.04533393689369 -1.25439012141214
 6  2.59313993519352  1.80250783898390  2.87025292519252
 6  3.76898127592759  1.49207461896190 -0.99908647594759
 6 -9.17229221262126  0.62621478177818 -1.30967578287829
 6  1.18246331103110 -6.54715136533653  0.27715637463746
 6  4.67479631423142  2.57641439633963 -1.33513059615962
 6  3.89007827622762  3.77687821152115 -0.95279657395740
 6  2.54127569836984  3.23440129122912 -0.49080784348435
 6  5.94124773007301  2.43560840144014 -2.01278323342334
 6  4.28178379817982  5.13722859865987 -1.03183519691969
 6  6.73173323092309  3.40252593739374 -2.47393187008701
 1 -4.33253773987399  2.16816789688969  0.05345838613861
 1 -4.79630428732873 -0.58595007110711  1.26871161536154
 1 -4.65761260116012  0.56808080778078  2.36014292399240
 1 -2.73033207310731 -1.65450284578458  0.05665874407441
 1 -3.53549454675468  0.40378229532953 -1.58652620352035
 1  0.60420485518552 -0.08629831783178  3.55779532763276
 1  1.53386739613961 -0.43886855425543  2.18537367016702
 1 -0.70237889878988 -3.09278674367437 -0.03733873157316
 1 -3.16028617391739  1.70215147924793  3.58698868856886
 1 -1.45868708380838  1.40408977287729  4.01826021392139
 1 -1.70766714781478  2.57387120692069  2.58238566036604
 1 -6.64858830973097  2.80977978147815  1.54615684868487
 1 -7.46277604460446  1.03845365456546  1.73579058975898
 1 -8.07439337653765  2.46188227132713  0.62439091929193
 1  0.84663737213721  2.28159019561956  1.74890295759576
 1  0.54464757725773  2.23247006900690  3.56856268046805
 1  1.47383170957096  0.19254989999000 -0.25015038033803
 1  1.88010580278028 -4.71495532593259 -1.73500811051105
 1  0.30872266976698 -4.29631947944795 -1.28037652105210
 1 -7.97533859565957  0.45994622522252 -2.95953189138914
 1  1.48840102900290 -4.33988516821682  1.20160773737374
 1  2.90736700680068 -5.31283848834883  0.46868468336834
 1  4.05001006330633 -4.00299775197520 -2.02536599769977
 1  5.32436353475348 -2.78343719391939 -1.12785640324032
 1  4.72631406450645 -2.50520275287529 -2.87956703030303
 1  4.81435105460546 -0.18006010051005 -1.78413458915892
 1 -9.43587718821882  0.50083753925393 -0.24729741954195
 1 -9.98941707530753  0.64255567126713 -2.00048614861486
 1  3.97057174367437  3.02137552125213  3.00677544324432
 1  6.29278274647465  1.48578072727273 -2.28707752275228
 1  5.44825552535254  5.35484824902490 -0.79676829672967
 1  3.95081710421042  5.75950271597160 -2.33527607250725
 1  3.62084975457546  5.58208781518152 -0.35556729832983
 1  1.12059936803680 -8.14905606270627  1.29060511541154
 1  7.91302374677468  3.27997353725372 -2.60436771007101
 1  6.36298818631863  4.28890440264026 -2.19057140964096

