%nproc=4
%Mem=3GB
# td=(NStates=1) B3LYP/SVP 

TD

0 1
 8 -3.27956486668667 -1.42044710021002 -2.86160681498150
 8  3.12233268806881  3.12914457295730  3.33262753365337
 8  3.47823213141314  1.42753988228823  4.72708715231523
 8  7.65298390129013 -1.78676479067907 -0.51654241604160
 8  6.76217037343734 -2.94333512841284 -2.35851229932993
 8 -2.67915882238224  1.65641113021302  1.36984704520452
 7 -0.24639038523852 -2.29639595389539  0.88332317311731
 7 -2.64797683568357 -1.20904603960396 -0.59095123972397
 7  1.10716226562656  0.10599150885089 -0.73078801600160
 7 -1.01206035153515  1.44375978387839 -0.30342124002400
 6 -3.44152930263026 -1.34129169156916  0.65305227912791
 6 -2.65765439153915 -2.31839598579858  1.69213452025203
 6 -1.19619526122612 -1.88319613361336  1.74331231983198
 6 -0.62865266756676 -1.20890208190819  2.83823184368437
 6  0.77728884148415 -1.08520352135214  2.45711690629063
 6  1.00221290749075 -1.87225366006601  1.23491829582958
 6 -4.81358630523052 -1.82870851955196  0.24371125842584
 6  1.82832742414241 -0.43422375197520  3.12133428792879
 6 -4.85235159655966 -2.02638134653465 -1.04818515901590
 6  2.08336629302930 -1.78290648284829  0.30440271897190
 6  2.04568058995900 -0.85466737893789 -0.70041394289429
 6 -3.53810848074807 -1.55666763206321 -1.71988927232723
 6  2.98039910311031 -0.62819356765677 -1.87253115201520
 6 -1.33000157235724 -0.67338119511951  3.95123063136314
 6 -5.76401162526253 -2.17306378667867  1.30096110171017
 6  2.54928458535854  0.42234960316032 -2.53283789378938
 6  2.06099553195320  1.07705339733973  2.67723436503650
 6  1.36206957345735  0.91668831743174 -1.87843394939494
 6  4.22358770787079 -1.50027945704570 -2.12510214031403
 6 -5.89116345244524 -2.62331442184218 -1.89560300850085
 6  5.41490704170417 -1.08365011021102 -1.22207562446245
 6  3.12460255565557  1.10650905350535 -3.73328983818382
 6  0.50897332143214  2.02702784968497 -1.97847959305931
 6  2.98249688998900  1.87275686118612  3.74345969116912
 6 -0.49857368896890  2.34381901410141 -1.25402068996900
 6 -6.81994592109211 -3.51029479357936 -1.49849840854085
 6  6.69623919351935 -2.01427968306831 -1.41509219921992
 6 -1.34832348714871  3.62839507270727 -1.23088116281628
 6 -2.21551564096410  3.45900637963796 -0.23656156235624
 6 -1.95158743114311  2.07473840734073  0.43600253225323
 6 -1.28629860826083  4.62065832603260 -2.29370113811381
 6 -3.41275191169117  4.27925840874087  0.11150539023902
 6 -1.80117400860086  5.87736315451545 -2.25649938273827
 1 -3.65575406860686 -0.31001649154915  1.23278748334834
 1 -2.70200182658266 -3.29146427142714  1.29759010811081
 1 -3.15979579937994 -2.17638108250825  2.67851724042404
 1 -0.68918422322232 -2.52660142524252 -0.07385037503750
 1 -2.08289667936794 -0.32917922142214 -0.82104620702070
 1  1.87112507390739 -0.34931638543854  4.29761186028603
 1  2.89245657855786 -0.97437932923292  2.97802273167317
 1  2.72119093299330 -2.66256783968397  0.31193424662466
 1 -1.67696032533253 -1.53718299229923  4.49808687048705
 1 -0.59716948494849 -0.16192039563956  4.46558291479148
 1 -2.06190550435044  0.23513596029603  3.58662742804280
 1 -5.51565235243524 -1.72379051025102  2.16530082308231
 1 -5.60585934663466 -3.24785889048905  1.48192103840384
 1 -6.81263864066407 -1.94206985038504  1.00301666336634
 1  2.26713285268527  1.19506944884488  1.64278188948895
 1  1.16339629112911  1.53851609590959  2.73079105280528
 1  0.01596985458546  0.46127049684968 -0.42763479577958
 1  4.61493721292129 -1.57849090809081 -3.30498610051005
 1  3.78884971477148 -2.58002978217822 -1.74514162216222
 1 -5.86916905530553 -2.31929285388539 -3.07040050385039
 1  5.30659858115812 -1.03216369626963 -0.19147592389239
 1  5.79541098239824 -0.06576357245725 -1.37400188268827
 1  3.98502841434143  0.54221071317132 -4.24419264876488
 1  3.60315606720672  2.04124520322032 -3.51689402480248
 1  2.46639242854285  1.06341083898390 -4.64961811381138
 1  0.89265317531753  2.64529602610261 -2.78291918391839
 1 -6.95659474557456 -3.88168035193519 -0.43623264446445
 1 -7.63391165606561 -3.75761709220922 -2.20852390589059
 1  3.61520524802480  3.72690205120512  4.11563481768177
 1 -0.54895877467747  4.35408668816882 -3.21107900330033
 1 -3.99210780038004  4.68717529932993 -0.75098625012501
 1 -4.10811956165617  3.62196699029903  0.75055586698670
 1 -3.29821813801380  5.23701399249925  0.70157592749275
 1  8.39425511901190 -2.53739689388939 -0.90857149214922
 1 -1.79581250585058  6.61805226232623 -3.23887874007401
 1 -2.50374272717272  6.30139151495150 -1.40675658315832

