%nproc=4
%Mem=3GB
# td=(NStates=1) B3LYP/SVP 

TD

0 1
 8 -3.08778568876888 -1.55809086458646 -2.84476513081308
 8  2.96403685848585  3.00474213271327  2.97068133903390
 8  3.78438274647465  1.36427355565557  4.30079452305231
 8  7.62192079497950 -1.34429054325433 -0.75965672747275
 8  6.60172432883288 -3.15487628252825 -1.85258170627063
 8 -2.73013391989199  1.67801329042904  1.49301936243624
 7 -0.36449219541954 -2.44357067136714  1.00904574537454
 7 -2.62361439943994 -1.24303943894389 -0.60102224682468
 7  1.14776632603260  0.09429033873387 -0.65582051925193
 7 -1.07205635113511  1.55769117701770 -0.13659455735574
 6 -3.37110225992599 -1.27493505590559  0.56714368826883
 6 -2.69843846994699 -2.31398554475448  1.67163247004700
 6 -1.26909255095510 -1.97710552455246  1.84032202080208
 6 -0.54772457475748 -1.21535272697270  2.86823484398440
 6  0.76529764236424 -1.10494549554956  2.40991218581858
 6  0.88634132033203 -1.98034446914691  1.21056586058606
 6 -4.74878982558256 -1.84116976567657  0.26276316361636
 6  1.81182577397740 -0.38137846744674  3.05720787528753
 6 -4.68895525692569 -2.07556626502650 -1.13572391289129
 6  2.01741969836984 -1.98670686288629  0.25152743144314
 6  2.03278930083008 -0.96913882608261 -0.66907080858086
 6 -3.36329099899990 -1.58678064336434 -1.67241452485249
 6  2.95472653585359 -0.74651539983998 -1.81028492739274
 6 -1.16364493669367 -0.40500435743574  3.94120962926293
 6 -5.77749297339734 -2.06588306860686  1.16614762036204
 6  2.49097875477548  0.43075044324432 -2.45133974397440
 6  1.92606203860386  1.08044373637364  2.61987862946295
 6  1.32181554805481  0.89321597019702 -1.80186629262926
 6  4.24860020912091 -1.52653208230823 -2.06519614971497
 6 -5.84777911401140 -2.55436752715272 -2.05282873107311
 6  5.41818736973697 -1.04025577077708 -1.22000541744174
 6  3.02664275967597  1.10578898149815 -3.70416692589259
 6  0.56723914801480  2.09290443734373 -1.86485823092309
 6  2.98064670497050  1.76061564706471  3.39789513471347
 6 -0.49949378097810  2.37876250845085 -1.09244453235324
 6 -6.75973990049005 -3.42859662376238 -1.77629618831883
 6  6.54284385398540 -1.94414266936694 -1.33804449444944
 6 -1.34478313311331  3.59584181738174 -1.12803087778778
 6 -2.19981407080708  3.46111659065907 -0.07729563576358
 6 -2.12183445584558  2.13409434293429  0.50576950895090
 6 -1.23519349774978  4.63652991319132 -2.16329809780978
 6 -3.28882951945195  4.38268875177518  0.40294453415342
 6 -1.93375726692669  5.78833425162516 -2.34096782958296
 1 -3.45559405260526 -0.31314680458046  0.95272947754775
 1 -2.70203182958296 -3.38103322832283  1.41474182328233
 1 -3.08497831763176 -2.23246669106911  2.62103149184918
 1 -0.70588589338934 -2.74539330443044  0.00823783378338
 1 -1.85597398709871 -0.41738804230423 -0.77861196359636
 1  1.51934989638964 -0.44683613741374  4.17569966906691
 1  2.87756508940894 -0.93881577287729  3.06982191159116
 1  2.91769058295830 -2.66893847674767  0.24535758895890
 1 -1.94661729102910 -0.83851312531253  4.58382544434443
 1 -0.44068383638364 -0.17647185078508  4.58507486398640
 1 -1.71745105890589  0.48998144484448  3.30228899419942
 1 -5.79337012421242 -1.14941307250725  2.03232752575258
 1 -5.82220098079808 -3.10515462006201  1.61155400170017
 1 -6.69146652345235 -1.88191383478348  0.51064742644265
 1  2.06111225062506  1.04487442934293  1.39498711001100
 1  0.99025897739774  1.60606285058506  2.82813078677868
 1  0.28342660026003  0.44765913571357 -0.23267529982998
 1  4.39511523072307 -1.28228128712871 -3.11795739763976
 1  4.03216404620462 -2.59838161736174 -1.92717982598260
 1 -5.59606174457446 -2.21207213181318 -3.21990545434543
 1  5.15192311361136 -0.86755723562356 -0.07242401870187
 1  5.68862030333033 -0.01637863396340 -1.62714719721972
 1  3.94166407790779  0.45151164326433 -4.02063029252925
 1  3.34090984258426  2.08998007670767 -3.47135947134714
 1  2.32366815611561  1.26921141904190 -4.45540869286929
 1  0.94487839783978  2.62341383788379 -2.89799069106911
 1 -7.07280636673667 -3.93667585148515 -0.73616263746375
 1 -7.41622988788879 -3.74369570007001 -2.65619867336734
 1  3.69084281178118  3.49603896489649  3.43301655585559
 1 -0.45121900070007  4.26456773627363 -2.73406130153015
 1 -4.17178576817682  4.63130971277128 -0.28648980048005
 1 -3.68886763646365  4.01402619621962  1.37026783818382
 1 -2.92660097629763  5.47658794989499  0.63638940884088
 1  8.28264395789579 -1.90421357555756 -0.92633326832683
 1 -1.77025995059506  6.39604006110611 -3.32117696989699
 1 -2.78768112101210  6.09036041184118 -1.79982589008901

