%nproc=4
%Mem=3GB
# td=(NStates=1) B3LYP/SVP 

TD

0 1
 8 -3.30758766896690 -1.47714276977698 -2.87632828712871
 8  2.97032748754875  3.14927658615862  3.18240251115111
 8  3.81019532773277  1.27051417971797  4.20498494209421
 8  7.78355695859586 -1.34286040024002 -0.86654741654165
 8  6.71340549694969 -3.02413320822082 -1.93448989708971
 8 -2.57200810731073  1.70535602470247  1.39743980448045
 7 -0.33250899709971 -2.42220853515352  0.84855969676968
 7 -2.65483752175217 -1.36530166516652 -0.68689083368337
 7  1.14583613301330  0.10067097679768 -0.74360929812981
 7 -1.02721186668667  1.49856526442644 -0.20678157605761
 6 -3.33920907060706 -1.32524008640864  0.63403037693769
 6 -2.68942756885689 -2.35038918511851  1.65265057185719
 6 -1.30493613531353 -2.10811862586259  1.77809579817982
 6 -0.62679248154815 -1.26037722942294  2.79666768726873
 6  0.75709682228223 -1.18668366936694  2.41543273787379
 6  0.95304799099910 -1.93016945164516  1.19128393239324
 6 -4.74773972057206 -1.86102175087509  0.22749963726373
 6  1.89535412681268 -0.44771510111011  3.12298445294529
 6 -4.86634299569957 -2.00667937633763 -1.11127146764676
 6  2.11105906230623 -1.95244343654365  0.25573785248525
 6  2.08570459235924 -0.83845575777578 -0.65943984548455
 6 -3.58452312221222 -1.56475844114411 -1.71904918831883
 6  3.03599466266627 -0.60536128442844 -1.75458935783578
 6 -1.29517809000900 -0.60984484148415  3.93320882918292
 6 -5.69372459655966 -2.11772825312531  1.32954395999600
 6  2.64303396029603  0.51856922512251 -2.38710332033203
 6  1.76806623902390  1.12363805580558  2.76800344194419
 6  1.38103146964696  0.96931357995800 -1.77637374337434
 6  4.21116646574657 -1.58941837093709 -1.92844247434744
 6 -5.97027136323632 -2.45021711211121 -1.98783223142314
 6  5.35543109410941 -1.17157890309031 -0.95699911681168
 6  3.26213630903090  1.16298470107011 -3.63600010921092
 6  0.55971839593959  2.04992013891389 -1.94091583668367
 6  2.99105774607461  1.77415700120012  3.47661300650065
 6 -0.62485631723172  2.20521515371537 -1.14134942284228
 6 -6.99042296879688 -3.28076184028403 -1.54523308200820
 6  6.58025759535954 -1.97018527362736 -1.36660735073507
 6 -1.37450610541054  3.56304853805381 -1.22684075877588
 6 -2.27765185458546  3.47987846684668 -0.23294120032003
 6 -2.03759603200320  2.19894082758276  0.40977990999100
 6 -1.22781275967597  4.64389064926493 -2.28187995599560
 6 -3.30241087758776  4.49292977587759  0.25650989068907
 6 -1.99657354855486  5.65661107930793 -2.37495122792279
 1 -3.23519201240124 -0.32257774767477  1.30023422802280
 1 -2.84293591999200 -3.41223634863486  1.20877122622262
 1 -2.92110192999300 -2.21617506190619  2.65878526722672
 1 -0.67595290009001 -2.96808557365737  0.15758276827683
 1 -1.99347773747375 -0.76928323182318 -0.86883098549855
 1  1.59475743714371 -0.28742019581958  4.34411651075107
 1  2.76484381728173 -0.78707059835984  2.87214214361436
 1  3.19052786668667 -2.48609019191919  0.13229628282828
 1 -2.00852348164816 -1.12799207320732  4.45559262106211
 1 -0.58968873687369 -0.09198340194019  4.53501985848585
 1 -1.89174848864886  0.31040348704871  3.36679544484448
 1 -5.56478726592659 -1.48712684388439  2.28943323632363
 1 -5.26173493419342 -3.18537264186419  1.78755160146015
 1 -6.73220059685969 -2.19604524792479  1.01673803550355
 1  2.03364950435044  1.18147808970897  1.67987559885989
 1  0.86624657615762  1.50920316461646  3.07683565726573
 1  0.28671692929293  0.16222059185919 -0.16329836213621
 1  4.86598231743174 -1.41978503750375 -2.88137373927393
 1  4.01761259105911 -2.54285606480648 -1.70039714771477
 1 -5.88319045744574 -2.09900082468247 -2.87796125992599
 1  4.99722764406441 -1.40889136903690 -0.00815759205921
 1  5.65706714801480 -0.03959095519552 -1.08386286878688
 1  4.17877778927893  0.62278877097710 -4.03041127062706
 1  3.56459221082108  2.12199327802780 -3.55711804720472
 1  2.61645743504350  1.18759325722572 -4.52721587358736
 1  0.67502141214121  2.88512000850085 -2.84013490549055
 1 -7.09131821792179 -3.70739292319232 -0.51850087128713
 1 -7.77110537543754 -3.73186451695170 -2.26570962446245
 1  3.84386811431143  3.64056341734173  3.62103535773577
 1 -0.37750162896290  4.43176445594559 -2.86568446384639
 1 -4.21018960856086  4.50870745254525 -0.27399855135514
 1 -3.68855760546055  4.00426522012201  1.14399521092109
 1 -2.68744706090609  5.19825011611161  0.61159692959296
 1  8.54860055355536 -1.89022217641764 -0.98318895389539
 1 -1.77448037263726  6.35637609470947 -3.07242209440944
 1 -2.85417777067707  5.85151652745275 -1.89289519701970

