%nproc=4
%Mem=4GB
# td=(NStates=1) B3LYP/SVP 

TD

0 1
 8 -5.36466269626963  0.08097353695370 -3.22580236993699
 8  3.07050705620562  2.81663891859186  3.04546062446245
 8  3.34340268886889  0.58719411841184  2.71323320842084
 8  1.57648528802880 -7.13000927102710  1.50151865816582
 8  0.63073796179618 -6.84008043164316 -0.39644762766277
 8  1.60950799889989  3.86752987578758  0.00910041744174
 7 -2.31855146624662 -0.98495692589259  0.56026304290429
 7 -4.37451233263326  0.84331199769977 -1.24827318211821
 7  1.80534092569257 -0.74586615961596 -0.38931740934093
 7  2.54834037593759  1.83683942944294 -0.47126387308731
 6 -4.75464185538554  1.29171066806681  0.00286608640864
 6 -4.35795318811881  0.30446061136114  1.14606196389639
 6 -2.95919101470147 -0.00143988728873  1.40666267926793
 6 -1.91106020272027  0.48935389258926  2.19446261586159
 6 -0.69305591589159 -0.04676011151115  1.81278195579558
 6 -0.95941012881288 -1.07901095999600  0.78088990839084
 6 -6.25792814891489  1.37532532183218 -0.15252046744674
 6  0.54916352295230  0.06455713221322  2.60953997409741
 6 -6.61011152565256  1.05354460286029 -1.33105883458346
 6 -0.13918017411741 -2.09651838873887  0.19244132563256
 6  1.09331622782278 -1.88584813141314 -0.20419200140014
 6 -5.40554115441544  0.61662987768777 -2.10206751825182
 6  1.98241232643264 -2.89816035443544 -0.92160917021702
 6 -2.08294399529953  1.56296205310531  3.25330972117212
 6 -7.01042853605361  1.92657078627863  0.89507349324933
 6  3.13084941864186 -2.40103005420542 -1.27838908400840
 6  1.09660568786879  1.48726722012201  2.57861149704970
 6  2.97298537383738 -1.01697032263226 -0.88794278247825
 6  1.71721549174917 -4.47423338773877 -0.99924164106411
 6 -7.92407831383138  0.77512915051505 -2.04212260006001
 6  1.91823938953895 -5.04778571317132  0.48958495399540
 6  4.47559316831683 -2.93811228002800 -1.72706193749375
 6  3.93561443204320  0.14449385288529 -1.22367705010501
 6  2.59949057025703  1.50591818001800  2.74386028592859
 6  3.69270364816482  1.47197260876088 -1.06573314061406
 6 -9.09318430183018  0.96647880818082 -1.53715853115312
 6  1.30866593129313 -6.39905655585559  0.42951161016102
 6  4.60364919951995  2.74277103200320 -1.40243732683268
 6  3.78723799219922  3.83028355205521 -1.01772306660666
 6  2.54135570637064  3.28048589968997 -0.44016277897790
 6  5.70770437573757  2.62262710331033 -2.13668562366237
 6  4.07194281408141  5.33097797359736 -1.18290030343034
 6  6.56605666326633  3.56532221702170 -2.62063654055406
 1 -4.37987247334733  2.40108118821882  0.20981402170217
 1 -5.13836849374938 -0.54835631173117  0.94986973117312
 1 -4.75285212511251  0.63209720942094  2.07091400110011
 1 -2.86692573247325 -1.36882427792779 -0.29056597839784
 1 -3.52256325362536  1.02720463756376 -1.68994654555456
 1  0.17334176887689 -0.22380206820682  3.57863741184118
 1  1.40864487388739 -0.61760642804280  2.20706583938394
 1 -0.52760142104210 -2.94676214121412 -0.07614261196120
 1 -3.39079922522252  1.47389865396540  3.65018500820082
 1 -1.46389760486049  1.37416678057806  4.10001838973897
 1 -1.99873625472547  2.69729354915492  2.85062248404840
 1 -6.44518796969697  2.43945274877488  1.89361159415942
 1 -7.47841760876088  0.88811862106211  1.30576758745875
 1 -7.82342828002800  2.37841392449245  0.51407988818882
 1  0.79869257765777  2.25588762536254  1.68206627392739
 1  0.77449056155616  2.21427824982498  3.47796362056206
 1  1.66493081948195  0.16922756775678 -0.25423078837884
 1  2.23251104330433 -5.04293812421242 -1.84087869756976
 1  0.39902169966997 -4.51489133663366 -1.00660914431443
 1 -7.63229429122912  0.43548377897790 -2.92612855105511
 1  1.43423561246125 -4.23926510621062  1.10386796339634
 1  3.04096036613661 -5.12666987148715  0.70294810971097
 1  4.30087514981498 -3.97520497269727 -1.68597205830583
 1  5.47848894729473 -2.47022587278728 -1.31388500610061
 1  4.48528996209621 -2.66904913751375 -2.88604767836784
 1  4.83147276677668 -0.42794488898890 -1.67601377707771
 1 -9.20635423592359  1.28737619311931 -0.49713240304030
 1 -9.97500563416342  0.77488890459046 -2.16239233923392
 1  4.06637132363236  2.77664104780478  2.54371913761376
 1  6.16978044624462  1.56836898609861 -2.39143795879588
 1  5.09549024882488  5.50642340654065 -0.64130275017502
 1  4.34661668416842  5.74421118681868 -2.19822236713671
 1  3.10813848344835  5.90494010041004 -0.86293803540354
 1  1.00378768686869 -7.87824898199820  1.17683373827383
 1  7.45409785418542  3.24188972887289 -3.33233050635063
 1  6.34111599909991  4.61183669586959 -2.35713806630663

