%nproc=4
%Mem=3GB
# td=(NStates=1) B3LYP/SVP 

TD

0 1
 8 -3.08174508470847 -1.33045810131013 -2.87215787008701
 8  3.16799725452545  3.20137179567957  2.95849011991199
 8  3.69914422262226  1.54157128542854  4.37155159875988
 8  7.51576017891789 -1.69576569076908 -0.66489725152515
 8  6.63953811021102 -3.10809160406041 -2.17359380748075
 8 -2.79797070357036  1.57015250435043  1.50113017351735
 7 -0.25359110531053 -2.46215252955296  0.97198203900390
 7 -2.64644668266827 -1.21168630363036 -0.58949109370937
 7  1.16246779617962  0.12587349704971 -0.56011094829483
 7 -1.07212635813581  1.53565897379738 -0.11420231813181
 6 -3.26621177087709 -1.34903246564656  0.64173114701470
 6 -2.65995462156216 -2.34813896009601  1.61672697949795
 6 -1.20067570927093 -2.08250606460646  1.84491247984798
 6 -0.57009681198120 -1.19260045174517  2.83150117061706
 6  0.82887400000000 -1.11615661666167  2.46437763236324
 6  0.95252793899390 -1.90601703640364  1.28592339633963
 6 -4.63150809740974 -1.79944559325933  0.21264815211521
 6  1.94115870727073 -0.39304963456346  3.10594274877488
 6 -4.62958932033203 -2.03770247864786 -1.16349669016902
 6  2.08532648904891 -1.83624181638164  0.42210448914891
 6  2.10768679057906 -0.92193410561056 -0.54813871537154
 6 -3.41466613651365 -1.46552851815181 -1.70584786818682
 6  2.93676473967397 -0.71135188348835 -1.74337823672367
 6 -1.23108168036804 -0.44408826582658  3.78227373567357
 6 -5.65668089218922 -2.13602008230823  1.20847185278528
 6  2.52496215311531  0.41261863006301 -2.41823643364336
 6  1.98005743814381  1.07010270227023  2.77295393699370
 6  1.32061542804280  0.95553220182018 -1.63776988298830
 6  4.15991134023402 -1.53783321242124 -2.10301993209321
 6 -5.72206654275428 -2.33774586498650 -2.07024047224722
 6  5.34067961896190 -1.25682742794279 -1.12859627652765
 6  3.11137123252325  1.09712811541154 -3.61526803600360
 6  0.43286571067107  1.95989113601360 -1.88360010511051
 6  3.03647228752875  1.98077766326633  3.36364170937094
 6 -0.69207303890389  2.28735336753675 -1.14328961686169
 6 -6.76467039353935 -3.24101786588659 -1.91456001470147
 6  6.55960553015302 -2.14699295439544 -1.45345603560356
 6 -1.54934358915892  3.46133836703670 -1.27352542724272
 6 -2.47076116551655  3.32324280328033 -0.26931483768377
 6 -2.22493476587659  2.07070800430043  0.53905283728373
 6 -1.21125110351035  4.63555981618162 -2.11501326932693
 6 -3.46256689318932  4.29329981288129  0.33377761746175
 6 -2.06873076427643  5.70927634583458 -2.29963369616962
 1 -3.38048654185418 -0.31440693059306  1.23637784238424
 1 -2.90566219261926 -3.31808693369337  1.21469181828183
 1 -3.07512733253325 -2.18669211361136  2.47373676237624
 1 -0.59610491529153 -2.84646341144114  0.01934894489449
 1 -1.84042243194319 -0.81186749024902 -0.85468957135714
 1  1.83100106150615 -0.37935938973897  4.18729082818282
 1  2.88746607950795 -0.78076996829683  2.64591952135214
 1  2.92392120602060 -2.64189577247725  0.44314736793679
 1 -2.01688431773177 -1.07033630763076  4.25659272107211
 1 -0.63915368336834 -0.06376057965797  4.46380273677368
 1 -1.63587290109011  0.39305175187519  3.38962772807281
 1 -5.52581336853685 -1.45994412561256  1.85118941194119
 1 -5.86762552325232 -3.10842494709471  1.75865871217122
 1 -6.68569594639464 -1.84268991239124  0.74077043874387
 1  2.26550268966897  1.10143008490849  1.71060867216722
 1  0.93782373387339  1.68324056835684  2.87411538523852
 1  0.42706096369637  0.36147051685168  0.01011897959796
 1  4.70723644284429 -1.18244130313031 -2.95654125602560
 1  3.83838466826683 -2.53066484568457 -2.10069717771777
 1 -5.71258339673967 -1.68960988558856 -3.12073553735374
 1  5.19693761506151 -1.28545902580258 -0.04330110641064
 1  5.85941738303830 -0.26039303540354 -1.45656013851385
 1  4.05876578807881  0.67866435853585 -3.84656288578858
 1  3.40676642824282  2.19922100080008 -3.33621595699570
 1  2.46040182948295  1.19290378827883 -4.48522167416742
 1  0.79405331533153  2.72894439093909 -2.76675756775678
 1 -6.89187827392739 -3.82961514541454 -0.92398141934193
 1 -7.45891415631563 -3.15090642114211 -2.81613466696670
 1  3.81331505900590  3.60877023802380  3.68941219541954
 1 -0.39961384018402  4.30684196369637 -2.79962785818582
 1 -4.31972056165617  4.45537211901190 -0.24396554805481
 1 -3.88869761946195  4.02139693329333  1.29368017941794
 1 -2.76948526472647  5.34789508060806  0.37326309620962
 1  8.21447714121412 -2.16321947614761 -1.15226586158616
 1 -1.93881680628063  6.43819427652765 -3.15781063326333
 1 -3.16906925982598  5.74689606540654 -1.71105701320132

