%nproc=4
%Mem=4GB
# td=(NStates=1) B3LYP/SVP 

TD

0 1
 8 -5.45389161916192 -0.19888444884488 -3.22212200190019
 8  3.08594860036004  2.84944219891989  3.28445452385238
 8  3.39928827742774  0.65896129512951  3.10839272437244
 8  1.94118175767577 -7.20153642374237  1.33550205650565
 8  0.17140202820282 -6.86872329592959 -0.33112109500950
 8  1.62796984508451  4.08313143594359  0.01742124952495
 7 -2.36353596469647 -0.91290972117212  0.57363438003800
 7 -4.40542542394239  0.54082174867487 -1.26965532033203
 7  1.87808820042004 -0.63622519551955 -0.42773125072507
 7  2.58241378327833  1.90003574907491 -0.30430717741774
 6 -4.78109450065006  1.25571706870687  0.02162796259626
 6 -4.43250064286429  0.46931709700970  1.41032839053905
 6 -2.91369646524652  0.04233449014901  1.27168918191819
 6 -1.89678877557756  0.73520847804780  2.01821499109911
 6 -0.72773938423842  0.03240780528053  1.77621829942994
 6 -1.03108729652965 -0.94076713561356  0.79855167456746
 6 -6.27495985208521  1.33688147744774 -0.22864808020802
 6  0.65655426202620  0.23621429792979  2.42592161226123
 6 -6.66604711921192  0.82015126352635 -1.36373210191019
 6 -0.26363261936194 -1.90446918381838  0.09889197069707
 6  1.02950984718472 -1.81590113671367 -0.38025960816082
 6 -5.47938853915392  0.25178339303930 -2.09588690019002
 6  1.83655774097410 -2.85342588098810 -1.05113212251225
 6 -2.00164586548655  1.92538829572957  2.92278666886689
 6 -7.00552804600460  1.92413054225423  0.91368535443544
 6  3.07163349704970 -2.34916486768677 -1.42809405450545
 6  1.19605563286329  1.66623511691169  2.55250888678868
 6  3.09401747704770 -0.90219884548455 -1.17561154935494
 6  1.45432920312031 -4.37768373277328 -1.01322303920392
 6 -7.95852175817582  0.56341797939794 -1.99846823462346
 6  1.92312987858786 -5.13739467406741  0.30048604410441
 6  4.25043065206521 -3.03135160396040 -1.97019625092509
 6  3.98448931953195  0.16752615611561 -1.45213989638964
 6  2.67915853705371  1.60849843804380  3.01413731363136
 6  3.64456883468347  1.52264767626763 -1.00145671297130
 6 -9.06992197559756  0.58917107740774 -1.40876569186919
 6  1.19842490719072 -6.38877552775278  0.38237689668967
 6  4.53312214681468  2.68256501140114 -1.34042112521252
 6  3.90250951935194  3.78811933563356 -0.99752104640464
 6  2.57739931073107  3.35982383348335 -0.41022978567857
 6  5.91409501480148  2.42686752735274 -2.00041199629963
 6  4.38043366316632  5.14955983178318 -0.95489750315031
 6  6.77116717431743  3.35213089788979 -2.44872934983498
 1 -4.45175966206621  2.35667674777478  0.00671371167117
 1 -5.17100175707571 -0.39037051315132  1.36272101630163
 1 -4.50182702260226  1.12171617131713  2.23920082978298
 1 -2.76818585848585 -1.47928532403240  0.01176425462546
 1 -3.39994099139914  0.78463038013801 -1.61028857975798
 1  0.51881631633163 -0.20188987698770  3.51422097019702
 1  1.31410541994199 -0.32522719011901  1.77804293709371
 1 -0.87569623052305 -2.88044550955095 -0.18974397209721
 1 -3.05993613891389  1.99795105920592  3.33856384608461
 1 -1.38865008010801  1.74819418331833  3.93897228512851
 1 -1.45706208730873  2.70093391319132  2.43811123292329
 1 -6.40764421532153  2.55172397589759  1.64541677467747
 1 -7.44479424642464  1.12764257345735  1.55587259795980
 1 -7.97337327452745  2.47344342744274  0.49010749094910
 1  1.03707641604161  2.45599763636364  1.63440150745074
 1  0.65603871637164  2.20827764976498  3.36322214641464
 1  1.44586891329133  0.34501514651465 -0.51535690099010
 1  1.72659045124513 -4.96252008240824 -1.94681929162916
 1  0.36948874637464 -4.48193804130413 -0.81314979837984
 1 -7.74220528232823  0.50423065366537 -3.02645858405841
 1  1.67141933083308 -4.55021620132013  1.28323590019002
 1  2.97694396449645 -5.19931713621362  0.27668548344834
 1  4.04025908820882 -4.07946539873987 -2.05888935003500
 1  5.07503860226023 -2.87870672087209 -1.36272989058906
 1  4.46319775287529 -2.53302553515352 -2.90363943754375
 1  4.96515613511351 -0.39792188668867 -1.70075625132513
 1 -9.52150575107511  0.77251470697070 -0.42421511131113
 1 -9.88166630023002  0.35395681138114 -2.08495459545955
 1  4.10612529902990  2.73968735243524  3.44142890859086
 1  6.14052752095210  1.45115726492649 -2.04410322532253
 1  5.39921062086209  5.26963972817282 -0.43683230313031
 1  4.41628365086509  5.62423918961896 -2.04390693559356
 1  3.54278194779478  5.92621222762276 -0.41059280088009
 1  1.28452576067607 -7.88535969306931  1.61222727762776
 1  7.83729617401740  3.25731127102710 -2.74270154345435
 1  6.58037992549255  4.52950846304630 -2.35116746924693

