%nproc=4
%Mem=4GB
# td=(NStates=1) B3LYP/SVP 

TD

0 1
 8 -5.35208143814381 -0.09462402280228 -3.26001579127913
 8  2.89798980448045  2.98166542124212  3.23269934833483
 8  3.34885323392339  0.77748314731473  2.90814269936994
 8  1.14465210471047 -6.99406567666767  1.58749725602560
 8  0.83866875487549 -7.14473089668967 -0.81501948484848
 8  1.78637568566857  3.97171029382938  0.05512501990199
 7 -2.33632324342434 -0.90740917111711  0.59331634823482
 7 -4.30842572397240  0.45211287778778 -1.27825618041804
 7  1.77435782738274 -0.61206277927793 -0.45770424802480
 7  2.57989353125313  1.95989173467347 -0.57545429212921
 6 -4.74137052825283  1.21060255725573  0.05543134293429
 6 -4.45611300410041  0.30958112341234  1.31480883858386
 6 -2.95271036663666  0.05492574927493  1.38098011101110
 6 -1.97398649534954  0.66826178337834  2.15933910351035
 6 -0.70292690299030  0.08845340984098  1.82858353595360
 6 -0.95888007580758 -0.91255431433143  0.83528534793479
 6 -6.26556891299130  1.36592438173817 -0.15871108650865
 6  0.66268487508751  0.25123580008001  2.43561258135814
 6 -6.54100461496150  0.83466271467147 -1.33435916461646
 6 -0.08451470757076 -2.00807954485449  0.28689077057706
 6  1.13727062326233 -1.81358090469047 -0.31213279547955
 6 -5.41986258655866  0.28411662636264 -2.15248255975598
 6  1.97965205040504 -2.82086262466247 -0.84526153545355
 6 -2.07247294819482  1.64495025192519  3.29414380458046
 6 -7.05444293749375  1.89225735493549  0.88543252915292
 6  3.02867920162016 -2.35220517171717 -1.38689993509351
 6  1.13745977327733  1.58606710011001  2.51286492239224
 6  2.99994807010701 -0.87620624622462 -1.16957094529453
 6  1.55980975117512 -4.33058902330233 -0.93922563946395
 6 -7.87904381038104  0.69375101270127 -1.91207959575958
 6  1.52786035163516 -5.11498243284328  0.42472846834683
 6  4.26730233923392 -3.01564003280328 -1.93758298959896
 6  3.93212408300830  0.13590299379938 -1.36254093649365
 6  2.57981860306031  1.73037062526253  2.85457135703570
 6  3.63768814661466  1.60462587408741 -1.09502606990699
 6 -9.13216820022002  0.57745990629063 -1.34055887118712
 6  1.11356642134213 -6.48449509970997  0.29955861486149
 6  4.65647448204821  2.63496025092509 -1.40432751585159
 6  3.99093836223622  3.83876440014001 -1.02963425772577
 6  2.64066563736374  3.38635648674867 -0.42998176087609
 6  5.88532213751375  2.44561940254025 -2.12226418151815
 6  4.37744336413641  5.20498537433743 -1.04171618501850
 6  6.72535259285929  3.43466915171517 -2.44371884878488
 1 -3.96457094319432  2.11149222932293  0.22422546284628
 1 -5.00267492439244 -0.57928940504050  1.35252999719972
 1 -4.71994883478348  0.94968896859686  2.06500341004100
 1 -2.86628566846685 -1.55274266976698 -0.13034995679568
 1 -3.45278627592759  0.54847676477648 -1.52775032593259
 1  0.72004643934393 -0.12735242324232  3.40181973007301
 1  1.39456346574657 -0.45210987838784  1.87412254505451
 1 -0.55374403530353 -2.94747221222122  0.11464646694669
 1 -3.07489763506351  1.92728399249925  3.51734172387239
 1 -1.70514172927293  1.25941530543054  4.27950633853385
 1 -1.39682606370637  2.48587240704070  3.02085950775077
 1 -6.68992244314431  2.75350415391539  1.33567580058006
 1 -7.39316908390839  1.25837564676468  1.78448545924592
 1 -8.03370930813081  2.22014809790979  0.47367584778478
 1  1.06680938933893  2.17441947854785  1.62714078137814
 1  0.49357246974697  2.17690451245125  3.13220904510451
 1  1.64936926332633  0.17521816681668  0.00374500920092
 1  2.02924071627163 -4.88909273967397 -1.69198380808081
 1  0.49870166766677 -4.25866571407141 -1.09517800120012
 1 -7.79091015281528  0.54937516811681 -2.97219315751575
 1  0.96207839673967 -4.76647782748275  1.27299487608761
 1  2.51173744384438 -5.00252745724572  0.86124393929393
 1  4.19341440374037 -4.03233068526853 -2.34428788988899
 1  5.15478657705771 -3.18297714791479 -1.13558717631763
 1  4.74463589668967 -2.49005123772377 -2.91938101170117
 1  5.03644326382638 -0.19300139463946 -1.76688286398640
 1 -9.02603620412041  0.74786224172417 -0.23507619741974
 1 -9.88113624722472  0.44379579527953 -2.06365246524652
 1  3.85266995349535  3.20340372407241  3.54364913061306
 1  6.22364583278328  1.65857800700070 -2.21342015701570
 1  5.28282898269827  5.60418318251825 -0.40720934083408
 1  4.83282530503050  5.42686945264526 -2.08809135403540
 1  3.62555022462246  5.85244485088509 -0.72401414301430
 1  1.00014732283228 -8.00990214731473  1.36499255415542
 1  7.40355279967997  3.32810835073507 -3.19154642794279
 1  6.58665055255525  4.48808432063206 -2.23648600110011

