%nproc=4
%Mem=3GB
# td=(NStates=1) B3LYP/SVP 

TD

0 1
 8 -3.18404531473147 -1.38042309780978 -2.80066072037204
 8  3.16662711751175  3.15548720722072  3.01405567646765
 8  3.48358266646665  1.47228435673567  4.58765320892089
 8  7.65581418431843 -1.85442155635564 -0.48138890069007
 8  6.65701985838584 -2.87882867776778 -2.31073752185219
 8 -2.64171507800780  1.61443693279328  1.48610867136714
 7 -0.29690543674367 -2.53028934323432  0.98048288908891
 7 -2.64641667966797 -1.10094522952295 -0.56986913151315
 7  1.15165671507151  0.10738164786479 -0.69476441364136
 7 -0.99537868336834  1.44883029092909 -0.19529042694269
 6 -3.30602575227523 -1.31733929632963  0.59330630453045
 6 -2.60497912401240 -2.38612275847585  1.62633794059406
 6 -1.16304194589459 -2.10145795979598  1.82147013561356
 6 -0.60722052435244 -1.15407659935994  2.78299632013201
 6  0.86040715331533 -1.11926692769277  2.43671486608661
 6  0.92946563276328 -1.93868030273027  1.26230103410341
 6 -4.71526647324732 -1.73237888658866  0.28777566486649
 6  1.88858344974497 -0.33750408000800  3.08185033953395
 6 -4.86386274767477 -2.04492320072007 -1.04859520002000
 6  2.05980393679368 -1.88462665486549  0.32525480418042
 6  2.04844086598660 -0.94763667586759 -0.67981188268827
 6 -3.52575724562456 -1.44725669096910 -1.67695497889789
 6  2.90885194839484 -0.65507625592559 -1.82727662656266
 6 -1.18921749394939 -0.51293515051505  3.92252776107611
 6 -5.81909713381338 -2.20589707000700  1.31884288988899
 6  2.63926358325833  0.51527889608961 -2.46418102810281
 6  1.88179761216122  1.12655834783478  2.63627026862686
 6  1.38973233973397  0.94593124172417 -1.77140324632463
 6  4.19842519161916 -1.44848427752775 -2.02496212631263
 6 -5.78508284438444 -2.55857794819482 -2.02923637183718
 6  5.43389894089409 -1.10557230243024 -1.10912432933293
 6  3.16760685608561  1.25034343694369 -3.70073658285829
 6  0.52750517461746  1.98652379927993 -2.01429317441744
 6  2.99756839713971  1.90806039153915  3.50890623582358
 6 -0.62857668926893  2.29298393059306 -1.23365865376538
 6 -6.91944587108711 -3.31985574967497 -1.80312887158716
 6  6.50451002060206 -2.02094034913491 -1.42911360136014
 6 -1.42494114891489  3.49901213441344 -1.24335240994099
 6 -2.37501159055906  3.37711819081908 -0.16742464866487
 6 -1.94861713411341  2.10205113861386  0.51081001300130
 6 -1.29822980138014  4.55779203940394 -2.25865763376338
 6 -3.36935757225723  4.35367585048505  0.35330957065707
 6 -1.94225811701170  5.75747116531653 -2.35800953375338
 1 -3.32586107930793 -0.32795828572857  1.26631083568357
 1 -2.61941356775678 -3.34964008900890  1.02526287538754
 1 -3.28182800260026 -2.53065651005100  2.59096848554855
 1 -0.60238554335434 -3.09589835493549  0.13484049404941
 1 -1.82980136983698 -0.37646394989499 -0.91512561496150
 1  1.95784374577458 -0.52144359815982  4.22181428052805
 1  2.69285661856186 -0.91226311761176  2.72727765716572
 1  2.91990080398040 -2.70824240714071  0.12527558075808
 1 -2.16924955425543 -0.98068734273427  4.39680674247425
 1 -0.63644341234123 -0.32723692729273  4.87911426792679
 1 -1.57149646344634  0.58648109480948  3.69067783308331
 1 -5.64645543274327 -1.65716384758476  2.21862615561556
 1 -5.58326708740874 -3.41526563116312  1.60970381668167
 1 -6.75681305810581 -2.31241688508851  0.80178654035404
 1  2.13073921332133  1.24716465836584  1.63805141644164
 1  0.89011896339634  1.60748299259926  2.93497147084708
 1  0.26005426302630 -0.05488111831183 -0.21663369566957
 1  4.52482820202020 -1.56550960996100 -3.04884048594860
 1  3.73239406920692 -2.39040081928193 -1.73746085408541
 1 -5.49730186858686 -2.40090101470147 -3.14352781658166
 1  5.14049197049705 -1.39959043894389 -0.17810458675868
 1  5.75867730903090  0.04294729862986 -1.24309879237924
 1  4.04549446094609  0.68785527762776 -3.96482471197120
 1  3.45463121472147  2.37386846554655 -3.84254659005901
 1  2.29561535083508  1.06623112101210 -4.38826197819782
 1  0.88559246924692  2.54062555905591 -2.79352024402440
 1 -7.16159524562456 -3.47005918981898 -0.72528154935493
 1 -7.41779004390439 -3.79323065356536 -2.70149320282028
 1  3.79482320982098  3.81771113211321  3.41789504370437
 1 -0.54657853665367  4.24529580908091 -2.97433532893289
 1 -3.90704929452945  4.38481506330633 -0.50908205970597
 1 -3.83358210791079  3.94376917051705  1.08947975937594
 1 -2.94406272247225  5.34523481458146  0.61731750165017
 1  8.28084377787779 -2.60182333653365 -0.72141277627763
 1 -1.66426935153515  6.31770222732273 -3.26749160136014
 1 -2.67809016191619  6.14401577737774 -1.53563947144714

