%nproc=4
%Mem=3GB
# td=(NStates=1) B3LYP/SVP 

TD

0 1
 8 -3.17863477367737 -1.72111716721672 -2.90493114741474
 8  3.25825628042804  3.08547020552055  3.00782505340534
 8  3.18514282248225  1.52330945924592  4.77870231383138
 8  7.72274087698770 -1.52217833203320 -0.66747750955096
 8  6.66848100450045 -3.02085288018802 -2.05328177627763
 8 -2.66187709420942  1.55741123022302  1.48855891639164
 7 -0.28232397859786 -2.42967928222822  0.92489733053305
 7 -2.61832387038704 -1.42937807280728 -0.70880302490249
 7  1.11429297869787 -0.01146023632363 -0.85170010721072
 7 -1.04413355885589  1.45899130703070 -0.25834673257326
 6 -3.27316246594659 -1.23857141954195  0.58895586948695
 6 -2.67774640074007 -2.26351049724972  1.60929623642364
 6 -1.22416805850585 -1.94876269026903  1.78633662226223
 6 -0.57681748404840 -1.09874106580658  2.72461048154815
 6  0.79116022862286 -1.12577757875788  2.40938213281328
 6  1.01375406160616 -1.90989742444244  1.26492129612961
 6 -4.73795874247425 -1.78256390509051  0.26512339963996
 6  1.89182377377738 -0.36287661726173  3.06570872537254
 6 -4.85172153355336 -2.01574028242824 -1.10320066056606
 6  2.15320327672767 -1.97086527872787  0.28280055875588
 6  2.15165118701870 -0.97535944814481 -0.69131303280328
 6 -3.52340701060106 -1.71211317661766 -1.70340762416242
 6  3.03618468166817 -0.71590233853385 -1.72770666956696
 6 -1.30016858905891 -0.46422027902790  3.80809631793179
 6 -5.81326655075508 -1.85150163046305  1.38673967956796
 6  2.60189984688469  0.45543291149115 -2.53969857985799
 6  1.93797322972297  1.20856654865487  2.66551319291929
 6  1.39942330883088  0.93258990759076 -1.80676678267827
 6  4.25660100920092 -1.40427985708571 -2.17867749784978
 6 -5.97403173927393 -2.62568465886589 -1.90188363656366
 6  5.51573712471247 -1.08375012021202 -1.28869228612861
 6  3.14765486088609  1.08453685628563 -3.74856136533653
 6  0.49188161226123  2.02395754265427 -2.00412215731573
 6  2.87893653395340  1.97653723922392  3.54045939113911
 6 -0.56576040764076  2.36233086528653 -1.15161044894489
 6 -7.13239716621662 -3.25969973407341 -1.63593215191519
 6  6.61326089568957 -1.99446770187019 -1.43274396439644
 6 -1.38260691549155  3.53187542074207 -1.16174424912491
 6 -2.22540663006301  3.40058053705371 -0.13599150535054
 6 -2.08084035643564  2.00682161566157  0.47708664066407
 6 -1.11205118351835  4.64805106530653 -1.97094886288629
 6 -3.41433206970697  4.26478696159616  0.42454669436944
 6 -1.84682857405741  5.79604502270227 -2.12727646044604
 1 -3.52619111231123 -0.12069755965597  0.86452065666567
 1 -2.97189881628163 -3.29577470247025  1.22140248934894
 1 -3.32678249804980 -2.22512595699570  2.51645103380338
 1 -0.39752505730573 -3.14149291439144  0.14619162916292
 1 -1.78189657935794 -0.62013831733173 -1.05443954635464
 1  2.02635059645965 -0.22658411221122  4.09561166026603
 1  2.82003933683368 -0.85532742404240  2.48754368376838
 1  2.91802061596160 -2.62050363326333  0.26002905610561
 1 -1.98414104340434 -1.14681395539554  4.33657071887189
 1 -0.58588835683568 -0.21653585718572  4.59293565006501
 1 -1.77455676947695  0.44595704240424  3.34010277557756
 1 -5.61522230943094 -1.12588071927193  2.06745103810381
 1 -6.00853961466147 -2.84806891149115  1.81231407770777
 1 -6.80640801760176 -1.70077572097210  0.84020038173817
 1  2.09956609600960  1.17387732963296  1.37092470377038
 1  0.92633258475848  1.59334157845785  2.74619259295930
 1  0.34303256085609  0.33904827462746 -0.20497252955296
 1  4.56302202140214 -1.04044710371037 -3.21070667256726
 1  4.08532936273627 -2.68820059925993 -2.16511361936194
 1 -5.89283142154215 -2.47211813641364 -3.06742020582058
 1  5.00498842014201 -0.92579305920592 -0.22390916721672
 1  5.88508995029503 -0.07896489258926 -1.42496697919792
 1  3.85624553605361  0.33792028412841 -4.28150638013801
 1  3.77677342894289  1.78701978067807 -3.29761209660966
 1  2.38551434073407  1.50742524042404 -4.36460961296130
 1  0.85407931793179  2.80828232473247 -2.73231412341234
 1 -7.24863394949495 -3.55798798269827 -0.75894491569157
 1 -7.94528279317932 -3.70492182268227 -2.30142319581958
 1  3.97093082058206  3.51174053505351  3.56015927012701
 1 -0.17599147794779  4.53932521202120 -2.59412730813081
 1 -3.99607819741974  4.41324790659066 -0.60008115961596
 1 -3.87519626932693  3.70377517111711  1.20478128952895
 1 -2.90267858405841  5.32674296539654  0.83617938783878
 1  8.46130182368237 -2.12682583678368 -0.71748238323832
 1 -1.54935786038604  6.47787824492449 -2.89001385358536
 1 -2.72374472737274  5.96706808260826 -1.57225313281328

