%nproc=4
%Mem=3GB
# td=(NStates=1) B3LYP/SVP 

TD

0 1
 8 -3.17914482468247 -1.17355241074107 -2.75968662296230
 8  2.76067652245225  3.16683834233423  3.20794506540654
 8  3.58970327852785  1.52408953725373  4.33098754235424
 8  7.55834443734373 -1.58760487468747 -0.74844560636064
 8  6.52304646104610 -3.11349214411441 -1.93471992009201
 8 -2.56184709120912  1.78281377047705  1.59599966046605
 7 -0.26466221242124 -2.48852516681668  0.99046388718872
 7 -2.52987502550255 -1.25408054305431 -0.59264140874087
 7  1.16070762016202 -0.02364145444544 -0.70326526372637
 7 -1.01757090259026  1.49406481438144 -0.20331122902290
 6 -3.31620677037704 -1.41092865526553  0.73920089398940
 6 -2.61370999709971 -2.43344749094909  1.54512981978198
 6 -1.21045668736874 -2.06566438043804  1.83555154375438
 6 -0.57189699199920 -1.21431262296230  2.85984400490049
 6  0.77870898349835 -1.16654165516552  2.47709890449045
 6  1.02131481768177 -1.82540897559756  1.30844564856486
 6 -4.66732167876788 -1.93910955965597  0.17560444774477
 6  1.89662425382538 -0.28277860746075  3.21057321182118
 6 -4.62606896829683 -2.05300400880088 -1.17127746824682
 6  2.12024998139814 -1.82933112531253  0.44953723242324
 6  2.07629365126513 -0.94147605980598 -0.67269117061706
 6 -3.34231890179018 -1.47281924722472 -1.59706699009901
 6  2.96172723592359 -0.66855760406041 -1.97130102900290
 6 -1.14956352855286 -0.43105696269627  3.88279378767877
 6 -5.72582780688069 -2.23815029532953  1.18097910351035
 6  2.39425908280828  0.42578994719472 -2.61661627162716
 6  1.85705513791379  1.09222491449145  2.73454009560956
 6  1.34730809730973  0.88977562616262 -1.86900300630063
 6  4.11388673777378 -1.64874430353035 -2.20839046914691
 6 -5.62891722782278 -2.45685777617762 -2.05622907110711
 6  5.28294384538454 -1.23632537773777 -1.23759717661766
 6  2.98986908230823  0.97451585418542 -3.84009051825183
 6  0.42681510561056  1.95146029292929 -2.03409515461546
 6  2.79981862216222  1.93109269476948  3.54448979417942
 6 -0.60249408100810  2.29265389758976 -1.24930021792179
 6 -6.67716164266427 -3.31492525662566 -1.94241279998000
 6  6.53030259985999 -2.00195845094509 -1.32270296029603
 6 -1.49187784258426  3.52391462466247 -1.22197027172717
 6 -2.29130321972197  3.49579005800580 -0.09068697489749
 6 -1.95704797719772  2.21215214871487  0.60594952695270
 6 -1.33357333573357  4.60358661886189 -2.11913368136814
 6 -3.11571220772077  4.51108159105911  0.46102034173417
 6 -2.00815470667067  5.74608002620262 -2.31474520732073
 1 -3.53155164836484 -0.47971346124612  1.20250445504551
 1 -2.71319294569457 -3.37833295829583  0.90109045814582
 1 -3.23858367816782 -2.42717616201620  2.42755214391439
 1 -0.35723102790279 -3.00599936503650  0.05417242724272
 1 -1.87479586928693 -0.41728803230323 -0.50814491689169
 1  1.53229119051905 -0.41161261506151  4.31261336043604
 1  2.92904023692369 -0.60143203450345  2.79348427782778
 1  2.82210102400240 -2.70189177207721  0.36722977617762
 1 -1.83179580888089 -0.99143841784178  4.43719078087809
 1 -0.48596836483648 -0.12017622122212  4.56747310381038
 1 -1.63652296609661  0.33315576227623  3.21601036633663
 1 -5.71389217641764 -1.49259739093909  2.00894518751875
 1 -5.75448420912091 -3.32234633923392  1.61524437073707
 1 -6.68203558035804 -2.14670031343134  0.60211657335734
 1  2.23220936033603  1.27187712961296  1.74857246854685
 1  0.87849780128013  1.60673291759176  2.73412138583858
 1  0.42730098769877  0.11914628442844 -0.12421445374538
 1  4.53460918011801 -1.81977503650365 -3.26253185508551
 1  3.88269909970997 -2.69009078827883 -1.81778888688869
 1 -5.43040517891789 -2.05560648524852 -3.21014447824782
 1  4.99529745104511 -1.30591107100710 -0.30006678297830
 1  5.56735817711771 -0.13672066816682 -1.31273575607561
 1  3.94344425592559  0.61739823192319 -4.08606683618362
 1  3.33954970657066  2.01550262896290 -3.80759309470947
 1  2.24773056235624  0.88905340324032 -4.75043819581958
 1  0.68233214321432  2.61927342384238 -2.81055194719472
 1 -6.87055614171417 -3.91272345624563 -1.03065208640864
 1 -7.32937120202020 -3.69330066056606 -2.80839389288929
 1  3.54186791429143  3.56639600060006  3.60624387858786
 1 -0.51237511631163  4.48160944044404 -2.83392128752875
 1 -3.93808239783978  4.48271485328533 -0.18489964146415
 1 -3.43509225892589  4.25552034563456  1.39331014241424
 1 -2.47099541574157  5.54770506160616  0.27611338123812
 1  8.37380307380738 -2.20585373957396 -0.79347998299830
 1 -1.62957588218822  6.45485594269427 -3.05188004020402
 1 -2.89209156205621  5.91138251405140 -1.64204011151115

