%nproc=4
%Mem=4GB
# td=(NStates=1) B3LYP/SVP 

TD

0 1
 8 -5.01977820782078  0.21071651125113 -3.32093188288829
 8  3.05217522302230  2.96661391609161  3.19275535393539
 8  3.28357670627063  0.79326472547255  3.06662854795480
 8  1.57830547004700 -7.33258952905291  1.46242474877488
 8  0.74510939893989 -7.13740016361636 -0.57800578347835
 8  1.65420246834683  3.91257438023802  0.04482398979898
 7 -2.32875248634863 -0.91336976717672  0.69192620922092
 7 -4.30569545094509  0.66980464696470 -1.20668902370237
 7  1.78881927352735 -0.71499307230723 -0.41149962756276
 7  2.50187572947295  1.90194594009401 -0.56886363306331
 6 -4.68605499669967  1.24079557655766  0.10578637843784
 6 -4.48918631143114  0.25198536383638  1.26924428212821
 6 -2.92057715331533  0.07115737243724  1.50670268326833
 6 -1.88589768646865  0.67184214141414  2.23503667326733
 6 -0.65832244254425  0.06450101460146  1.86754743234323
 6 -0.96229041684168 -0.95558861776178  0.93941576097610
 6 -6.21229358545855  1.28764655395540 -0.14482969836984
 6  0.64424303090309  0.23082375887589  2.48152717281728
 6 -6.57010752525253  0.83512276067607 -1.34790051875188
 6 -0.13887014311431 -2.05055379227923  0.31995407690769
 6  1.06419331553155 -1.83845339193919 -0.27260884308431
 6 -5.35169576987699  0.58323653835384 -2.16397370887089
 6  1.93759784498450 -2.94148468686869 -0.92434944424442
 6 -2.17828352925293  1.75822157905791  3.21090548074807
 6 -6.98040553375338  1.88718684788479  0.95666965286529
 6  3.00666700040004 -2.32369232043204 -1.40576182128213
 6  1.15334136143614  1.75144363776378  2.56242987888789
 6  3.00867894319432 -0.92070069566957 -1.08307229542954
 6  1.43222699289929 -4.36696266066607 -0.85733745064506
 6 -7.80795670167017  0.78154979257926 -2.10485887368737
 6  1.76444401000100 -5.16256719131913  0.45853184868487
 6  4.15302091109111 -3.04457292609261 -2.08996822812281
 6  3.89074994559456  0.07487689118912 -1.44764944734473
 6  2.59106972817282  1.73084067226723  3.02413831373137
 6  3.62111648944895  1.48109352085209 -1.19546611391139
 6 -9.10124510791079  0.70938309860986 -1.65764057935794
 6  1.30869593429343 -6.63264991519152  0.34954361336134
 6  4.52679151375138  2.63391014591459 -1.46507359045905
 6  3.82503177157716  3.76783730743074 -1.07765906020602
 6  2.50366193699370  3.29091694279428 -0.53339210191019
 6  5.74184779007901  2.57273211381138 -2.21060301540154
 6  4.26689230903090  5.21373624942494 -1.04009602300230
 6  6.59375943354335  3.53835952075208 -2.51136561346135
 1 -4.37713219931993  2.24067514761476  0.24641768206821
 1 -4.83159781668167 -0.90042151825183  0.96000074427443
 1 -4.87919475937594  0.62253625332533  2.36189309900990
 1 -2.75711475137514 -1.52149954545455 -0.24856177797780
 1 -3.33002399969997  0.77225914301430 -1.55791334223422
 1  0.56926136083608 -0.33280296829683  3.43208275637564
 1  1.56370037943794 -0.46864153155316  2.11595672847285
 1 -0.69805846674668 -2.88050551555156  0.11857685998600
 1 -3.42107225252525  1.56948821292129  3.67275726542654
 1 -1.61583279837984  1.65049441334133  4.01282967086709
 1 -2.15883226432643  2.85101892169217  2.86227364916492
 1 -6.69436288718872  2.49989879337934  1.68794102710271
 1 -7.32160192719272  1.08572838203820  1.61636864756476
 1 -8.02608854605461  2.35857194029403  0.57121560176018
 1  1.03029573797380  2.42473451005100  1.62809087638764
 1  0.62229534203420  2.25737255925592  3.33402922712271
 1  1.56235056145615  0.15673631863186 -0.11025639093909
 1  1.84521231343134 -4.85221905230523 -1.73627823752375
 1  0.42913471097110 -4.43283313081308 -1.03957244064407
 1 -7.69195025682568  0.96984721532153 -3.29152509070907
 1  1.30136232513251 -4.74827600730073  1.45240281688169
 1  2.81936820692069 -5.36929413391339  0.69195701060106
 1  3.79946500880088 -4.06768422062206 -2.21769523062306
 1  5.18342944134413 -2.86440529072907 -1.71777539513951
 1  4.41263269636964 -2.79988222082208 -3.07736681028103
 1  4.74508412791279 -0.31517361186119 -2.00807698339834
 1 -9.21481508200820  0.56379383488349 -0.50756344614461
 1 -9.95423355695570  0.79034044974497 -2.25861196119612
 1  3.95323000950095  2.76747013071307  3.12154692039204
 1  5.99550301850185  1.46958910811081 -2.30460927592759
 1  5.19581028082808  5.24410717491749 -0.58192681258126
 1  4.42846486898690  5.80372713841384 -2.00614315921592
 1  3.53661133073307  5.74937454385439 -0.47349909150915
 1  1.28735604370437 -8.29243040014001  1.30086614151415
 1  7.53451589598960  3.23115865576558 -2.89263653695370
 1  6.41574346184618  4.54440995319532 -2.27324967746775

