%nproc=4
%Mem=3GB
# td=(NStates=1) B3LYP/SVP 

TD

0 1
 8 -3.16512342254225 -1.44924998049805 -2.92707336163616
 8  2.82873332813281  3.14643630213021  3.32854712561256
 8  3.91213552175218  1.24719184748475  4.12060650425043
 8  7.75925452835283 -1.52254836903690 -0.77371813361336
 8  6.69837399379938 -2.94030482538254 -2.18276472457246
 8 -2.73573447994799  1.58625411451145  1.50238029852985
 7 -0.20542628882888 -2.45173148744875  0.94141898269827
 7 -2.60569260726073 -1.21554668966897 -0.70595273987399
 7  1.19626117551755  0.07557846754675 -0.59634457165717
 7 -1.09118826432643  1.44021942984298 -0.15188608650865
 6 -3.33008815851585 -1.26694425682568  0.61160813471347
 6 -2.63671229732973 -2.31671581778178  1.60204551135114
 6 -1.14501014271427 -1.97805561956196  1.71804979357936
 6 -0.59443924622462 -1.18418961066107  2.75273329382938
 6  0.77000811341134 -1.13490849184918  2.48493968856886
 6  1.01508419461946 -1.90639707440744  1.21223602760276
 6 -4.62993794039404 -1.76224187288729  0.16006289358936
 6  1.87461205260526 -0.35465579517952  3.23241539603960
 6 -4.80253661506151 -1.90934964336434 -1.15277561806181
 6  2.02122007840784 -1.95893408560856  0.26560883958396
 6  2.19522554445445 -0.95120703290329 -0.54899880138014
 6 -3.39893456335634 -1.54900686598660 -1.71958924232423
 6  3.08964002720272 -0.64085483378338 -1.69928382728273
 6 -1.39155772797280 -0.40314417141714  3.73768927722772
 6 -5.68587381148115 -1.98271475177518  1.22686369196920
 6  2.50438009490949  0.38890625882588 -2.39067367736774
 6  1.81405083748375  1.10603629562956  2.83925056665667
 6  1.38831219771977  0.97581423002300 -1.74089019501950
 6  4.20230557965797 -1.50247967706771 -1.97206683678368
 6 -5.88556289238924 -2.46734882528253 -1.99883333153315
 6  5.48715426642664 -1.10832257745775 -1.02400581748175
 6  3.04742483788379  0.90835923852385 -3.74506101530153
 6  0.49145156925693  1.95110025692569 -1.92627437253725
 6  2.94598323862386  1.84228381388139  3.51066641184118
 6 -0.70931476307631  2.13902853505351 -1.19979526742674
 6 -6.96539046554655 -3.05342910701070 -1.54902346104610
 6  6.65728529812981 -1.99490774587459 -1.42174286428643
 6 -1.53444209900990  3.45414764796480 -1.22689076377638
 6 -2.36317040644064  3.40402088108811 -0.16089399559956
 6 -2.08286055845585  2.04219515301530  0.48957788978898
 6 -1.32916289468947  4.46855311551155 -2.26339810781078
 6 -3.29459009550955  4.35340582348235  0.34836907660766
 6 -1.97658154935494  5.67946336453645 -2.36495022782278
 1 -3.36039453265327 -0.34937042694269  1.19240344494449
 1 -2.87490911731173 -3.33260838583858  1.37975832493249
 1 -3.17809762956296 -2.25836928132813  2.59298868756876
 1 -0.13634893969397 -2.92680144524452  0.06880389038904
 1 -1.97492588228823 -0.44772107560756 -0.79947404980498
 1  1.61780974237424 -0.43935538933893  4.39187128622862
 1  2.80887822072207 -0.76154804610461  2.89541447084708
 1  3.12203101700170 -2.54288587148715  0.60999405260526
 1 -1.95995862516252 -1.10116939093909  4.27384444624462
 1 -0.79416918491849 -0.06232043564356  4.44442079857986
 1 -2.08277759155916  0.46263871057106  3.39756852215222
 1 -5.51382216941694 -1.58830696189619  2.19055334833483
 1 -5.52901166186619 -3.04025813041304  1.62526537283728
 1 -6.72589996679668 -1.98109375277528  0.97816417811781
 1  1.83231937133713  1.26741668356836  1.79984759605961
 1  0.92455240674067  1.74069631393139  3.11667964166417
 1  0.42414067166717  0.34541891169117 -0.07132916521652
 1  4.46614233343334 -1.29203226222622 -3.07092269416942
 1  3.93857468726873 -2.50035181438144 -1.90280738873887
 1 -5.62506464486449 -2.30836176077608 -2.99051251505151
 1  5.22319024032403 -1.20085056495650  0.10335355905591
 1  5.89120056135614  0.03842684658466 -1.04330881338134
 1  3.90168007950795  0.34363085518552 -4.07640587008701
 1  3.10394614621462  2.11039211791179 -3.87345968136814
 1  2.43856964626463  0.72940743864386 -4.74238739073907
 1  0.46525043504350  2.56277777427743 -2.87107799979998
 1 -7.24071315741574 -3.24225640954095 -0.66873589478948
 1 -7.84984324922492 -3.28912024252425 -2.14241729522952
 1  3.48277200470047  3.51087044804480  3.90468372257226
 1 -0.45401928072807  4.34338561806181 -3.01936983238324
 1 -4.19624821442144  4.80013659545955 -0.39158030953095
 1 -3.75214396409641  3.73225801940194  0.97216802820282
 1 -2.89563787998800  5.35280557165717  0.81253702360236
 1  8.42584827832783 -2.25006816101610 -1.30235087008701
 1 -1.86848977357736  6.34464492159216 -3.27287213941394
 1 -2.78603095599560  5.95315669146915 -1.85505141264126

