%nproc=4
%Mem=3GB
# td=(NStates=1) B3LYP/SVP 

TD

0 1
 8 -3.25965287548755 -1.27372242774277 -2.92111276557656
 8  3.28181863666367  3.10857251575157  3.24734900580058
 8  3.75263957215722  1.28898602690269  4.51415585918592
 8  7.67156575947595 -1.61054716891689 -0.66229699149915
 8  6.61212536893689 -2.96442723762376 -2.17633408150815
 8 -2.68181908840884  1.60156564566457  1.38234829532953
 7 -0.17294304050405 -2.43209952425243  0.98309315011501
 7 -2.59231126912691 -1.15383051805181 -0.66349849444945
 7  1.16814836423642  0.07337824752475 -0.74370930813081
 7 -0.98936808230823  1.47230263816382 -0.13338423632363
 6 -3.25832098179818 -1.34675223762376  0.57667464136414
 6 -2.65979460556056 -2.48915306150615  1.56775208200820
 6 -1.17960360206021 -2.08604641864186  1.81978996759676
 6 -0.61281108340834 -1.19946113781378  2.74729274977498
 6  0.70463157575758 -1.02579758075808  2.52494368896890
 6  1.01143382958296 -1.75626206090609  1.32568737273727
 6 -4.63854880148015 -1.84356000470047  0.18086497379738
 6  1.79863445484548 -0.31906223582358  3.28897105160516
 6 -4.75252161356136 -2.00836954535454 -1.12685302580258
 6  2.17306526292629 -1.79881807400740  0.49777205590559
 6  2.13479950185019 -0.86963887608761 -0.66231013251325
 6 -3.42775744564456 -1.41243320862086 -1.72367965136514
 6  2.99845090829083 -0.69842059035904 -1.83524742364236
 6 -1.46876544874487 -0.34379823682368  3.69224473277328
 6 -5.78122334643464 -2.05355183548355  1.30496150175018
 6  2.55167482438244  0.56779414761476 -2.49819442944294
 6  1.98200763316332  1.17844353635364  2.80748739033903
 6  1.34754812131213  0.91144779337934 -1.77418352435244
 6  4.20131548064806 -1.51699112821282 -2.08847847794779
 6 -5.89287362346235 -2.46551864226423 -1.89516296449645
 6  5.32338788978898 -1.19904164936494 -1.11237465436544
 6  3.01012110751075  1.05408381098110 -3.72566907610761
 6  0.48506093019302  1.99101424832483 -1.96023776887689
 6  3.05573421372137  1.79600918641864  3.56873221842184
 6 -0.65723955555556  2.37455208740874 -1.19535482338234
 6 -6.86188011451145 -3.33739750385039 -1.69145770447045
 6  6.55564513411341 -1.99904815991599 -1.43742443244324
 6 -1.43814246904690  3.43938617181718 -1.23226130083008
 6 -2.34022811221122  3.34210468946895 -0.19574748094809
 6 -1.99224149654965  2.03051398489849  0.46071500350035
 6 -1.46354633303330  4.42048830903090 -2.34361612961296
 6 -3.46401703820382  4.21846232913291  0.18820306000600
 6 -1.82001589278928  5.70443586178618 -2.21680541334133
 1 -3.29969846304630 -0.49208469836984  1.07139134373437
 1 -2.84417604400440 -3.35348047304730  1.16112646174617
 1 -3.01291111091109 -2.63002644704470  2.55753514221422
 1 -0.24198950375038 -2.83374213931393 -0.06570956095610
 1 -2.12839122882288 -0.36314261776178 -0.89803390579058
 1  1.72371033243324 -0.30726218001800  4.34163626272627
 1  2.72669000190019 -0.82056394769477  3.21473640304030
 1  2.98086690059006 -2.68581016391639  0.39259231243124
 1 -2.19699232853285 -0.85708498249825  4.41774883668367
 1 -0.74075384338434 -0.15465966956696  4.57239359585959
 1 -1.85781509530953  0.54518696539654  3.17234599989999
 1 -5.77393818101810 -1.17127525872587  1.97760205320532
 1 -5.79596835753575 -3.13214731933193  1.79747259355936
 1 -6.77211458825883 -2.01306695009501  0.76568292999300
 1  2.02296843624362  1.36765670757076  1.78632624392439
 1  0.94735468696870  1.54395663996400  3.08707668136814
 1  0.34471272887289  0.35280965076508 -0.30691272357236
 1  4.56059177837784 -1.29541260026003 -3.05894149604960
 1  4.06986781658166 -2.60207198639864 -1.90198730673067
 1 -6.13246538493849 -2.02799372397240 -2.94633809760976
 1  5.13989191049105 -1.53083356325633 -0.08530530683068
 1  5.71896333763376 -0.06511350745074 -1.18115259775978
 1  3.91010092159216  0.43333982608261 -4.17175540504050
 1  3.10986673827383  2.26197727642764 -3.71759409480948
 1  2.19281507080708  0.96152064996500 -4.68571172317232
 1  0.52249615961596  2.62836433293329 -2.81332222422242
 1 -7.08361744784478 -3.99624180808081 -0.83009203040304
 1 -7.58542680758076 -3.81234256475648 -2.46205925942594
 1  3.99590331783178  3.16900626162616  3.95129838403840
 1 -1.18716259505951  3.91841312081208 -3.54696259165917
 1 -4.15456404600460  4.38608519031903 -0.61383253475348
 1 -3.96742549224922  3.65228002160216  1.04613542494249
 1 -3.12055037123712  5.18893918501850  0.52122789268927
 1  8.42644833833383 -2.22008516271627 -0.91214184918492
 1 -1.82735566016602  6.30114057115712 -3.37547239943994
 1 -2.23478583148315  6.35455683148315 -1.14826073357336

