%nproc=4
%Mem=4GB
# td=(NStates=1) B3LYP/SVP 

TD

0 1
 8 -5.36701293129313  0.03097853745375 -3.29831962166217
 8  3.07795780128013  2.96735399009901  3.13358943734373
 8  3.29853820242024  0.67930332933293  2.83860574567457
 8  1.67193483298330 -7.38890516061606  1.22623112941294
 8  0.36766165416542 -6.89374579817982 -0.63590157305731
 8  1.70101714981498  3.95085820862086  0.07148665606561
 7 -2.37933754485449 -0.93668209840984  0.66496351295130
 7 -4.33213809520952  0.46643430993099 -1.28512686748675
 7  1.91540193179318 -0.66641821482148 -0.37903638123812
 7  2.59852539443944  1.85535128062806 -0.48731547824782
 6 -4.79492588378838  1.10023152015202  0.00917671747175
 6 -4.37865525832583  0.26896706200620  1.27911526922692
 6 -2.93386848244824  0.08767902460246  1.39419143214321
 6 -1.87597669436944  0.68996395359536  2.20146331593159
 6 -0.67115372567257  0.06099066356636  1.87423810141014
 6 -0.91954614241424 -1.04354741364136  0.88125994539454
 6 -6.28776113221322  1.40993878317832 -0.20474568996900
 6  0.56915552215222  0.32191286778678  2.59040806090609
 6 -6.66937745224522  0.77900714911491 -1.38344407310731
 6 -0.08991524762476 -1.96161489838984  0.24971705320532
 6  1.17568446464646 -1.76888643524352 -0.21310289248925
 6 -5.43488408870887  0.34541275597560 -2.10844815631563
 6  1.96018010321032 -2.81436197459746 -0.81010802010201
 6 -2.12078777967797  1.85814157105711  3.14590898109811
 6 -7.08540603380338  2.00137826702670  0.92519650555055
 6  3.25477181088109 -2.32092204340434 -1.25772701780178
 6  1.11592762006201  1.70409890329033  2.58235187108711
 6  3.07259533483348 -0.88803742934293 -0.97716170437044
 6  1.45169894009401 -4.27615357975797 -0.97007872477248
 6 -8.03581948794879  0.69076071367137 -2.02887127492749
 6  1.63707127272727 -5.06742767736774  0.35345134063406
 6  4.43412902190219 -2.87514598339834 -1.83407263856386
 6  3.96556742734273  0.08521792529253 -1.32918760116012
 6  2.64181480268027  1.67989557775778  2.89660556045605
 6  3.71262564036404  1.48232364386439 -1.00114668196820
 6 -9.19381436483648  0.70769292959296 -1.37959277457746
 6  1.12343740844084 -6.52883953415342  0.27419607860786
 6  4.52965179977998  2.59677643254325 -1.42215929902990
 6  3.88002727112711  3.78642916661666 -1.12264355865587
 6  2.60075164596460  3.28747659875988 -0.46072483518352
 6  5.96122972827283  2.45804064466447 -2.01227318241824
 6  4.08492411221122  5.13919879567957 -1.30198221162116
 6  6.77655771337134  3.46094177897790 -2.36019049594959
 1 -4.15991047714772  2.29458053815382 -0.02357931763176
 1 -4.93236789368937 -0.70755223132313  1.38610335453545
 1 -4.66631347124712  0.85634963466347  2.19591650135013
 1 -2.99744878477848 -1.44214160966097  0.02339541774177
 1 -3.43625462276228  0.49058097519752 -1.48765631653165
 1  0.60756519121912 -0.21866155415542  3.66424597269727
 1  1.32714672407241 -0.34505917331733  2.24138927172717
 1 -0.38230689158916 -2.93852131713171 -0.09221421912191
 1 -3.19677982328233  1.86398766286629  3.33185317501750
 1 -1.22562377747775  1.68479784368437  3.89156754465447
 1 -1.94386076717672  2.81849566936694  2.54025144694469
 1 -6.40335378627863  2.55276407990799  1.66095832883288
 1 -7.69218898589859  1.19722953215322  1.51629864056406
 1 -7.93402934013401  2.61633771687169  0.35766424662466
 1  1.04856756515652  2.24251628822882  1.60122819011901
 1  0.57957106960696  2.47679450145014  3.09305512971297
 1  1.71419574597460  0.17608825382538 -0.23862922822282
 1  2.04006179837984 -4.90651448184818 -1.84543915361536
 1  0.33877567506751 -3.95917576507651 -1.21142962636264
 1 -8.02861392319232  0.19301953255325 -3.04424036223622
 1  1.11637382628263 -4.82047322702270  1.34424200080008
 1  2.72019828992899 -5.17427463196320  0.60684849974998
 1  4.20363542584258 -3.87358481068107 -2.05036849794979
 1  5.26793789218922 -2.75751460166017 -1.09225284288429
 1  4.47674910801080 -2.16424865746575 -2.76785585918592
 1  5.01587120662066 -0.29601169566957 -1.56383255895590
 1 -9.28627222772277  1.01902935843584 -0.24978766856686
 1 -10.07028516211621  0.44412582828283 -1.85313141314131
 1  4.12881756825683  2.93921730543054  3.20614538023802
 1  6.33642711091109  1.51356350555055 -2.02551136613661
 1  5.16281698149815  5.57178994319432 -1.04632325222522
 1  4.24902692519252  5.48793555925593 -2.42219476437644
 1  3.23924159375938  5.68778838523852 -0.78396013761376
 1  1.26125343344334 -8.28558971607161  1.19427548244825
 1  7.71482392679268  3.04786032593259 -2.94966223952395
 1  6.52211409890989  4.50841635383538 -2.24106645914591

