%nproc=4
%Mem=4GB
# td=(NStates=1) B3LYP/SVP 

TD

0 1
 8 -5.44917114711471  0.05949138873887 -3.28554834453445
 8  3.06548655415542  3.02705996069607  3.27185326372637
 8  3.46322467106711  0.88738413741374  3.10476236133613
 8  1.57886552605260 -7.04067033713371  1.58872737903790
 8  0.61664655265527 -7.04980140374037 -0.44521250415041
 8  1.74362141024102  3.95915903870387  0.11098060546055
 7 -2.38298790989099 -0.86448487868787  0.57997501410141
 7 -4.45040992239224  0.57739540604060 -1.20070842564256
 7  1.80622101370137 -0.69570114311431 -0.55429390699070
 7  2.54022956485649  1.81713745924592 -0.50196694339434
 6 -4.85011140234023  1.20460195719572  0.01639743954395
 6 -4.31644903770377  0.32709287458746  1.27217457515752
 6 -2.92122721832183  0.04764502120212  1.32084409740974
 6 -1.91414051075107  0.71553651085109  2.07179034863486
 6 -0.73749035933593  0.01919648414841  1.87547822542254
 6 -0.97970215801580 -0.95387844674467  0.78058987838784
 6 -6.25724808090809  1.24497228652865 -0.13462867826783
 6  0.55597420402040  0.23581425792579  2.56615563566357
 6 -6.68879939443944  0.77383663206321 -1.41865759445945
 6 -0.15007126322632 -1.99101783868387  0.15057713921392
 6  1.17650454665467 -1.88149769636964 -0.42907448964897
 6 -5.46994759505951  0.44303251795180 -2.13853116461646
 6  1.91689577477748 -2.99237977637764 -1.03340034933493
 6 -2.24041974287429  1.75037079397940  3.02548693889389
 6 -7.08295578877888  1.88383651285129  0.87063104900490
 6  3.13557989168917 -2.35568551975198 -1.53367461256126
 6  1.08106413371337  1.70419891329133  2.62277591349135
 6  3.04217229252925 -0.91974059965997 -1.17848183638364
 6  1.56705047524752 -4.37515347974797 -1.03148486538654
 6 -8.12382828882888  0.55576721432143 -1.96305469326933
 6  1.69630719631963 -5.06634756935694  0.38250424592459
 6  4.21689729872987 -2.91614008280828 -2.28134736603660
 6  3.93527439803980  0.08839824332433 -1.50003468586859
 6  2.61213183438344  1.73366095429543  3.01377727762776
 6  3.75640001780178  1.47222263376338 -1.02713928122812
 6 -9.23326831023102  0.65047720802080 -1.38965378067807
 6  1.14287935263526 -6.37687433763376  0.33435209420942
 6  4.69858869346935  2.56531328622862 -1.32594967806781
 6  4.09066833523352  3.72446296999700 -0.82171346564656
 6  2.73760533133313  3.29905775687569 -0.34610337303730
 6  5.95634924022402  2.42705754635464 -2.00844279937994
 6  4.39406502630263  5.23698857465747 -1.04903691709171
 6  6.73879393699370  3.39562524732473 -2.44752922982298
 1 -4.32808729482948  2.21301238133813  0.02169520982098
 1 -4.97808246514651 -0.45366684278428  1.57542228642864
 1 -4.60568740864086  0.82684668436844  2.09446635633563
 1 -2.77062610251025 -1.44960235573557 -0.06349327112711
 1 -3.46558755605561  0.57382930003000 -1.67201475237524
 1  0.76470090479048 -0.27826751475148  3.58871841994199
 1  1.45390940034003 -0.41706637403740  2.16250138293829
 1 -0.62428108900890 -2.94477194219422  0.14764976727673
 1 -3.29407955325533  1.64794605870587  3.23232322202220
 1 -1.71972318741874  1.58143750765076  3.89889827772777
 1 -1.89046542764276  2.83152697249725  2.85942336413641
 1 -6.39321277217722  2.81439024252425  1.33561579457946
 1 -7.36921668866887  1.21879168836884  1.85467247794779
 1 -7.95983192039204  2.16072215531553  0.50990947114711
 1  1.21433414181418  2.22947498409841  1.72321038833883
 1  0.76190930343034  2.31884870687069  3.32021784598460
 1  1.45584991139114  0.18270891589159 -0.22453781908191
 1  2.32905069726973 -4.83434726512651 -1.81291590129013
 1  0.59786158365837 -4.56343619111911 -1.47304578797880
 1 -7.86614767656766  0.39839006960696 -2.92579851805180
 1  1.26156834573457 -4.50989216891689  1.27193477007701
 1  2.72031830193019 -5.16637384188419  0.53630144504450
 1  4.17917297959796 -4.03007045924593 -2.17501096219622
 1  5.19876097449745 -2.68878772897290 -1.75647926552655
 1  4.33888532163216 -2.71580381298130 -3.24499357295730
 1  4.92574219371937 -0.32912500700070 -1.99501567726773
 1 -9.42372597309731  0.65983343884388 -0.21797448724872
 1 -10.15750388398840  0.60333174887489 -1.95446154615462
 1  4.12002668916892  3.16408979267927  3.35054982068207
 1  6.12915638383838  1.34565671487149 -2.18667748274828
 1  5.33134383418342  5.29827259145915 -0.57022564246425
 1  4.65989801230123  5.50208697439744 -2.18809135403540
 1  3.60481815141514  6.17159676607661 -0.71525326692669
 1  1.16596390449045 -8.01178233533353  1.73288934383438
 1  7.62870531493149  3.04598013791379 -2.97906517981798
 1  6.20656254375437  4.34898041024102 -2.35351770427043

