%nproc=4
%Mem=3GB
# td=(NStates=1) B3LYP/SVP 

TD

0 1
 8 -3.45561247144714 -1.07132218771877 -2.80214086838684
 8  2.96035649044904  3.07265892439244  3.15732000290029
 8  3.73472778097810  1.38026515481548  4.25952039563956
 8  7.89470807370737 -1.29252536673667 -0.89446020782078
 8  6.56095025142514 -3.11682247714771 -1.72749919801980
 8 -2.64508541504150  1.64608009710971  1.29116917741774
 7 -0.18819456565657 -2.44906122042204  0.84084892569257
 7 -2.78818085608561 -1.10096523152315 -0.51195333993399
 7  1.19465101450145  0.13180409010901 -0.77033197039704
 7 -0.96661580708071  1.45072047994799 -0.34775567346735
 6 -3.43440859055906 -1.39351691409141  0.66012298619862
 6 -2.62005063116312 -2.43883803000300  1.52753806060606
 6 -1.24683032473247 -2.11245905990599  1.65140312891289
 6 -0.53049285158516 -1.28640983268327  2.67316533703370
 6  0.77406851945195 -1.11168616961696  2.47962915751575
 6  0.97378006420642 -1.88525496019602  1.27242204620462
 6 -4.75099004560456 -1.92936858555856  0.27757464476448
 6  1.78675326672667 -0.38961929152915  3.23119527402740
 6 -4.89565592699270 -1.94513322172217 -0.99080942144214
 6  2.08089604600460 -1.94807299949995  0.35555783448345
 6  2.07776379827983 -0.92405431763176 -0.56109001050105
 6 -3.66434110401040 -1.35267723302330 -1.61808909230923
 6  2.95887695089509 -0.79152990129013 -1.77075097399740
 6 -1.30907948014801 -0.60900475747575  3.90333584188419
 6 -5.63032825692569 -2.42963944424442  1.46834784038404
 6  2.67565722262226  0.36770413861386 -2.42886749674967
 6  1.82430186258626  1.09340503250325  2.91580822242224
 6  1.42473584008401  0.88447509610961 -1.85943204920492
 6  4.24259960906091 -1.47901733083308 -2.04244387448745
 6 -5.95326966306631 -2.42314440484048 -1.94696814501450
 6  5.43444899589959 -1.01098284348435 -1.18272168906891
 6  3.19630972637264  1.12181058365837 -3.73314982418242
 6  0.58826125022502  1.99518466536654 -2.03482522762276
 6  2.94585322562256  1.81496108160816  3.54566991219122
 6 -0.54379821142114  2.30248488068807 -1.28862415031503
 6 -6.96040996749675 -3.23146691079108 -1.67709626832683
 6  6.60724029362936 -1.85831408650865 -1.35682637263726
 6 -1.34431308610861  3.50348258145815 -1.14058213291329
 6 -2.25975006440644  3.42702318131813 -0.25975388158816
 6 -1.92350462286229  2.12495342884288  0.38271720372037
 6 -1.20563054145415  4.47636389658966 -2.26040780878088
 6 -3.31471210771077  4.31993247614761  0.19323356305631
 6 -1.83683757495750  5.67958337653765 -2.37323105590559
 1 -3.63369186238624 -0.45045053495350  1.30373457805781
 1 -2.86476810321032 -3.44482960796080  0.97100744984498
 1 -3.16693651345134 -2.33735718011801  2.48021741044104
 1 -0.15185048984898 -2.93713247834783 -0.16510950095009
 1 -1.92933132283228 -0.41989829332933 -0.61499560196020
 1  1.72627058845885 -0.58348980278028  4.18052015111511
 1  2.71673900680068 -0.79278116941694  2.88821375077508
 1  3.04592340624062 -2.52821440434043  0.32637569076908
 1 -2.07397002630263 -1.27953722772277  4.22628969076908
 1 -0.78855862386239 -0.45140934453445  4.79932628912891
 1 -1.67290660446045  0.36832927962796  3.57432619791979
 1 -5.39812059925993 -2.03658178937894  2.51877617061706
 1 -5.60748950965096 -3.50074417901790  1.73093593989399
 1 -6.74323169997000 -1.95362100550055  1.33610997269727
 1  1.68695483488349  1.38192813471347  1.77624523582358
 1  0.89967991949195  1.72821506580658  3.42958093179318
 1  0.29116737433743  0.22003637343734 -0.29387141944194
 1  4.61123684288429 -1.39122218121812 -3.11084668656866
 1  4.19743057285728 -2.45712749194919 -1.74129123712371
 1 -5.74964710311031 -2.12987391199120 -3.15256872067207
 1  4.95751367266727 -1.26953743364336 -0.14813158945895
 1  5.52795423672367  0.22016502040204 -1.07882236473647
 1  4.02172208370837  0.83867035913591 -4.17332556205621
 1  3.38469422102210  2.23511459015902 -3.35208754415442
 1  2.46646243554355  0.89541403930393 -4.56433958595859
 1  0.92643655365537  2.70959245574557 -2.82593348534854
 1 -7.04026311241124 -3.56305848974898 -0.54897391859186
 1 -7.66874513941394 -3.56153748424842 -2.38059111261126
 1  3.59950367786779  3.47812717371737  3.63272652685269
 1 -0.68451233003300  4.28558983848385 -2.96336423182318
 1 -4.14605319491949  4.63152973477348 -0.48845999749975
 1 -4.08076682638264  3.65354014761476  0.79703051445145
 1 -3.04763307950795  5.23550384148415  0.58957472737274
 1  8.33967966146615 -2.26419957415742 -1.02452308730873
 1 -1.74401732633263  6.33846430353035 -3.29634448664866
 1 -2.66236858975898  5.83701507730773 -1.51895780328033

