%nproc=4
%Mem=3GB
# td=(NStates=1) B3LYP/SVP 

TD

0 1
 8 -3.22156906710671 -1.31178623412341 -2.89414006830683
 8  2.79414986978698  3.26148780728073  3.12748701960196
 8  3.78786309450945  1.52513964226423  4.28886332993299
 8  7.70857946084608 -1.91836795099510 -0.85333609540954
 8  6.46856101250125 -3.43755455035504 -1.93235968406841
 8 -2.71955286178618  1.62883837293729  1.45713577407741
 7 -0.15216096229623 -2.46350266456646  0.92045688648865
 7 -2.67574961296130 -1.19313444844484 -0.56769891449145
 7  1.20549209860986  0.23970488018802 -0.63768870607061
 7 -1.01949109460946  1.51254666256626 -0.18717961586159
 6 -3.34140929062906 -1.32116967936794  0.57109408330833
 6 -2.58675730183018 -2.39085323152315  1.63376868366837
 6 -1.12401804350435 -2.02988080208021  1.77387537613761
 6 -0.53943374567457 -1.27325851755176  2.78884690519052
 6  0.82258337093709 -1.07950295129513  2.49786098069807
 6  0.96821950815082 -1.83879031373137  1.28854365836584
 6 -4.71159610621062 -1.93381903060306  0.17384427172717
 6  1.84866945834583 -0.36561689128913  3.20467262176218
 6 -4.64825118651865 -2.07970667906791 -1.17326766726673
 6  2.06645460186019 -1.77824601680168  0.34264654335434
 6  2.12435845774577 -0.77515942814281 -0.67289119061906
 6 -3.49599426932693 -1.54315628092809 -1.69643692709271
 6  3.05080614381438 -0.56044679297930 -1.77407130603060
 6 -1.34995356755676 -0.51344520152015  3.91215672397240
 6 -5.75602082618262 -2.13999047934793  1.16851785738574
 6  2.49335899279928  0.52831019921992 -2.42374698469847
 6  1.96644607700770  1.18417410941094  2.78005464706471
 6  1.46179954645465  1.02832948154815 -1.73152925892589
 6  4.23619896899690 -1.50399982908291 -2.15268489858986
 6 -5.76957129322932 -2.57546963736374 -2.00401384958496
 6  5.48993454445445 -1.21795354055406 -1.24659807670767
 6  3.28487858325833  1.25808421102110 -3.54616112531253
 6  0.48129055315532  2.09326447334733 -2.02599434453445
 6  2.96326496679668  1.91393097859786  3.44841018621862
 6 -0.63346717831783  2.35355998819882 -1.16200148804881
 6 -6.84813874037404 -3.33583734783478 -1.77230578927893
 6  6.56083565316532 -2.28242649774978 -1.40294098409841
 6 -1.48473712851285  3.58349058225823 -1.19923799849985
 6 -2.34761885128513  3.43566404540454 -0.15114302050205
 6 -2.04692696509651  2.14279521302130  0.51741067306731
 6 -1.33951392979298  4.59347560776078 -2.15362713071307
 6 -3.35368600510051  4.30459094199420  0.37994223392339
 6 -2.23580747194719  5.65502092029203 -2.32285601840184
 1 -3.19166765996600 -0.41211670157016  1.19858406300630
 1 -2.59863148954896 -3.31417654265426  1.15503585268527
 1 -3.04272409220922 -2.41958540294029  2.50870025872587
 1 -0.20482578737874 -2.91646041114111 -0.03306629662966
 1 -2.05747413711371 -0.45960226372637 -0.63991809420942
 1  1.93173113451345 -0.28997045084509  4.34407650675067
 1  2.83700103300330 -0.83495538683868  2.81620655005501
 1  2.98780759465947 -2.58275985888589  0.47185023822382
 1 -2.20573320262026 -1.14629390339034  4.17195425722572
 1 -0.64654442244224 -0.23547775137514  4.63306966346635
 1 -1.58997831163116  0.46325877257726  3.54434319961996
 1 -5.45110589778978 -1.76172430363036  2.34914920792079
 1 -6.32771153185319 -3.12109621422142  1.54608745504550
 1 -6.69231660846085 -1.62698834223422  0.88778514021402
 1  1.97145328472847  1.40847078897890  1.68085569686969
 1  0.98424837633763  1.78069031333133  3.13767174087409
 1  0.35523378097810  0.29904427422742 -0.13256528882888
 1  4.41771749094910 -1.22608566756676 -3.08630423232323
 1  4.03329415921592 -2.48535031423142 -1.96802391039104
 1 -5.62206434483448 -2.17978890349035 -2.91680514431443
 1  5.33529145044504 -1.04661514141414 -0.06234301060106
 1  5.96401784308431 -0.28480547664766 -1.52356683918392
 1  3.82192210371037  0.42353884598460 -3.88157638713871
 1  3.89827557915792  2.04445552425243 -3.28004033943394
 1  2.55702149144914  1.56080057795780 -4.31429458145815
 1  0.62518642864286  2.78712020852085 -3.02976386838684
 1 -6.96522560866087 -3.81987417131713 -0.89268829002900
 1 -7.27655592049205 -3.55014634513451 -2.67066011951195
 1  3.39707343484348  3.73393275427543  3.83839709390939
 1 -0.29786366516652  4.41409268876888 -2.62224011941194
 1 -4.23000158975898  4.66101268306831 -0.30114126562656
 1 -3.87473622332233  3.89171396499650  1.22194300570057
 1 -2.79561787798780  5.13428371947195  0.63571934183418
 1  8.47363305680568 -2.45536869106911 -1.15715635063506
 1 -2.04947787238724  6.46464692179218 -3.01995684788479
 1 -3.23229558245825  5.55030640644064 -1.85209111661166

