%nproc=4
%Mem=4GB
# td=(NStates=1) B3LYP/SVP 

TD

0 1
 8 -5.15875210521052  0.08109354895490 -3.33222301200120
 8  3.11480148564857  2.71208846354635  3.47409348774877
 8  3.32735108370837  0.53877927692769  2.90291217631763
 8  1.24619225872587 -7.03637990809081  1.56277478377838
 8  0.90437532553255 -7.09869629322932 -0.66126410931093
 8  1.71642869096910  3.93874699749975  0.13358286568657
 7 -2.37859747084708 -0.94482291249125  0.64960197679768
 7 -4.24361924332433  0.66096376287629 -1.27952630743074
 7  1.79407979957996 -0.68905047804780 -0.54827330493049
 7  2.60115565746575  1.86457220272027 -0.52308905560556
 6 -4.75853224442444  1.17715921292129 -0.00518471867187
 6 -4.32946033883388  0.31898206350635  1.21938929662966
 6 -2.91818691429143  0.05555581228123  1.35501751475147
 6 -1.90393949064906  0.66287124432443  2.20447361696170
 6 -0.72683929422942  0.04082864736474  1.87390806840684
 6 -0.98610279807981 -0.97589064796480  0.86634845424542
 6 -6.21018337443744  1.30906869616962 -0.11985720112011
 6  0.55511411801180  0.22788346484648  2.66124514461446
 6 -6.50360087458746  0.85277452585258 -1.38020374907491
 6 -0.09925618171817 -1.93580231713171  0.20844292579258
 6  1.13140003620362 -1.84544409100910 -0.24671625382538
 6 -5.27390799109911  0.51964017871787 -2.11938925042504
 6  1.87580166536654 -2.83796433483348 -0.85811282058206
 6 -2.17870357125713  1.83555931283128  3.27429181938194
 6 -7.14846233943394  1.83929205840584  0.98472245814581
 6  3.14021035473547 -2.37272722392239 -1.21955320042004
 6  1.14746077337734  1.62270076347635  2.62557619351935
 6  3.03474154945495 -0.92274089968997 -0.99223321152115
 6  1.43684745494549 -4.41598756315632 -0.87589930683068
 6 -7.75588149414942  0.69164080168017 -2.11322971077108
 6  1.74399196479648 -5.06788772337234  0.40542653815382
 6  4.26116172517252 -3.02058052685269 -1.94839407070707
 6  3.89784065466547  0.09274867836784 -1.37830251265127
 6  2.56600722192219  1.55761334953495  3.03555945584558
 6  3.66374075187519  1.49788520002000 -1.11273784108411
 6 -9.01360634403440  0.73376553685369 -1.50451526682668
 6  1.19777484218422 -6.39509615981598  0.41260991999200
 6  4.45384421902190  2.71477823272327 -1.64845192829283
 6  3.77946721512151  3.83089361306131 -1.19803109740974
 6  2.53170474127413  3.22988083918392 -0.44967373007301
 6  5.70120372567257  2.62887772837284 -2.33332528762876
 6  4.14549016881688  5.23673854965497 -1.19462147554755
 6  6.58040809840984  3.61843752855286 -2.74926940384038
 1 -4.23885837193719  2.19333041314131  0.32813585388539
 1 -4.81952660956096 -0.69062053815382  1.22984772897290
 1 -4.87214405430543  0.81208520822082  2.28919582928293
 1 -2.89176821672167 -1.21507890339034 -0.13887080888089
 1 -3.23553455075508  0.91437335443544 -1.48172572347235
 1  0.46498093279328 -0.06141582958296  3.82591213931393
 1  1.39748375777578 -0.43588825622562  2.53612874567457
 1 -0.72290095099510 -2.62387985298530 -0.04782978067807
 1 -3.38607875317532  1.77314857895790  3.41693168286829
 1 -1.67118833393339  1.51000036393639  4.20437882578258
 1 -2.03361974307431  2.89731355115511  2.94591201300130
 1 -6.42892634353435  2.35363416691669  1.66095832883288
 1 -7.70911067806781  0.99604941414141  1.52745975667567
 1 -7.78050398759876  2.53347943104310  0.51186966716672
 1  1.24303701210121  2.11539357595760  1.73859192649265
 1  0.66280939343934  2.45015183718372  3.30940676487649
 1  1.75851017741774  0.37586823182318 -0.36982234753475
 1  2.01609940214021 -4.95880971137114 -1.64256886658666
 1  0.55948774627463 -4.28345819331933 -1.18181666506651
 1 -7.61740280208021  0.46753698429843 -3.18990492869287
 1  1.38067025592559 -4.71484266396640  1.24647222382238
 1  2.87310358045805 -5.34246145064506  0.57916573147315
 1  4.18496355865587 -4.26134358655866 -2.18634209530953
 1  5.22419351775178 -3.01550040024002 -1.45825944354435
 1  4.19453088618862 -2.52539477207721 -3.13311238483848
 1  4.88415803530353 -0.16465856035604 -1.88309448514852
 1 -8.98467206770677  0.69294675017502 -0.44443713351335
 1 -9.93508164176418  0.83086450215022 -2.10463656365637
 1  4.05214990149015  2.51595497919792  3.68554332003200
 1  5.97572104030403  1.58651080028003 -2.52345116011601
 1  5.01751245104510  5.39382214641464 -0.40473909380938
 1  4.24610663316332  5.67436420212021 -2.23168571347135
 1  3.32451012061206  5.76980658705871 -0.59625136673667
 1  0.75287259535954 -7.91438259535954  1.34519057395740
 1  7.71135357975798  3.29441498139814 -3.19889716301630
 1  6.46214810231023  4.69750526272627 -2.59865221772177

