%nproc=4
%Mem=4GB
# td=(NStates=1) B3LYP/SVP 

TD

0 1
 8 -5.35192142214221  0.14355979557956 -3.26075586528653
 8  3.08987899339934  2.78619587428743  3.31122720112011
 8  3.37597594619462  0.64397979697970  3.22382426752675
 8  1.47716535603560 -7.18390466056606  1.57334584088409
 8  1.01198608660866 -7.11519794339434 -0.66997498039804
 8  1.58772582068207  4.01393451625163 -0.08676916951695
 7 -2.37279689078908 -0.88772720292029  0.54932194879488
 7 -4.46808168956896  0.55685335183518 -1.22529088388839
 7  1.84137452905291 -0.73834540754075 -0.40716919451945
 7  2.54759030093009  1.90385613111311 -0.44690143684368
 6 -4.77413380458046  1.16337783478348  0.00040584038404
 6 -4.44884227702770  0.31992215751575  1.23008036573657
 6 -2.97924301990199  0.08181843854385  1.32931494449445
 6 -1.95836493319332  0.63403836103610  2.03924709430943
 6 -0.69079568986899  0.00042460696070  1.73774445204520
 6 -1.01630581838184 -0.87866092499250  0.79014083348335
 6 -6.23739609570957  1.35485327462746 -0.06167138253825
 6  0.68595720232023  0.25888656515652  2.49960898099810
 6 -6.63224373887389  0.90609985838584 -1.29630535923592
 6 -0.16104236033603 -1.90449918681868  0.16789887138714
 6  1.11835873207321 -1.85408495509551 -0.35821740394039
 6 -5.53307390769077  0.48329654435444 -2.06180349184918
 6  2.01187527272727 -2.92165270367037 -0.81894890419042
 6 -2.10668636953695  1.87659341624162  2.94987937813781
 6 -7.08660615381538  1.96680480968097  1.00240422632263
 6  3.16802313601360 -2.35590554175418 -1.29564080918092
 6  1.24827085438544  1.60844933833383  2.42649628552855
 6  3.08076615191519 -0.90891951755176 -1.05725971417142
 6  1.66451022122212 -4.31641760616062 -1.04348606550655
 6 -8.03119902590259  0.73361499909991 -1.91037942574257
 6  1.75628319391939 -5.09118005260526  0.42603859935994
 6  4.29972558155816 -3.05733420222022 -1.93581281258126
 6  3.96796766736674  0.11628103160316 -1.26707138953895
 6  2.62950357155716  1.56129371757176  3.00302620252025
 6  3.65191956975698  1.54445985748575 -1.03884045134513
 6 -9.29404438783878  0.87470963126313 -1.44505932123212
 6  1.36759182388239 -6.54627127732773  0.32099075807581
 6  4.48200703530353  2.56390314521452 -1.42754983808381
 6  3.79049831823182  3.68501902560256 -1.07833912821282
 6  2.47342891369137  3.26759461056106 -0.48263702640264
 6  5.86908051335134  2.44283912451245 -1.99912186728673
 6  4.14612023182318  5.21907678347835 -1.24163617701770
 6  6.76886694429443  3.38202388718872 -2.44362883978398
 1 -4.11547603370337  2.30382146224622  0.11156419671967
 1 -5.20462511941194 -0.68631010711071  1.19770451465146
 1 -4.66964380428043  1.09118311801180  2.05712262196220
 1 -2.89041808170817 -1.39326672217222 -0.25403232503250
 1 -3.55393639093909  0.73448536563656 -1.58591614251425
 1  0.57468190289029 -0.17238692669267  3.49188873697370
 1  1.46495050445045 -0.49955462286229  2.05341047384739
 1 -0.60803946484648 -2.96974443944394  0.13645864816482
 1 -3.10864100940094  1.96858812291229  3.17302729242924
 1 -1.52597381248125  1.74327369126913  3.74609299719972
 1 -1.92246862796280  2.80326414621462  2.45884330613061
 1 -6.44954840574057  2.72025082858286  1.63692592559256
 1 -7.44858462546255  1.12387219641964  1.72398940964096
 1 -7.96261219841984  2.66644272737274  0.64645312551255
 1  1.20413312171217  1.95451748834883  1.40394846214621
 1  0.63336644914491  2.49195601760176  2.94876070027003
 1  1.31715604200420  0.33945459045905 -0.47698306360636
 1  2.30514830703070 -4.55734956535654 -1.78391300100010
 1  0.56321811931193 -4.50107995549555 -1.23265174857486
 1 -7.89161022282228  0.28121835243524 -2.96821275947595
 1  1.04946713561356 -4.55942712241224  1.04877245384538
 1  2.88783505360536 -4.87532473697370  0.92017983288329
 1  3.96915197749775 -4.03098055025503 -2.41501496259626
 1  5.06608770717072 -3.21670052025202 -1.12831644924492
 1  4.96092752585259 -2.26544877747775 -2.72860193379338
 1  4.98292791229123 -0.04950704520452 -1.84928110381038
 1 -9.71191479197920  1.16082353785379 -0.48856154595460
 1 -10.02040017361736  0.69155057075708 -2.24524062406241
 1  3.96860154665467  2.88945232893289  3.88151291699170
 1  6.19128259645965  1.35541769096910 -2.11283009800980
 1  4.98938963876388  5.39557232143214 -0.76480510041004
 1  4.32631465396540  5.32981974767477 -2.25497804270427
 1  3.16191386098610  5.81771137753775 -0.79112085368537
 1  1.47130443854385 -8.23319447654765  1.40936699159916
 1  7.79717216161616  3.23896943684368 -2.81035830913091
 1  6.42323421092109  4.60707621982198 -2.61921427392739

