%nproc=4
%Mem=4GB
# td=(NStates=1) B3LYP/SVP 

TD

0 1
 8 -5.29545577557756  0.28090352995300 -3.25317510721072
 8  2.98479848534854  2.74243149784978  3.04989106750675
 8  3.34449279787979  0.57129252825283  2.87472935803580
 8  1.58811645114511 -7.02732900300030  1.62432093839384
 8  0.67095198319832 -7.02682910651065 -0.44935291819182
 8  1.64091113921392  3.94322744554455 -0.05023551615162
 7 -2.27133674477448 -1.00397882808281  0.47967498409841
 7 -4.33852873427343  0.59232689918992 -1.23836219101910
 7  1.81675206680668 -0.71489306230623 -0.48998747634763
 7  2.58230377227723  1.89873561906191 -0.48989573627363
 6 -4.73422981418142  1.10937243424342  0.03985978577858
 6 -4.39810720352035  0.17268743404340  1.31330868856886
 6 -2.94427952355236 -0.02997274057406  1.34682669566957
 6 -1.96387548424842  0.55384034123412  2.17306047564756
 6 -0.62168877917792  0.01056562106211  1.74341501910191
 6 -1.01954614241424 -0.95569862876288  0.80852267166717
 6 -6.23261561766177  1.41698948824882 -0.14317953335334
 6  0.56435504210421  0.06153683018302  2.57167618771877
 6 -6.61255176967697  0.97895714411441 -1.30275600430043
 6 -0.17107336343634 -1.98685742264226  0.13323540504050
 6  1.17950484668467 -1.90188973557356 -0.38105968816882
 6 -5.41294189448945  0.61702991769177 -2.08886619811981
 6  2.04141822702270 -2.95911645004500 -0.81697870717072
 6 -2.24453015391539  1.69838559545955  3.15697008720872
 6 -7.03558105130513  1.95868399759976  0.91954594049405
 6  3.16475280898090 -2.28509846104610 -1.27546879197920
 6  1.09846587388739  1.44788328172817  2.69933356925693
 6  3.10524860016002 -0.94049267486749 -0.99287327552755
 6  1.65646941714171 -4.43424938933893 -0.88215993289329
 6 -7.93918982498250  0.87854949254925 -2.00236862466247
 6  1.80140770637064 -5.04578551315132  0.46052204770477
 6  4.36182179117912 -2.95278374717472 -1.81093032433243
 6  4.04192506310631  0.12566196969697 -1.28396307870787
 6  2.59452007320732  1.45340292849285  2.93159905980598
 6  3.70185456325633  1.55698110961096 -1.04790135743574
 6 -9.16921190459046  0.91633379367937 -1.48151296659666
 6  1.32722778747875 -6.46591324152415  0.41404006300630
 6  4.47932676727673  2.65215197009701 -1.55374245734573
 6  3.78363763216322  3.81272179587959 -1.11875316961696
 6  2.52209378017802  3.29000685178518 -0.47454621732173
 6  5.76552015731573  2.61432627322732 -2.16786874197420
 6  4.18200382018202  5.22846772257226 -1.11415342874287
 6  6.54467452505251  3.60081576637664 -2.66966144304430
 1 -3.90510499659966  2.08167924802480  0.01457449774978
 1 -4.91073573047305 -0.79358083418342  1.13173791799180
 1 -4.66061290119012  0.61803580328033  2.25550245994599
 1 -2.66745578547855 -1.51943933943394 -0.20291721352135
 1 -3.43566456375637  0.48547046414641 -1.54517206810681
 1  0.06806124082408 -0.27680736873687  3.50318986708671
 1  1.27191120052005 -0.73206787418742  2.17155228802880
 1 -0.66745540644064 -2.98954641964196 -0.16390138783878
 1 -3.35476562186219  1.63004426852685  3.23150314001400
 1 -1.56971818691869  1.55147451135113  4.05115350325033
 1 -2.04817119821982  2.50571439123912  2.65402282408241
 1 -6.51182463336334  2.57580638413841  1.67828006100610
 1 -7.54082384938494  1.23382319151915  1.59539655035504
 1 -7.88125406260626  2.47616369946995  0.50848932913291
 1  0.87077978637864  2.13211524812481  1.92609067636764
 1  0.43105621812181  2.23867068906891  3.40830665486549
 1  1.43840816721672  0.40291093609361 -0.02041740704070
 1  2.27849564176418 -4.94263809420942 -1.67080168986899
 1  0.50193199069907 -4.48469831733173 -1.33828231163116
 1 -7.70925198699870  0.87606783738374 -3.09760569876988
 1  1.13417560646065 -4.52506368606861  1.33071064766477
 1  2.90575684578458 -5.26688389288929  0.76628444334433
 1  3.86967202950295 -3.92921037323732 -2.04601806290629
 1  5.29399049744974 -3.10602945314531 -1.03394701230123
 1  4.85168660176018 -2.60512274487449 -2.68798787238724
 1  4.92169178867887 -0.20928302280228 -1.71893806950695
 1 -9.36150975147515  0.99976743224322 -0.45582827262726
 1 -10.18082621622162  1.12787420312031 -2.17746384638464
 1  3.85261994849485  2.77755113881388  3.22933769946995
 1  6.16557002520252  1.56683883308331 -2.30572938793879
 1  4.88719941974197  5.35362812701270 -0.37006562646265
 1  4.51842386488649  5.69299606530653 -2.03867641254125
 1  3.38322599219922  5.88082768916892 -0.67029877147715
 1  1.29984729282928 -7.97938909600960  1.62697875277528
 1  7.54035648004801  3.50066560646065 -3.32442971627163
 1  6.47324921242124  4.79596510871087 -2.50995334783478

