%nproc=4
%Mem=3GB
# td=(NStates=1) B3LYP/SVP 

TD

0 1
 8 -3.32795970617062 -1.48674372987299 -2.92827348164816
 8  3.22250270507051  3.05886754525453  3.11024529542954
 8  3.61330563876388  1.30342747104710  4.56668111171117
 8  7.69624822772277 -1.56053216741674 -0.78500926272627
 8  6.60066422282228 -2.90265106000600 -2.16404285238524
 8 -2.59656056255626  1.68538402750275  1.47328738923892
 7 -0.25814156035604 -2.45124143844384  1.02603744454445
 7 -2.65227726572657 -1.27854298929893 -0.70226237083708
 7  1.11672322172217  0.14704561426143 -0.76700163736374
 7 -1.01608075357536  1.40907631553155 -0.26733763166317
 6 -3.39765491519152 -1.37345490789079  0.63758073197320
 6 -2.60833946004600 -2.28740288648865  1.56095140194019
 6 -1.27439308100810 -1.99794760876088  1.81887987658766
 6 -0.56654645694569 -1.12714390609061  2.89398741924192
 6  0.76671778437844 -1.19452445344534  2.45811700630063
 6  0.91382406860686 -1.79512594729473  1.26830163416342
 6 -4.76917186378638 -1.91969761846185  0.27794468176818
 6  1.82086667806781 -0.47232756235624  3.22311446594659
 6 -4.87870423182318 -2.06987569596960 -1.04616495699570
 6  2.07480543694369 -1.79475766796680  0.30099237793779
 6  2.07067308920892 -0.84853676587659 -0.71657555905591
 6 -3.54017868776878 -1.64816678197820 -1.76390367376738
 6  3.08638970217022 -0.55721646994699 -1.76394029292929
 6 -1.28589716191619 -0.44117797479748  3.87138264656466
 6 -5.81282650675068 -2.16404288458846  1.30904190979098
 6  2.59835949284928  0.51484885308531 -2.44592920292029
 6  1.92007143954395  1.00213590559056  2.87465410701070
 6  1.42748611511151  1.00006665526553 -1.82324843084308
 6  4.21099644874487 -1.50823025212521 -1.95287491759176
 6 -5.91384572067207 -2.56318840924092 -1.93296674487449
 6  5.38972452345234 -1.07958970417042 -1.09569298619862
 6  3.15101519691969  1.07915631823182 -3.63710021922192
 6  0.46870929502950  2.03302844974497 -2.06938868396840
 6  3.08444708500850  1.79206879237924  3.61817716291629
 6 -0.62092592419242  2.28369300150015 -1.29502479037904
 6 -6.93482740924092 -3.31880564466447 -1.69259781848185
 6  6.60151972157216 -1.88784703980398 -1.41571226122612
 6 -1.36003465826583  3.54992722592259 -1.28055613031303
 6 -2.24807889728973  3.49150962996300 -0.17829573577358
 6 -2.01948422082208  2.07411834533453  0.45765469746975
 6 -1.21412139053905  4.54503076327633 -2.29572134013401
 6 -3.20711134763476  4.36219670257026  0.28311255095510
 6 -1.93784767596760  5.80114553275328 -2.41123485628563
 1 -3.41468996219622 -0.32210770067007  1.10263446804680
 1 -2.85172679907991 -3.27362248724872  1.51667201630163
 1 -3.08867868766877 -2.42269571397140  2.69127851655166
 1 -0.60447575237524 -2.90560932603260  0.12828983898390
 1 -1.85196358605861 -0.37210351385138 -0.81644574697470
 1  1.83791175257526 -0.52603405720572  4.41426352545254
 1  2.85281261416142 -0.76938883018302  3.12457738713871
 1  2.73006182008201 -2.62963454635464  0.40822387558756
 1 -2.07005963526353 -1.29320859485949  4.09616667846785
 1 -0.71974174217422  0.00807660406041  4.72539889638964
 1 -2.10645995979598  0.19264171087109  3.51215998129813
 1 -5.93500428762876 -1.36501463266327  2.07055134813481
 1 -5.65042380308031 -3.15206931153115  1.79569241554155
 1 -6.75483286008601 -2.07840348374838  0.77911427312731
 1  1.86666280568057  1.09666960886089  1.85142275357536
 1  0.81934188568857  1.44686693099310  2.96967494119412
 1  0.43339159675968  0.33298766856686  0.08826679437944
 1  4.49319503870387 -1.37537059605961 -3.02458806070607
 1  3.93404423422342 -2.57847962716272 -1.71005811381138
 1 -5.52925506390639 -2.32417334193419 -3.05399886368637
 1  5.17599552085208 -1.14098457835784 -0.01526830313031
 1  5.84198563986399 -0.08853584968497 -1.42873735623562
 1  4.25373528502850  0.63097959005901 -3.76048427792779
 1  3.23222897449745  2.36391747044704 -3.52403473887389
 1  2.63986977627763  0.98625312321232 -4.64814796679668
 1  0.83283719371937  2.62536403290329 -2.92162305430543
 1 -7.06002508860886 -3.64666685058506 -0.74504352555256
 1 -7.81444970987099 -3.51881321182118 -2.38719177267727
 1  3.82248597609761  3.56708606960696  3.68521177537754
 1 -0.53313719251925  4.33793507300730 -3.10925882128213
 1 -4.00300889048905  4.42230881268127 -0.44461561306131
 1 -3.87653640334033  3.75270006360636  1.03587439883988
 1 -2.95262357855786  5.44158444954495  0.37378314821482
 1  8.42464815831583 -2.23022617681768 -1.21107174217422
 1 -1.85158808340834  6.14818527562756 -3.42381723392339
 1 -2.72793514641464  6.29561093689369 -1.77846375387539

