%nproc=4
%Mem=4GB
# td=(NStates=1) B3LYP/SVP 

TD

0 1
 8 -5.30992722272227 -0.12481704210421 -3.23446323602360
 8  3.08198820432043  2.82711996669667  3.21824790319032
 8  3.26964531313131  0.58906430543054  3.13908579367937
 8  1.72853049254925 -7.12688895899590  1.57303580988099
 8  0.71622651065106 -7.00390681428143 -0.39305728862886
 8  1.67465451355136  3.96569969276928  0.05850535793579
 7 -2.32336194729473 -0.90724915511551  0.61274829142914
 7 -4.36801168256826  0.57609527602760 -1.23134148894889
 7  1.77327771937194 -0.72033360636064 -0.49130760836084
 7  2.50273581548155  1.84577032253225 -0.48837558425843
 6 -4.81850824202420  1.21531302830283 -0.03197739793979
 6 -4.36151354415442  0.35266543184318  1.22425978367837
 6 -2.94121921752175  0.17680793749375  1.32687470047005
 6 -1.94572366906691  0.70294525172517  2.15813898349835
 6 -0.63398000830083  0.01704626912691  1.76727740534053
 6 -0.98968315611561 -0.95159821872187  0.85809762916292
 6 -6.21979433553355  1.38704649394939 -0.09781499689969
 6  0.67258586518652  0.12351302780278  2.40503952405241
 6 -6.65939645414541  1.05489473787379 -1.42855858455846
 6 -0.27023327942794 -1.94011274817482  0.21156323782378
 6  1.08282517871787 -1.95878542514251 -0.36851843404340
 6 -5.37869847014701  0.47833604830483 -2.18085539703970
 6  1.90107419261926 -2.97842838123812 -0.96569357865787
 6 -2.11131683258326  1.67328308520852  3.25713010321032
 6 -7.04806229942994  1.93536166536654  1.03166715261526
 6  3.08307464116412 -2.29985993719372 -1.35688693379338
 6  1.22795882318232  1.58873736713671  2.35926956285629
 6  2.99201727702770 -0.94104272987299 -1.13185717391739
 6  1.44538830903090 -4.43315928032803 -0.98683039993999
 6 -7.91351725772577  0.79403104070407 -2.07487587538754
 6  1.84470203580358 -5.13294422902290  0.34318031353135
 6  4.19221483048305 -2.93265173397340 -1.91223045434543
 6  3.89333020362036  0.07721712521252 -1.37784246664666
 6  2.69251987318732  1.59892748094810  2.89810571047105
 6  3.62892727052705  1.43181859335934 -1.12376894419442
 6 -9.08627361076108  0.86915907620762 -1.48002281758176
 6  1.36107117181718 -6.47131378157816  0.47777643664366
 6  4.51363019761976  2.67333408830883 -1.44556163926393
 6  3.85211447984799  3.74779530323032 -0.98401969626963
 6  2.59092066286629  3.32455030613061 -0.42353111581158
 6  5.82377598289829  2.59067390799080 -2.16725868096810
 6  4.23193881368137  5.22287716351635 -1.08672068546855
 6  6.60964102170217  3.67668335313531 -2.34655913281328
 1 -4.47949243534353  2.25929700980098 -0.16533349304930
 1 -4.97694235113511 -0.62617409350935  0.91487623182318
 1 -4.80590743064306  0.95280928062806  1.94442135183518
 1 -2.78126716661666 -1.73242063756376  0.04759783798380
 1 -3.51471246854685  0.36899881698170 -1.41644919581958
 1  0.51940637533753  0.01100141214121  3.57131667976798
 1  1.24434844424443 -0.74688935633563  2.02703783658366
 1 -0.59357801870187 -2.71317878287829 -0.28136313401340
 1 -3.13961410671067  1.66886815091509  3.39235922562256
 1 -1.52474368946895  1.36401576547655  4.34040242814281
 1 -1.94778115921592  2.81331515131513  3.06253367516752
 1 -6.26339979087909  2.59548835233523  1.56919915291529
 1 -7.55256502350235  1.14007381658166  1.62172918361836
 1 -7.87735367256726  2.58846492959296  0.39715819601960
 1  1.18855156355636  2.20003203980398  1.42840090739074
 1  0.67543065556556  2.18213503550355  3.24686051025102
 1  1.48904323072307  0.18877952295230 -0.28292365766577
 1  1.95631342354235 -4.94410824122412 -1.90985559525953
 1  0.34756655415542 -4.29444929242924 -1.16374485788579
 1 -8.04816587838784  0.54509474007401 -3.10323626182618
 1  1.59849203810381 -4.46760794049405  1.22071964856486
 1  3.07739400950095 -5.13231043554355  0.26292410731073
 1  3.99631469376938 -4.08993644584458 -2.23787724882488
 1  5.17154825322532 -2.95014386458646 -1.13159677727773
 1  4.84713614671467 -2.52369460206021 -2.85067414101410
 1  4.80983060256026 -0.07929002350235 -1.83585976167617
 1 -9.34604820532053  1.25028248374837 -0.42721541134113
 1 -9.95155328892889  0.63187460316032 -2.13727982798280
 1  4.14990967746775  2.59997338103810  3.50862562826283
 1  6.10237370557056  1.51962411161116 -2.49248806380638
 1  5.12491319111911  5.30673343754375 -0.47738635853585
 1  4.18742076457646  5.30231699739974 -2.19199174407441
 1  3.51163883348335  5.93261286768677 -0.83900564216422
 1  1.43798110621062 -7.89879103620362  1.44693074797480
 1  7.77021946634664  3.57352289218922 -2.96243351665166
 1  6.65206709420942  4.69078459065907 -2.21455380788079

