%nproc=4
%Mem=4GB
# td=(NStates=1) B3LYP/SVP 

TD

0 1
 8 -5.30164639463946  0.13680912051205 -3.18177796749675
 8  3.03653365886589  2.87143439813981  3.10575665406541
 8  3.42931127972797  0.72650804980498  3.13650553565357
 8  1.68423606310631 -7.16274254435444  1.48356686298630
 8  0.79676456445645 -7.17757418101810 -0.58186616951695
 8  1.75668271637164  4.05502862566257 -0.13871436403640
 7 -2.39847945904590 -0.94219264946495  0.61664868146815
 7 -4.38250313171317  0.82294996149615 -1.13349170397040
 7  1.81540193179318 -0.72896446944694 -0.43139161676168
 7  2.60173571547155  1.92926867236724 -0.55367211391139
 6 -4.79194558575858  1.27490898789879  0.09624542434243
 6 -4.45865325812581  0.39849001430143  1.23307066476648
 6 -2.96967206280628  0.02187244394439  1.44556656965697
 6 -1.99438853555356  0.62805776297630  2.20544371397140
 6 -0.77949455975598  0.03014757925793  1.76322700030003
 6 -0.97153134093409 -0.91939499839984  0.76282810221022
 6 -6.26188854495450  1.33868165746575 -0.15174038943894
 6  0.48244685128513  0.20021069756976  2.60832985308531
 6 -6.67912842734273  0.77781703010301 -1.31001673037304
 6 -0.17181343744374 -1.92508124502450  0.20639272077208
 6  1.05198209440944 -1.90693023962396 -0.25004658685869
 6 -5.37970857115712  0.46337455215522 -2.03309062056206
 6  1.85530961616162 -2.93026356475648 -0.87549455875588
 6 -2.21702740364036  1.76042179907991  3.12205659585959
 6 -7.29423691689169  1.92456058525853  0.92402638853885
 6  3.10475680938094 -2.37747769896990 -1.34690593569357
 6  1.09384541184118  1.61408990239024  2.66937057295730
 6  3.07375545084508 -0.95010363596360 -0.97394138233823
 6  1.39080285048505 -4.33176914131413 -1.10418213511351
 6 -7.86524243024302  0.58400003760376 -2.03350173797380
 6  1.73203076867687 -5.07250818541854  0.28652464796480
 6  4.19593520252025 -2.97484595339534 -1.95893512481248
 6  3.96590746134613  0.10410981448145 -1.31712639503950
 6  2.68557917911791  1.65476306450645  2.88325422532253
 6  3.75151952975298  1.51965737723772 -1.06124269156916
 6 -9.06929191259126  0.69034119441944 -1.54695951125112
 6  1.34647971267127 -6.55277192739274  0.32370102910291
 6  4.68255709030903  2.62843959885989 -1.36863394649465
 6  3.91594086248625  3.77318784248425 -1.08419971427143
 6  2.71003257405741  3.24799265036504 -0.49400816351635
 6  5.90883448874887  2.49636447704770 -2.12729468456846
 6  4.19054467426743  5.19832470827083 -1.11569358275828
 6  6.78347840544054  3.48075376017602 -2.56030050695069
 1 -4.44812929902990  2.41023210331033  0.34832787308731
 1 -4.97665232213221 -0.63708518461846  1.05534027822782
 1 -4.87264410431043  0.90525452515252  2.25059196889689
 1 -2.77784682458246 -1.61399879537954 -0.09257617941794
 1 -3.35566656395639  0.86121803890389 -1.46400395129513
 1  0.29894432913291 -0.09686937493749  3.62207175527553
 1  1.29282329172917 -0.38143281068107  2.30648578137814
 1 -0.68954761566157 -2.88490595559556  0.08200320262026
 1 -3.37431757705771  2.07667893199320  2.96931692139214
 1 -2.03555477057706  1.59058842274227  4.44564295219522
 1 -1.49250563166317  2.62643646344634  2.94818224002400
 1 -6.70966441734173  2.63916271977198  1.55222745574557
 1 -7.81826159315932  1.20728053725373  1.42006901760176
 1 -7.99872580978098  2.54946102920292  0.43025150535053
 1  0.95832854125412  1.94382641924192  1.64832289958996
 1  0.51799491199120  2.17464428642864  3.37758358255826
 1  1.50062438883888  0.32999364436444 -0.24012937823782
 1  1.85619341154115 -4.77933176357636 -1.97533214291429
 1  0.13788558605861 -4.23224307180718 -0.99293777717772
 1 -7.62743380518052  0.59229946054606 -3.19343528172817
 1  1.32698488738874 -4.60849202890289  1.27271484808481
 1  2.84740101020102 -5.05489269376938  0.31761957685769
 1  4.02580764306431 -4.04970242244224 -2.20502396349635
 1  5.17500859925993 -2.97395624582458 -1.28599221682168
 1  4.59514094719472 -2.75227746034603 -2.93724279787979
 1  4.89008862836284 -0.15100719521952 -1.92877905360536
 1 -9.30246384688469  0.83219067456746 -0.41771446124612
 1 -9.96377451105110  0.74834625032503 -2.22849894989499
 1  3.98352303880388  2.54478786248625  3.08449321502150
 1  6.07063053125312  1.43946609580958 -2.23085190019002
 1  5.14924562436244  5.54077684188419 -0.59394801470147
 1  4.06521854435444  5.61828859455946 -2.14261680658066
 1  3.37072474207421  5.80528013441344 -0.72923466506651
 1  1.44240154825483 -8.04396555365537  1.54474052895290
 1  7.80335277967797  3.55006054595460 -2.81556883018302
 1  6.40711259875988  4.51094660686069 -2.40414276677668

