%nproc=4
%Mem=3GB
# td=(NStates=1) B3LYP/SVP 

TD

0 1
 8 -3.14579148934893 -1.35170022552255 -2.81037169146915
 8  2.80057051185119  3.16952861136114  3.08190246114611
 8  3.58029233743374  1.43595072337234  4.34342878647865
 8  7.75460406330633 -1.33548966316632 -0.83494425622562
 8  6.65961011741174 -2.96962775767577 -2.02706915501550
 8 -2.64727563406341  1.61509699879988  1.51788184868487
 7 -0.33127887408741 -2.45447176147615  0.97690253105311
 7 -2.71152319031903 -1.13988912391239 -0.46974911951195
 7  1.10092164156416 -0.08141723202320 -0.75326026322632
 7 -1.01839098459846  1.42990839873987 -0.14855575347535
 6 -3.44405955565557 -1.31715927832783  0.73457043094309
 6 -2.66821544764476 -2.19421356755676  1.65126043284328
 6 -1.19394503620362 -1.97763557755776  1.84638262686269
 6 -0.55076487878788 -1.21152234393439  2.83360138063806
 6  0.80244135673567 -1.24658965996600  2.50778197279728
 6  0.92739542574257 -1.98173460816082  1.25156996099610
 6 -4.72720766736674 -1.85837148584858  0.26721360866087
 6  1.94099869126913 -0.36063639323932  3.06830898539854
 6 -4.76883324472447 -1.94503321172117 -1.13077341784178
 6  2.07072502890289 -2.03091128332833  0.39383166186619
 6  2.09689571147115 -1.06434834703470 -0.65209911141114
 6 -3.44107877777778 -1.41350331563156 -1.66364364776478
 6  3.06706776997700 -0.79283003130313 -1.69424332323232
 6 -1.16154472667267 -0.35838969596960  3.91446695499550
 6 -5.92794801890189 -2.13016949724972  1.20709171477148
 6  2.55202485938594  0.44272164036404 -2.48993360336034
 6  1.86635606800680  1.10058575057506  2.61465810741074
 6  1.33263663016302  0.78614526312631 -1.79730583658366
 6  4.25989133823382 -1.59400882998300 -2.13745337543754
 6 -5.74389872597260 -2.34427651805180 -2.08171161936194
 6  5.47664321532153 -1.04227597279728 -1.31615503240324
 6  3.17601769716972  1.09319772237224 -3.70676718591859
 6  0.49999242334233  1.96554170107011 -1.96024776987699
 6  2.83108174847485  1.96894648014801  3.44374972017202
 6 -0.63815764736474  2.26309094129413 -1.09697498539854
 6 -6.89690361686169 -3.12170593469347 -1.90189874857486
 6  6.70294986458646 -1.97610586568657 -1.35632632263226
 6 -1.41840049484948  3.46211844504450 -1.19756783148315
 6 -2.34706879627963  3.37529800880088 -0.12425033123312
 6 -1.93953622602260  2.06118705220522  0.60797972997300
 6 -1.21866184458446  4.47314357455746 -2.29899166716672
 6 -3.30480111661166  4.23692417531753  0.48802304200420
 6 -1.88421231243124  5.66717213541354 -2.37835156795680
 1 -3.71914040724072 -0.53618910881088  1.33011721632163
 1 -2.71792341874187 -3.36264138913891  1.35039538863886
 1 -3.20543036283628 -2.09668311271127  2.49929931863186
 1 -0.54400970577058 -2.88892765786579  0.09009601960196
 1 -1.90630902060206 -0.50372667616762 -0.76799090149015
 1  2.08165612701270 -0.63904535833583  4.16972907200720
 1  2.87993532643264 -1.00725261656166  2.75186011541154
 1  2.86790560446045 -2.76087767066707  0.48715176837684
 1 -2.19733236253625 -0.92048132213221  4.21712877467747
 1 -0.49408917691769 -0.26511071467147  4.64558091459146
 1 -1.35033434723472  0.62750519721972  3.49491825712571
 1 -6.04208499569957 -1.39502763396340  2.02482677567757
 1 -5.94522328302830 -3.06969107370737  1.65699854615461
 1 -6.84160153695370 -2.26052169556956  0.64901126282628
 1  2.17879401880188  1.23487342924292  1.35160277157716
 1  0.88640859235924  1.49796204050405  2.81774974867487
 1  0.28126638423842 -0.06627225742574 -0.03775580788079
 1  4.50076579577958 -1.49331239023902 -3.02674827672767
 1  4.06473730353035 -2.62549432863286 -1.89823693169317
 1 -5.51013315171517 -2.08581950655066 -3.13076654045405
 1  5.23903182448245 -1.02583306320632 -0.14528130443044
 1  5.84169561086109 -0.02460945704570 -1.54425890839084
 1  3.87706761826183  0.35612210431043 -4.17945617511751
 1  3.53831958355836  2.03423450215021 -3.66914925032503
 1  2.40542633193319  1.35859035693569 -4.40818397039704
 1  0.77750166016602  2.59531102760276 -2.84540543254325
 1 -7.13552263836384 -3.56044822872287 -1.05222424362436
 1 -7.62091035593559 -3.41094242474247 -2.61673472697270
 1  3.52563629112911  3.55313467446745  3.58584183838384
 1 -0.31801568036804  4.15759703920392 -2.85249314471447
 1 -4.13771236083608  4.41948853065307 -0.34469562106211
 1 -3.74548329802980  3.77500229382938  1.34677548894889
 1 -2.77671598779878  5.08140843194319  0.83257902780278
 1  8.64280997449745 -1.84496765096510 -0.91546218121812
 1 -1.87315023962396  6.35263572067207 -3.15118997119712
 1 -2.66132848574857  5.82019339513951 -1.57982388988899

