%nproc=4
%Mem=3GB
# td=(NStates=1) B3LYP/SVP 

TD

0 1
 8 -3.21933884408441 -1.28212326782678 -2.89393004730473
 8  3.27106756155616  3.12206386488649  3.02537680858086
 8  3.52460676887689  1.43490061836184  4.61786623022302
 8  7.73658226112611 -1.49638575277528 -0.77170793259326
 8  6.76839099549955 -3.06502729762976 -2.02866931503150
 8 -2.75049595609561  1.60320580968097  1.46742680318032
 7 -0.15103084928493 -2.52675899019902  0.96508134893489
 7 -2.66066810481048 -1.17333246824682 -0.61041318591859
 7  1.12244379377938 -0.00199929022902 -0.75146008320832
 7 -0.97944709020902  1.46842225012501 -0.13233413131313
 6 -3.36817196689669 -1.27755531793179  0.59216619051905
 6 -2.66936556265627 -2.35585973217322  1.54854016081608
 6 -1.18955459715972 -2.10251806580658  1.76942493109311
 6 -0.56410621292129 -1.26942813451345  2.77701572207221
 6  0.77539865246525 -1.20669567056706  2.50722191679168
 6  1.01470415661566 -1.90349678437844  1.32856766076608
 6 -4.72750769736974 -1.87526317501750  0.20172706000600
 6  1.89107369876988 -0.36107643724372  3.12423457795780
 6 -4.77687404880488 -1.99700840924092 -1.19456979747975
 6  2.10153811021102 -1.84654284648465  0.37390966966697
 6  1.96864288618862 -0.93575548774878 -0.70962486398640
 6 -3.43878854875488 -1.45051701700170 -1.71756904030403
 6  3.01774283748375 -0.61740248854886 -1.73774767366737
 6 -1.29912848504850 -0.48489234623462  3.83952946124612
 6 -5.78585380948095 -2.15033151345134  1.15295630123012
 6  2.58640829772977  0.42420978917892 -2.43681829182918
 6  2.03114254665467  1.17741343334333  2.66011265286529
 6  1.37663102960296  0.93870051865187 -1.78313441944194
 6  4.20492584168417 -1.52444187328733 -2.06777640774077
 6 -5.85683001910191 -2.39881197159716 -1.97090053825383
 6  5.39317486848685 -1.21777352255226 -1.09114253115312
 6  3.13193328872887  1.10305870847085 -3.63038954815482
 6  0.50962338643864  1.97419256615662 -1.99342108720872
 6  2.99771841214121  1.93012259775978  3.59287463266327
 6 -0.62268610021002  2.32623725592559 -1.24588987688769
 6 -6.95010893739374 -3.15192895699570 -1.58751731043104
 6  6.70194976457646 -2.02517077217722 -1.51103179317932
 6 -1.50572922772277  3.48347058025803 -1.25904397909791
 6 -2.30847493689369  3.36407688668867 -0.17263516971697
 6 -2.12547481988199  2.13906483998400  0.46306523852385
 6 -1.37761774017402  4.58145440564056 -2.19455122312231
 6 -3.32314295079508  4.36419690259026  0.40744498419842
 6 -2.15180907210721  5.55899131733173 -2.45263899669967
 1 -3.51160965416542 -0.36615210511051  1.19748395299530
 1 -2.79530115651565 -3.52338746374637  1.33038338743874
 1 -3.15353517331733 -2.29073251765177  2.38606799549955
 1 -0.18310361516152 -3.07712647774777  0.14588159815982
 1 -2.19534792449245 -0.34222052555256 -0.73889799219922
 1  1.93177113851385 -0.20401185498550  4.27666976607661
 1  2.83084041694169 -0.83385527682768  3.10154508390839
 1  2.73093190709071 -2.74620620352035  0.26975002820282
 1 -1.83856648594859 -1.26563583758376  4.37257431923192
 1 -0.60086985498550 -0.12060626422642  4.52789914641464
 1 -1.90656997079708  0.26062850955096  3.36920568586859
 1 -5.49066985418542 -1.77714584578458  2.28543283628363
 1 -5.90208896959696 -3.27708181278128  0.95881872817282
 1 -6.88365574237424 -1.47073271667167  0.90780714241424
 1  2.22350849024903  1.27419736163616  1.56802441374137
 1  0.89537948944895  1.74283652795280  3.05066304000400
 1  0.20026828442844  0.14930930073007 -0.19629166146615
 1  4.55361108030803 -1.40517357635764 -3.11720732263226
 1  3.96849767956796 -2.69346112531253 -1.80546765476548
 1 -5.77531967036704 -2.31392231683168 -3.01129459325933
 1  4.96738465976598 -1.36943742364236 -0.10475725202520
 1  5.72847428872887 -0.16438343444344 -1.24982946544654
 1  3.94154406590659  0.45373186528653 -3.96831506100610
 1  3.56012176377638  2.17209828852885 -3.50822315771577
 1  2.30227601690169  1.05264976287629 -4.21472462446245
 1  0.74585849584959  2.66250774727473 -2.79157004900490
 1 -7.03958304440444 -3.20846303020302 -0.46618563976398
 1 -7.69334759965997 -3.50723205370537 -2.31838489198920
 1  3.90357408490849  3.36670603160316  3.87041029522952
 1 -0.41112499129913  4.47279855935594 -2.92332022742274
 1 -4.33741233083308  4.30043662546255 -0.15265641714171
 1 -3.54336308600860  4.18247304090409  1.59814062546255
 1 -2.74139245544554  5.43931422252225  0.42828859875988
 1  8.31262695619562 -2.34401755595560 -0.85619625462546
 1 -1.77147007160716  6.22448290539054 -3.26756160836084
 1 -3.41116346924693  5.61051242704271 -2.11115702320232

