%nproc=4
%Mem=4GB
# td=(NStates=1) B3LYP/SVP 

TD

0 1
 8 -5.42067829782978 -0.28953351375138 -3.21848163786379
 8  3.02715272077208  2.85881313601360  3.22107818621862
 8  3.49893824242424  0.66699209820982  2.79411129622962
 8  1.39720736023602 -7.00297656775678  1.51301980828083
 8  0.37610249824983 -6.87669409300930 -0.51070905380538
 8  1.77500454855486  4.06918004080408  0.07345685308531
 7 -2.35416502760276 -0.83781221142114  0.55505252185219
 7 -4.47519240064006  0.39608727522752 -1.18315667046705
 7  1.83693408500850 -0.66256782978298 -0.42110058765877
 7  2.68560410231023  1.94332007750775 -0.52075882258226
 6 -4.76059245044504  1.19703120012001 -0.01125532573257
 6 -4.38297569036904  0.47841800710071  1.34445180288029
 6 -2.89436453205321  0.13605386208621  1.24996700970097
 6 -1.91201029772977  0.69502445964596  2.09836300590059
 6 -0.71029764006401 -0.04473990949095  1.84137481508151
 6 -0.98594278207821 -0.97789084798480  0.72899471887189
 6 -6.30290264636464  1.22331012031203 -0.15118033343334
 6  0.64033263986399  0.17736841334133  2.49342836293629
 6 -6.69868038253825  0.69290853925393 -1.33743947264726
 6 -0.18457471357136 -2.01236997389739  0.22107418891889
 6  1.06617351355136 -1.75808535513551 -0.30301188338834
 6 -5.51889248954895  0.16362457715772 -2.06197350885089
 6  1.95607969316932 -2.82056259465947 -0.98978598789879
 6 -2.11808750965097  1.73428918581858  3.10811520172017
 6 -7.11664915811581  2.00793892309231  0.74470845674567
 6  3.10150648434843 -2.31717166836684 -1.39202044714471
 6  1.23142917021702  1.50201869526953  2.50242387828783
 6  3.07375545084508 -0.86406503210321 -1.09976396459646
 6  1.55102887308731 -4.34450041444144 -1.03485520242024
 6 -8.07256316231623  0.60638227582758 -1.98360674847485
 6  1.63712127772777 -4.95595653025303  0.32163815931593
 6  4.21883749274928 -2.95441391019102 -2.04780401170117
 6  3.92098296889689  0.16410581408141 -1.46191087348735
 6  2.73235385658566  1.64737232543254  2.82282818271827
 6  3.81735611341134  1.51856726822682 -1.09578614591459
 6 -9.22324730813081  0.54127628792879 -1.27745256055606
 6  1.09313437813781 -6.39423607380738  0.41883054205421
 6  4.68824765936594  2.70150690559056 -1.39818690179018
 6  3.97996726512651  3.77508803250325 -1.04336563086309
 6  2.65471704250425  3.31152900400040 -0.44675343804380
 6  6.00595420072007  2.57731257185719 -1.84608656375638
 6  4.36038165796580  5.27553242904290 -0.97389940334033
 6  6.95396545414541  3.46977266206621 -2.24590906780678
 1 -4.40485497159716  2.35602668276828 -0.03294025372537
 1 -4.79040369726973 -0.44461593769377  1.28449319351935
 1 -4.50357719761976  0.94752875257526  2.17882479217922
 1 -3.14750379027903 -1.37842523802380 -0.09994691649165
 1 -3.57173817111711  0.31456337343734 -1.50469802070207
 1  0.43600803550355 -0.02362205020502  3.61910145824582
 1  1.44794880428043 -0.51800646804680  2.37175230803080
 1 -0.74961362226223 -2.89648711371137 -0.02310730843084
 1 -3.25802594789479  1.67843910801080  3.38948893859386
 1 -1.47960917601760  1.52475183908391  3.92558094599460
 1 -1.72209859095910  2.70600442024202  2.73906132793279
 1 -6.59370282118212  2.98434723822382  1.11204343734373
 1 -7.44159392639264  1.33657346654665  1.81643865456546
 1 -8.06987292449245  2.50173625672567  0.33916239643964
 1  1.01167387578758  2.00716275287529  1.34474254155415
 1  0.73062617511751  2.31455827782778  3.10976680088009
 1  1.70247457385739  0.35974661966197 -0.27768313361336
 1  2.10655844804480 -4.96504033443344 -1.84705931563156
 1  0.39063086058606 -4.12419226672667 -1.21455993939394
 1 -7.98153921572157  0.60885111571157 -2.96509244744474
 1  0.82086427532753 -4.38829000870087  0.93829140574057
 1  2.62261853195319 -5.10782798729873  0.73447126202620
 1  3.96354141644164 -3.96115356755676 -2.32535599669967
 1  5.13605470387039 -2.94609345954595 -1.39833345094509
 1  4.39785121822182 -2.29238147074707 -2.96771584518452
 1  4.84919453895390 -0.07168926342634 -2.05893206890689
 1 -9.32048564906491  0.38431588708871 -0.24285697549755
 1 -10.13028116171617  0.48252966866687 -1.74614071407141
 1  4.15927061356136  2.89087247094709  3.11122588828883
 1  6.19522299049905  1.53694584378438 -2.03864267926793
 1  5.57908860866087  5.34572733693369 -0.61250987088709
 1  4.27286930943094  5.92872963866387 -1.90438298319832
 1  3.88382605220522  5.74474408080808 -0.12381412301230
 1  1.05520282838284 -7.78416957405741  1.74238029292929
 1  8.05089753415342  3.24673021292129 -2.48358563186319
 1  6.74119600710071  4.64785029722972 -2.12157450995099

