%nproc=4
%Mem=4GB
# td=(NStates=1) B3LYP/SVP 

TD

0 1
 8 -5.22639886988699  0.39164460406041 -3.35961575127513
 8  3.04532453795380  2.87105436013601  3.07290336873687
 8  3.30639898849885  0.66925232423242  2.91574345944594
 8  1.53900153965397 -7.00501677177718  1.68835734203420
 8  1.00336522452245 -7.16229265286529 -0.58444642754275
 8  1.75888293639364  4.09245236803680  0.07492700010001
 7 -2.35599521062106 -0.88849727992799  0.61878889548955
 7 -4.36188106950695  0.49998766526653 -1.12350070487049
 7  1.88634902650265 -0.69118069106911 -0.34029250685069
 7  2.49761530343034  1.98587433293329 -0.57319406610661
 6 -4.81509790099010  1.07390888788879  0.08167396719672
 6 -4.50330772357236  0.16341650695069  1.30753811151115
 6 -2.98502359795980 -0.03917366066607  1.37014902790279
 6 -2.03098219491949  0.55922087928793  2.19542271187119
 6 -0.75358196849685 -0.03132856835684  1.86188686628663
 6 -0.99169335713571 -0.92323538243824  0.77048886828683
 6 -6.15925828192819  1.31833962326233 -0.06615183058306
 6  0.59547815441544  0.23271394789479  2.55497451755176
 6 -6.61581209570957  0.86841609000900 -1.37078280698070
 6 -0.14119037513751 -1.97350608750875  0.18921100260026
 6  1.12182907910791 -1.89730927752775 -0.29183076527653
 6 -5.41154175447545  0.58194640934093 -2.18824613611361
 6  1.95188927412741 -2.93679421782178 -0.81370838013801
 6 -2.25315101600160  1.63272902980298  3.23255764596460
 6 -7.14904239743974  1.73217134633463  1.01516550245024
 6  3.15063139683968 -2.40031998319832 -1.36600784588459
 6  1.10465649294930  1.62883137653765  2.54106774267427
 6  3.02585066036604 -0.94301292689269 -1.04200818901890
 6  1.48350212041204 -4.34685064946495 -0.92190390729073
 6 -7.90900680668067  0.96988862646265 -2.18111649944995
 6  1.75865343094309 -5.10001093569357  0.42531852735274
 6  4.23174878387839 -3.00248871767177 -2.01409064036404
 6  3.85989686028603  0.19772917641764 -1.41315599799980
 6  2.62715333653365  1.68487607580758  2.87504340424042
 6  3.61010538833883  1.54238965046505 -1.06873344064406
 6 -9.10402538593859  0.93180534083408 -1.47283209850985
 6  1.36040110481048 -6.50218686888689  0.40062872187219
 6  4.47996683128313  2.61955871077108 -1.60861794489449
 6  3.93287255565557  3.77155767946795 -1.04757605190519
 6  2.59193076387639  3.35328317941794 -0.47634639733973
 6  5.80213381868187  2.44268910951095 -2.14529648474847
 6  4.34041966176618  5.17623249904991 -1.16436845024502
 6  6.70727078467847  3.41284696949695 -2.48286276317632
 1 -4.26773125922592  1.93196427652765  0.22222526282628
 1 -5.09243390029003 -0.76959843594359  1.14122886708671
 1 -5.01189802970297  0.70832483218322  2.14010091979198
 1 -2.87790683058306 -1.32747014251425 -0.28877579937994
 1 -3.38526952425242  0.56766868396840 -1.35747329822982
 1  0.36911134583458 -0.16739642764276  3.66240578867887
 1  1.38173218261826 -0.61199586698670  2.33207834063406
 1 -0.73613227412741 -2.88436590159016  0.06929193149315
 1 -3.36583672897290  1.50930219431943  3.52462245194519
 1 -1.70377159225923  1.08143750765076  4.13939232713271
 1 -1.85879226032603  2.72331615141514  3.27390481228123
 1 -6.75444889578958  2.37949675317532  1.91608384138414
 1 -7.61420118711871  0.84997480668067  1.62620963166317
 1 -8.01299723692369  2.30511659475948  0.52876135633563
 1  0.88460116851685  1.91812384898490  1.45513358065807
 1  0.64110722322232  2.04715153715371  3.32608843304330
 1  1.53835816221622  0.18964960996100 -0.33575894119412
 1  2.14435222742274 -4.92143597399740 -1.81082569226923
 1  0.53451524902490 -4.30702054955495 -1.30463894729473
 1 -7.91113217501750  0.84507473807381 -3.20947688588859
 1  1.10200238913891 -4.79643082278228  1.28281585818582
 1  2.73754002410241 -4.91944914941494  0.76308412331233
 1  4.09363442574257 -4.16000345254525 -2.36288975007501
 1  5.20234133253325 -3.20246909710971 -1.48780239783978
 1  4.42537397049705 -2.28600083268327 -2.90273934753475
 1  4.88547816731673 -0.14451654615462 -1.80307648334834
 1 -9.24458805930593  0.86220367586759 -0.45223791359136
 1 -9.94044217781778  0.86057747344735 -1.98505460546055
 1  4.12495718221822  2.79189257295730  3.18364313001300
 1  5.87755122332233  1.30897304650465 -2.74566338133813
 1  5.31609230903090  5.21749451365137 -0.57611623152315
 1  4.42584460696070  5.54165093079308 -2.01199374427443
 1  3.53923159275928  5.65350495689569 -0.66844858645865
 1  1.46348365646565 -8.18775993309331  1.62154820972097
 1  7.78799124352435  3.07568310821082 -2.72062933623362
 1  6.52333422092209  4.47582309450945 -2.37448980148015

