%nproc=4
%Mem=3GB
# td=(NStates=1) B3LYP/SVP 

TD

0 1
 8 -3.21092800300030 -1.27784283978398 -2.86962761706171
 8  3.18556901170117  3.13337499599960  3.04438870977098
 8  3.96187049524952  1.34858198649865  4.17995243884388
 8  7.68378698159816 -1.55084119831983 -0.55725648744874
 8  6.84612876927693 -2.99253004790479 -2.03712016011601
 8 -2.54868577507751  1.65507099619962  1.56924698519852
 7 -0.25133087928793 -2.26715302960296  0.90607544834483
 7 -2.66608864686469 -1.17376251125113 -0.58588073267327
 7  1.13557510691069  0.13941485118512 -0.72633757095710
 7 -0.95243438893889  1.51221662956296 -0.12434333223322
 6 -3.39747489718972 -1.31156871927193  0.64645161906191
 6 -2.65766439253925 -2.36791093729373  1.59250455725573
 6 -1.23644928662866 -2.00110792479248  1.89039702830283
 6 -0.60025982828283 -1.15417660936094  2.82939095959596
 6  0.74886599919992 -1.11622662366237  2.48306950155016
 6  0.90739342554255 -1.76094252895290  1.23789859385939
 6 -4.82623757035704 -1.91806745544554  0.20352724002400
 6  1.79955454685469 -0.34998532813281  3.25409756425643
 6 -4.79873623502350 -2.05325403380338 -1.15414575507551
 6  2.05897385378538 -1.86636482868287  0.35662794149415
 6  2.03256927882788 -0.85648756095610 -0.61905580708071
 6 -3.41955662556256 -1.38005997129713 -1.73006028942894
 6  2.97757882108211 -0.60227097539754 -1.79876377527753
 6 -1.36041461366137 -0.53526738373837  3.93800930923092
 6 -5.97552277637764 -2.25808228852885  1.19082008760876
 6  2.48427808470847  0.35091245944594 -2.57563217321732
 6  1.95388482088209  1.14166985898590  2.75391203280328
 6  1.32816618311831  0.94635128372837 -1.84548065406541
 6  4.18964431353135 -1.55409483858386 -2.04349397949795
 6 -5.76042037813781 -2.54489658005801 -2.06593004120412
 6  5.43782933393339 -1.22377412261226 -1.18336175307531
 6  3.23843393879388  1.02431083368337 -3.69184569376938
 6  0.51546397049705  2.09098424532453 -1.96861860696070
 6  3.14078271857186  1.76865645114511  3.46804214941494
 6 -0.56654048564856  2.31672630483048 -1.16936222412241
 6 -6.90480440694069 -3.24434819891989 -1.77984654335434
 6  6.64434400400040 -2.07606586168617 -1.33549423942394
 6 -1.49663831863186  3.52107434063406 -1.17390546524652
 6 -2.39960404980498  3.33909438843884 -0.14297220342034
 6 -1.94291656405641  2.09639057255726  0.56127505950595
 6 -1.36465644404440  4.59282554275428 -2.13155492349235
 6 -3.58178881538154  4.13713419631963  0.21391563126313
 6 -2.03396728792879  5.72793821202120 -2.33245697849785
 1 -3.30736923012301 -0.39055454535454  1.23719792439244
 1 -2.46053768016802 -3.52160728572857  1.37694804390439
 1 -3.14837465726573 -2.70047349174917  2.59182857155716
 1 -0.32548785358536 -2.66300506560656  0.06628363836384
 1 -2.16479486918692 -0.15889219271927 -0.56752085448545
 1  1.48079604100410 -0.46361781558156  4.35142724182418
 1  2.63559089198920 -0.77560945224522  2.99776470587059
 1  2.86824563846385 -2.66214779767977  0.29076212941294
 1 -2.05070770007001 -1.16119539353935  4.58210527232723
 1 -0.53432320032003 -0.07763196679668  4.51957831433143
 1 -1.91875118891889  0.35627807450745  3.37154591989199
 1 -5.69328011521152 -1.70705883708371  2.26401069406941
 1 -5.84491325202520 -3.25174927952795  1.44625747204721
 1 -6.88110548734873 -2.00583622702270  0.74086044774477
 1  2.15408154755476  1.11646158805881  1.55493310461046
 1  1.22322227372737  1.88131037533753  2.73069104280428
 1  0.14352260986099  0.04853922372237 -0.34660669296930
 1  4.28577429662966 -1.73311637063706 -3.22111771367137
 1  3.67694852465246 -2.70669244844484 -1.73962107010701
 1 -5.80206234463446 -2.25547647224722 -3.19709317311731
 1  5.18394631593159 -1.35143562346235 -0.09910668696870
 1  5.73119456075608 -0.17807480358036 -1.31518600110011
 1  3.74383429492949  0.15203169526953 -4.33110133963396
 1  3.86438218981898  1.93590466916692 -2.96698903430343
 1  2.49493528282828  1.40086458435844 -4.53741689368937
 1  0.76295020502050  2.86233773027303 -2.55595648764877
 1 -7.32183126922692 -3.34075625952595 -0.69932895409541
 1 -7.53723198809881 -3.45512684318432 -2.64513756725673
 1  4.49802352985299  3.48205756675668  3.04856811101110
 1 -0.62024590339034  4.43363464296430 -2.89201709710971
 1 -4.51903049264926  3.94570115191519 -0.47593874537454
 1 -4.15021377107711  3.67473226682668  1.10098090949095
 1 -3.54019233543354  5.38452874397440  0.36634240414041
 1  8.23395908940894 -2.22277543174317 -0.46229686468647
 1 -1.76463938853885  6.23789424652465 -3.24424927712771
 1 -2.76665901880188  6.10536191199120 -1.76256216371637

