%nproc=4
%Mem=4GB
# td=(NStates=1) B3LYP/SVP 

TD

0 1
 8 -5.47634386438644  0.28274371397140 -3.20232002170217
 8  2.97990799629963  2.89958721342134  2.90404648304830
 8  3.30072842144214  0.68792419141914  3.07930981608161
 8  1.77583522302230 -7.29570584068407  1.52627113341334
 8  0.48910379837984 -6.85296171977198 -0.35995397829783
 8  1.57517456555656  3.97671079387939  0.00143965136514
 7 -2.38687829892989 -0.98881731193119  0.42787980458046
 7 -4.35986086748675  0.84080174667467 -1.30790914571457
 7  1.91724211581158 -0.74204577757776 -0.38417689528953
 7  2.53421896379638  1.85818156365637 -0.62025877257726
 6 -4.78284467566757  1.20990248724872  0.13063886368637
 6 -4.41920931373137  0.23162332763276  1.21980933863386
 6 -3.00917601320132 -0.08462820612061  1.32508452145215
 6 -1.98733783048305  0.51967692489249  2.00712388198820
 6 -0.67117372767277 -0.10609604510451  1.65137581518152
 6 -1.10032422022202 -1.06138919781978  0.60952277167717
 6 -6.26127848394840  1.44836262556256 -0.10418563396340
 6  0.57454606120612  0.11337201370137  2.50259928002800
 6 -6.60147066156616  1.05301454985499 -1.28931466016602
 6 -0.17015327142714 -2.06727546444644  0.06749883138314
 6  1.19313620982098 -1.87079662626263 -0.36085766796680
 6 -5.42311291159116  0.63853206790679 -2.09894720622062
 6  1.97579166436644 -2.97303784218422 -0.89047605690569
 6 -2.24463016391639  1.57082283918392  3.05541993219322
 6 -7.23580107330733  1.81368949814982  1.06855084098410
 6  3.26486281998200 -2.41517146834683 -1.22037328242824
 6  1.02986901420142  1.51502999639964  2.48511214711471
 6  3.15971404670467 -0.98634726032603 -1.00815480368037
 6  1.64500827102710 -4.40158612301230 -0.88218993589359
 6 -7.86103200920092  0.88352999059906 -1.81025941374137
 6  1.92797036263626 -5.11941287588759  0.47778377387739
 6  4.51267687668767 -3.03354182298230 -1.74876410771077
 6  4.00773164376438  0.09181858535854 -1.37583226562656
 6  2.55463608480848  1.69260684888489  2.85008090799080
 6  3.79484386218622  1.47948335983598 -1.11532810011001
 6 -9.12485746914692  0.96524868516852 -1.28290310561056
 6  1.30715578027803 -6.50557720792079  0.46813547254725
 6  4.54627346194619  2.75837259215922 -1.45959304240424
 6  3.82968223662366  3.74131465516552 -1.10367166146615
 6  2.48976054685469  3.32273012411241 -0.55628439113911
 6  5.92577618291829  2.56947178777878 -2.00562251735173
 6  4.09213483328333  5.32013688948895 -1.22941495489549
 6  6.82731278887889  3.51069675447545 -2.29099357625763
 1 -4.33335782188219  2.06482756285629  0.38491153145315
 1 -4.96217087398740 -0.79274075017502  1.16052079627963
 1 -4.86124296419642  0.75590959065907  2.17917482718272
 1 -2.81053009290929 -1.50971836733673 -0.45430235203520
 1 -3.39608060536054  0.56475839293929 -1.79839739063906
 1  0.46423085778578 -0.19047873587359  3.55733528162816
 1  1.26707071647165 -0.56928159555956  2.10902603540354
 1 -0.67748640954095 -2.98881634663466 -0.32675767346735
 1 -3.30266041134113  1.80587185128513  3.26125611531153
 1 -1.66898811391139  1.29438880278028  4.03080146804681
 1 -1.87352373347335  2.61137495729573  2.84366178797880
 1 -6.51298474937494  2.32455125862586  1.84174640764076
 1 -7.60998076507651  0.84820462966297  1.62562957365737
 1 -7.93072901010101  2.53068915201520  0.74923340354035
 1  1.06560926932693  1.83945598219822  1.34262232953295
 1  0.21391450395039  2.14762158415842  2.98889471367137
 1  1.78693301970197  0.30649129412941 -0.27441280658066
 1  2.33929172137214 -4.87439126952695 -1.66401101080108
 1  0.58799059655966 -4.46206605410541 -1.31721020442044
 1 -7.92950401220122  0.53212344294429 -2.82059799799980
 1  1.39838202710271 -4.65429660936094  1.27848542514251
 1  2.96331260136014 -5.20482768726873  1.00476829172917
 1  4.41549661196120 -4.28925637783778 -2.00364382548255
 1  5.37402850125012 -3.11063991419142 -1.00455407300730
 1  5.07470890399040 -2.53501573417342 -2.65655472907291
 1  4.74621424092409 -0.01853394789479 -1.99246542224222
 1 -9.46963056355636  1.21999945544554 -0.23788647844784
 1 -10.02528066166617  0.64786620232023 -2.04692079207921
 1  4.02312699919992  2.84604798849885  3.24545931163116
 1  6.16811027922792  1.57848999819982 -2.26455527052705
 1  4.78267896769677  5.58185094929493 -0.39666828672867
 1  4.68378040054005  5.59977674337434 -2.22560510541054
 1  3.39197686728673  5.92963256965696 -0.93532527412741
 1  1.23038034613461 -8.17627878497850  1.36957301220122
 1  7.88267071147115  3.36633217311731 -2.59576684998500
 1  6.51765365286529  4.74094960716072 -2.13304565706571

