%nproc=4
%Mem=4GB
# td=(NStates=1) B3LYP/SVP 

TD

0 1
 8 -5.32615884588459 -0.13799836023602 -3.18962875257526
 8  3.19142914841484  2.80109736443644  3.08256433483348
 8  3.42394074267427  0.61974737373737  2.92390427552755
 8  1.52654029352935 -7.12933920402040  1.47231573787379
 8  0.69074396239624 -7.07270369396940 -0.67241522442244
 8  1.69582663076308  4.01940506330633  0.06661616901690
 7 -2.31106071717172 -0.92651108130813  0.62586960356036
 7 -4.36408128952895  0.43494116061606 -1.18730708550855
 7  1.90710110171017 -0.60699227222722 -0.29029750735074
 7  2.52446798869887  1.92804855035504 -0.54738148484849
 6 -4.74809120032003  1.16241773877388  0.04259005880588
 6 -4.48368576137614  0.31899206450645  1.31394875257526
 6 -2.98412350795080  0.05944620132013  1.39724173717372
 6 -1.97932702940294  0.69988494569457  2.16640981058106
 6 -0.66744335463546  0.09056362086209  1.85114579217922
 6 -0.97209139693969 -0.97075013391339  0.85549736913691
 6 -6.21132348844885  1.47454524382438 -0.14507972337234
 6  0.62546115271527  0.21645232173217  2.59427844794479
 6 -6.62907342184218  0.78047729612961 -1.33208893759376
 6 -0.22690894699470 -1.93324206110611  0.17196927842784
 6  1.10996789298930 -1.83398294489449 -0.38651023322332
 6 -5.44010461076108  0.27612582728273 -2.09121643314331
 6  1.88881296649665 -2.79392993139314 -0.91326833613361
 6 -2.20149585048505  1.76993275017502  3.06061045124512
 6 -7.20342783598360  2.13944207340734  0.80739472537254
 6  3.09714604830483 -2.24055400660066 -1.38039928502850
 6  1.21866789408941  1.64079257265727  2.64304794069407
 6  3.04601267656766 -0.86584521012101 -0.99249323752375
 6  1.44100787098710 -4.37058302270227 -0.97058877577758
 6 -7.91800770677068  0.64249588718872 -2.02028041584158
 6  1.68048561416142 -5.09957089168917  0.39778577407741
 6  4.37246285528553 -2.94959342814281 -1.86186541784178
 6  3.92591346194619  0.12576197969797 -1.34368905130513
 6  2.68660928212821  1.63293088128813  2.88403430333033
 6  3.71891626942694  1.48010342184218 -1.05719228652865
 6 -9.17134211761176  0.70432259255926 -1.49803461876188
 6  1.17074213891389 -6.48002465266527  0.26868552755276
 6  4.59810864546455  2.62057881278128 -1.37915499859986
 6  3.89988925732573  3.80429095279528 -0.96643793809381
 6  2.55654722552255  3.34963281438144 -0.43873263596360
 6  5.88206181148115  2.49104394499450 -2.08814076917692
 6  4.26074169396940  5.23040791659166 -1.10038205160516
 6  6.67751780938094  3.45942162696270 -2.57683216011601
 1 -4.28247273337334  2.22865394549455  0.08137117741774
 1 -5.11751640854085 -0.65632710881088  1.14971971617162
 1 -4.53884072397240  0.80900490019002  2.36939384908491
 1 -2.82682172207221 -1.63877127262726 -0.06405332713271
 1 -3.35903690099010  0.53477539463946 -1.49436698759876
 1  0.63383781848185 -0.08799848784878  3.55186473457346
 1  1.24338834823482 -0.40210487788779  2.14145927872787
 1 -0.76985564646465 -2.79367683268327 -0.32839783748375
 1 -3.38111825712571  2.15943720782078  3.18769875957596
 1 -1.95461667676768  1.49005836973697  4.16436482438244
 1 -1.56278265936594  2.70947476727673  2.77806522832283
 1 -6.70251370227023  2.80027883138314  1.42395462846285
 1 -7.70028979597960  1.56392620182018  1.47882489318932
 1 -8.04372030923092  2.73807989108911  0.29054753495350
 1  0.95941865026503  2.11368340494049  1.71341940924092
 1  0.77611072357236  2.24415123712371  3.52605843004300
 1  1.47534186058606  0.33938458345835 -0.15801116641664
 1  2.13408120032003 -4.89700353075308 -1.64868947864786
 1  0.38862065956596 -4.38444829232923 -1.29035751915191
 1 -7.75259632143214  0.54167439803980 -3.06770270847085
 1  0.91543373227323 -4.75544672437244  1.21293887048705
 1  2.80335660576058 -5.06162336683668  0.75844365926593
 1  4.16053111541154 -4.00883833603360 -2.16339980108011
 1  5.28529962836284 -2.65969481968197 -1.15855947354736
 1  4.75192662576258 -2.46959919251925 -2.92825189878988
 1  4.88339795929593 -0.15613770827083 -1.79699587528753
 1 -9.29401300180018  0.67922537803780 -0.38005069486949
 1 -9.97933606720672  0.57704912061206 -2.25354145414541
 1  4.08140282678268  2.55706909060906  3.39429419511951
 1  6.35593906210621  1.53379552875288 -2.14876369136914
 1  5.43492419221922  5.37120988518852 -0.76369498939894
 1  4.33865588808881  5.62607937363736 -2.01767431233123
 1  3.38748641824183  5.49639924632463 -0.45024676627663
 1  1.20191749984999 -7.98828998609861  1.38860491539154
 1  7.46664910931093  3.24052959285929 -3.09833710701070
 1  6.31757364486449  4.35013052525253 -2.41671402390239

