%nproc=4
%Mem=4GB
# td=(NStates=1) B3LYP/SVP 

TD

0 1
 8 -5.16969319931993  0.32804824442444 -3.32958274797480
 8  3.05564557005701  2.95694294899490  2.97706378477848
 8  3.35018336693669  0.77455285428543  2.87065895099510
 8  1.58214585408541 -7.14745101520152  1.61102960926093
 8  0.66818170617062 -7.05378180178018 -0.49920790369037
 8  1.66499354745475  3.85766888968897  0.20663017041704
 7 -2.31606121722172 -0.90780921112111  0.54836185278528
 7 -4.26694157555756  0.64438210471047 -1.18953730853085
 7  1.75443583518352 -0.60963253625363 -0.49114759235924
 7  2.53921946384638  1.84931067656766 -0.43551029772977
 6 -4.70121651285129  1.16566806380638  0.07311311111111
 6 -4.42976036883688  0.21752191749175  1.23102045974597
 6 -2.89391448704871  0.05542579927993  1.47954996799680
 6 -1.90838993569357  0.50850580778078  2.30587375697570
 6 -0.65083169346935 -0.05332076757676  1.83948462606261
 6 -1.00108429622962 -0.97915097399740  0.83827564696470
 6 -6.27734009010901  1.29847763706371 -0.15226044144414
 6  0.63124173077308  0.13699437593759  2.55696471657166
 6 -6.65329584408441  0.83943319171917 -1.40068579727973
 6 -0.16334259035904 -1.97051578847885  0.08268034953495
 6  1.04373126932693 -1.78621816841684 -0.36794837703770
 6 -5.36703730403040  0.56541475617562 -2.16833414491449
 6  1.96618070327033 -2.84968550695069 -0.82270928022802
 6 -2.22379808070807  1.54590034693469  3.33803819401940
 6 -7.07684517771777  1.78219634883488  0.99858384428443
 6  3.12574890859086 -2.32067201840184 -1.21831307640764
 6  1.13491951925193  1.66619511291129  2.66208984488449
 6  3.05174324962496 -0.91013963956396 -0.98189217741774
 6  1.47388115831583 -4.32974893929393 -0.92142385928593
 6 -7.96053195919592  0.86041767936794 -2.14683307110711
 6  1.71766933253325 -5.12949388398840  0.43717971347135
 6  4.22236784578458 -2.99569803860386 -1.85946517781778
 6  3.92167303790379  0.10153955745575 -1.31038572097210
 6  2.55543616481648  1.68814640284028  2.81731763166317
 6  3.63957833563356  1.53911932343234 -1.12007857515752
 6 -9.20171515491549  0.83589574987499 -1.64323913921392
 6  1.36705176987699 -6.61534818501850  0.38306696569657
 6  4.54582341694169  2.67715447034703 -1.49958704180418
 6  3.91224049244925  3.80673119681968 -1.03105439973997
 6  2.61811338213821  3.34362221332133 -0.34368313101310
 6  5.79104270957096  2.52409725032503 -2.29680163526353
 6  4.24117973777378  5.12546742254225 -1.01432344574457
 6  6.61681173877388  3.46492217701770 -2.86615109200920
 1 -4.00380486658666  2.00021110121012  0.46321936223622
 1 -4.79786444334433 -0.77953943004300  1.11112585678568
 1 -4.81096793669367  0.66175017471747  2.12200911061106
 1 -2.77039607950795 -1.42433982948295 -0.14817173897390
 1 -3.23577457475748  1.02443436053605 -1.45048259915992
 1  0.70136457115711 -0.17909759775978  3.60812036013601
 1  1.52278628802880 -0.35674034143414  2.12566769956996
 1 -0.58151681258126 -3.08936640164016  0.02199720202020
 1 -3.33969411471147  1.75360662476248  3.41587157685769
 1 -1.68247946304631  1.08990835473547  4.21393978187819
 1 -1.55942232333233  2.32976679647965  3.05676309810981
 1 -6.58302175307531  2.39194799829983  1.66471870487049
 1 -7.54205397239724  0.82121193039304  1.48617562826283
 1 -8.02870880808081  2.34818090119012  0.71756023622362
 1  0.85162787118712  2.53003504010401  1.89877794509451
 1  0.73516662916292  2.27355417741774  3.50695651985199
 1  1.41343566996700  0.34304494949495 -0.32986835213521
 1  2.08545633783378 -5.00690452085208 -1.75494010371037
 1  0.59172096959696 -4.35901574907491 -1.20462894629463
 1 -7.82210327212721  0.88002823342334 -3.39994593279328
 1  1.25404759365937 -4.79256043574357  1.40521809840984
 1  2.76697296739674 -5.35534273877388  0.71596941184118
 1  3.93534859715972 -4.14661211341134 -2.09700316141614
 1  5.28002910131013 -3.01020987118712 -1.38795241284128
 1  4.28164959805981 -2.41955418801880 -2.88952802640264
 1  4.91682130163016 -0.22618471297130 -1.59000517621762
 1 -9.31990559105911  0.86841429692969 -0.59135182498250
 1 -9.99376751035103  0.71315273097310 -2.39928602860286
 1  4.00208489498950  2.80539392309231  3.11795656135614
 1  6.09162263046305  1.46146829602960 -2.31636045104510
 1  5.38877957775778  5.40144290849085 -0.68114673457346
 1  3.95234725722572  5.61973873957396 -2.03540608550855
 1  3.46736440604060  5.62826243264326 -0.34801654325432
 1  1.51194850295030 -8.08040919801980  1.39351540644064
 1  7.51558400280028  3.11984752465247 -3.50831810511051
 1  6.59990187768777  4.50247575977598 -2.36405875837584

