%nproc=4
%Mem=3GB
# td=(NStates=1) B3LYP/SVP 

TD

0 1
 8 -3.48586549674967 -1.21653670917092 -2.87347800210021
 8  2.96615707050705  3.22968462696270  3.20720499139914
 8  3.72999730793079  1.38806593489349  4.32052649624963
 8  7.63287189008901 -1.63869998419842 -0.57046780858086
 8  6.81333548994899 -3.07740853575357 -2.09534598269827
 8 -2.61430233673367  1.62000748984898  1.39854991549155
 7 -0.21407715391539 -2.45434174847485  0.84382922372237
 7 -2.75896793479348 -1.26484161916192 -0.65495764036404
 7  1.17472902230223  0.09547045674567 -0.87404234143414
 7 -0.98166731223122  1.54294970287029 -0.28478937683768
 6 -3.38213336303630 -1.39747731013101  0.63554052795280
 6 -2.62483110921092 -2.48636278247825  1.62910821762176
 6 -1.19647528922892 -1.99982779677968  1.68224621322132
 6 -0.61160096239624 -1.23365455715572  2.72002002250225
 6  0.77871898449845 -1.05008000900090  2.45967716231623
 6  1.00955364156416 -1.82593902860286  1.15873067706771
 6 -4.79347429402940 -1.95708135683568  0.32594948224822
 6  1.81026561796180 -0.27117744734473  3.10427258175818
 6 -4.86302266366637 -2.16218492689269 -1.05138547904790
 6  2.05223317971797 -1.82550074227423  0.18257053575358
 6  2.10679670157016 -0.90352226442644 -0.77807170867087
 6 -3.66954162406241 -1.55744771007101 -1.63401068446845
 6  3.07682874607461 -0.67311806010601 -1.81341524042404
 6 -1.37401597379738 -0.60489434643464  3.84173968226823
 6 -5.80806603070307 -2.22509899019902  1.44660566616662
 6  2.68060771767177  0.45491285948595 -2.48428303830383
 6  1.75074450685069  1.31492718471847  2.87472411401140
 6  1.42138550505051  0.93743039163916 -1.82385849184918
 6  4.30813616271627 -1.48593802290229 -2.05905553565357
 6 -5.93991832793279 -2.57329942034203 -1.78770221842184
 6  5.44912046304631 -1.21151289648965 -1.11977539443944
 6  3.31443153855386  1.29832823542354 -3.57579408860886
 6  0.55498792289229  2.05118026492649 -2.02731447654765
 6  2.95907454775478  1.91832141764176  3.58421376657666
 6 -0.51761559315932  2.38498313051305 -1.19140442834283
 6 -6.94943887038704 -3.31431519561956 -1.51568012671267
 6  6.64861443104310 -2.12809106420642 -1.34476516651665
 6 -1.26147480228023  3.58440067326733 -1.20294836953695
 6 -2.25411950135013  3.39255973497350 -0.23339124532453
 6 -2.10724299669967  2.05325625912591  0.37173610561056
 6 -1.14199417781778  4.62808906910691 -2.17631939993999
 6 -3.46217685418542  4.13808429132913  0.16023026272627
 6 -1.72917680888089  5.82626804500450 -2.21255498829883
 1 -3.38842733593359 -0.54360985088509  1.19751395599560
 1 -2.63348497489749 -3.57352247724772  1.18145849494949
 1 -3.15698551835184 -2.47573101750175  2.59426881558156
 1 -0.39774507930793 -2.94182294739474 -0.03341633163316
 1 -2.16285467516752 -0.57204350785078 -0.79719382178218
 1  1.70635859725973 -0.44285573937394  4.08128022712271
 1  2.84677201010101 -0.62702459375938  2.76946187558756
 1  2.85986480038004 -2.41600318321832  0.30797385058506
 1 -2.21866449574958 -1.51898117211721  3.94130119191919
 1 -0.75793556155616 -0.35362956655666  4.88916527302730
 1 -1.71673098689869  0.57092953965397  3.51665043034303
 1 -5.48163895109511 -1.68650678187819  2.59724401740174
 1 -5.82386114681468 -3.25715982058206  2.03401624792479
 1 -6.68116549334934 -1.83380902430243  1.13909027072707
 1  1.75659179857986  1.51117105900590  1.77277488878888
 1  0.78146809830983  1.61689393369337  3.32636060976098
 1  0.33337159475948  0.22651702150215 -0.24826685898590
 1  4.38763448264827 -1.44740779977998 -3.16994259615962
 1  3.93032386218622 -2.56657843704370 -2.09180628862886
 1 -5.70236237463746 -2.25444636923692 -2.95498896269627
 1  4.95675359665967 -1.26846732663266 -0.16225300160016
 1  5.91559300060006 -0.25128212431243 -1.43943842634263
 1  4.20689060056006  0.68477496959696 -3.85514374387439
 1  3.58221397299730  2.35141622032203 -3.15464780018002
 1  2.64000979027903  1.43381787968797 -4.44658781078108
 1  0.94924883488349  2.73674517101710 -2.81053194519452
 1 -7.59166825292529 -3.53153533743374 -0.44545356655666
 1 -7.67827609250925 -3.54913624412441 -2.22437549104911
 1  3.90781450895089  3.48963832483248  3.60053330753075
 1 -0.53419729852985  4.50933221272127 -3.10583847924792
 1 -3.94884347394739  4.39909649144914 -0.86794794629463
 1 -4.08697744744475  3.27892268586859  0.73494430583058
 1 -3.11120943714371  5.08134842594259  0.74920068996900
 1  8.34221991549155 -2.29271242544254 -1.03741437643764
 1 -1.69798272287229  6.40910136723672 -3.12329718191819
 1 -2.44988734163416  6.37625900170017 -1.40683659115912

