%nproc=4
%Mem=3GB
# td=(NStates=1) B3LYP/SVP 

TD

0 1
 8 -3.31684859505951 -1.44159921542154 -2.88746940124012
 8  2.98004845964596  3.12225388388839  3.10998526942694
 8  3.76630093829383  1.39695682398240  4.34764920852085
 8  7.79327793069307 -1.48298441264126 -0.75633639543954
 8  6.70694485088509 -2.98716951185118 -1.96949339743974
 8 -2.56473738023802  1.61325681478148  1.46757681818182
 7 -0.22534828102810 -2.32072838713871  0.85463030383038
 7 -2.70037207520752 -1.23219835483548 -0.66738888348835
 7  1.12995454485449  0.06019692939294 -0.71310624782478
 7 -1.01514065956596  1.40927633553355 -0.19449034693469
 6 -3.37214236393639 -1.34158172057206  0.59428640254025
 6 -2.63681230733073 -2.20202434863486  1.55613091989199
 6 -1.21659730143014 -1.97385519951995  1.75440342894289
 6 -0.54215401770177 -1.24617580928093  2.85353337383738
 6  0.74602571517152 -1.20435543654365  2.44994618921892
 6  0.98205089128913 -1.91768820352035  1.25535033903390
 6 -4.81867681428143 -1.86061170987099  0.32052894019402
 6  1.84955954735474 -0.35854618421842  3.23376553105311
 6 -4.83455981738174 -1.97710641904190 -1.07569791029103
 6  2.07020497689769 -1.86491468366837  0.24535681438144
 6  2.12178820072007 -0.88303021522152 -0.62719662116212
 6 -3.57551222112211 -1.44764672997300 -1.66272355575558
 6  3.09394045724572 -0.71063181148115 -1.70857475637564
 6 -1.32119069126913 -0.54796865386539  3.93169867816782
 6 -5.84879010311031 -2.13880036033603  1.25558656425643
 6  2.56785644254425  0.41292866106611 -2.39318392839284
 6  1.95053448584858  1.05864155615562  2.70302694429443
 6  1.42759612611261  0.95341198979898 -1.73809991599160
 6  4.26220156925693 -1.49024845394539 -2.13641327142714
 6 -5.96968130423042 -2.50565265566557 -1.95801925012501
 6  5.38560411141114 -1.12332407760776 -1.07906132303230
 6  3.11189128452845  1.11397980058006 -3.72039854905491
 6  0.41439386348635  1.92312745964596 -2.10488223332333
 6  3.02701134143414  1.85666525202520  3.56546189138914
 6 -0.65756958855886  2.25574020622062 -1.22481776967697
 6 -6.96560048654865 -3.36605036913691 -1.63079163786379
 6  6.61761133073307 -1.92528078317832 -1.40270096009601
 6 -1.42051070587059  3.55224745794579 -1.16018409310931
 6 -2.33087717711771  3.38479895889589 -0.17789569576958
 6 -1.99587185958596  2.02483341684168  0.38962789478948
 6 -1.07593757215722  4.58409466966697 -2.12218398639864
 6 -3.44473511001100  4.26972745564556  0.15666990669067
 6 -1.79391328252825  5.79793521172117 -2.24588832163216
 1 -3.50274876807681 -0.40424591449145  0.81593579817982
 1 -2.69939156555656 -3.22132725772577  1.17903825292529
 1 -3.06794661446145 -2.09719316371637  2.47550693939394
 1 -0.38787409220922 -2.75389415451545 -0.12463545354535
 1 -2.08825721542154 -0.54791109460946 -0.74415851825183
 1  1.43347130853085 -0.43204465826583  4.40793289238924
 1  2.83556088898890 -0.73270516181618  3.43908883828383
 1  2.75059387328733 -2.74239582248225  0.32931598479848
 1 -2.08472110141014 -1.00909018301830  4.46467352915292
 1 -0.39667943594359 -0.28282248584858  4.72454881138114
 1 -1.71063037683768  0.32213466016602  3.46773553885389
 1 -5.63771455865587 -1.76831496269627  2.28887318031803
 1 -5.94254301500150 -3.21691579617962  1.68898174447445
 1 -6.79364674147415 -1.78594423782378  0.67179354105411
 1  2.19532567196720  1.13917385928593  1.67260487178718
 1  1.08914886638664  1.60383262756276  2.89048702240224
 1  0.15279353695370  0.32232660246025 -0.12519455175518
 1  4.63601932113211 -1.52958601760176 -3.08320392229223
 1  4.16025685548555 -2.53579535873587 -1.91036814481448
 1 -5.82848498689869 -2.04536546114611 -2.99348281208121
 1  5.08378629992999 -1.31748222812281 -0.19399617591759
 1  5.61354279557956 -0.08821581768177 -1.12038652115212
 1  4.13356326782678  0.54171066316632 -3.99506773627363
 1  3.47586333793379  2.15056613531353 -3.56570890629063
 1  2.44915070437044  1.14472897079708 -4.71820497249725
 1  0.81026493649365  2.49821131763176 -3.08028892089209
 1 -7.20835992209221 -3.59565174907491 -0.61879090029003
 1 -7.84731299619962 -3.59717104760476 -2.31097415091509
 1  3.40865459295930  3.82460182118212  3.60327358155816
 1  0.09255537673767  4.64277555705570 -2.77431532693269
 1 -4.06166475607561  4.12665924772477 -0.80236138763876
 1 -4.11320006970697  3.76005079867987  0.99105991739174
 1 -3.36353466966697  5.39477976907691  0.61074684458446
 1  8.47973366686669 -1.86441959615962 -1.24267490249025
 1 -1.67236016061606  6.69188964606461 -3.06824167636764
 1 -2.67084943784378  6.18706008180818 -1.57442334983498

