%nproc=4
%Mem=3GB
# td=(NStates=1) B3LYP/SVP 

TD

0 1
 8 -3.10746765696570 -1.39758481398140 -2.86284693899390
 8  3.09652010681068  3.17112877137714  3.13913818471847
 8  3.77638194639464  1.38204533283328  4.36694113771377
 8  7.59201780468047 -1.63181929612961 -0.58879964176418
 8  6.50946510291029 -3.11835263016302 -1.80694714281428
 8 -2.75077598409841  1.60595608470847  1.44326438693869
 7 -0.21299704590459 -2.46719303360336  0.95129997079708
 7 -2.62074411241124 -1.17862299729973 -0.55379752435244
 7  1.10855240464046  0.01738264796480 -0.74169910711071
 7 -1.12840198569857  1.48474388228823 -0.20959185708571
 6 -3.25114026372637 -1.39307687008701  0.73181015491549
 6 -2.63300192629263 -2.35872001820182  1.70790609740974
 6 -1.15874151585159 -1.95661347534754  1.82451043964396
 6 -0.50579038133813 -1.16360755245525  2.77664568506851
 6  0.86333744634463 -1.06991199219922  2.46904809940994
 6  0.96706939313931 -1.93721015571557  1.22196700070007
 6 -4.56243118971897 -1.87464311301130  0.22288917621762
 6  1.89218380978098 -0.46124645424542  3.15478763326333
 6 -4.65856221762176 -2.06686539493949 -1.11601194169417
 6  2.04323227962796 -1.92692088428843  0.18972125082508
 6  2.06907292919292 -1.07073898609861 -0.80304420592059
 6 -3.41931660156016 -1.45736770207021 -1.69986727012701
 6  2.96458752195220 -0.69567031533153 -1.88092199109911
 6 -1.23425199739974 -0.30491434843484  3.83185869416942
 6 -5.85295051915192 -2.11446792709271  1.11670267586759
 6  2.47241689858986  0.52276964516452 -2.48393300330033
 6  2.06221565396540  1.01175686768677  2.67220386198620
 6  1.32039540604060  0.91333798239824 -1.75468157415742
 6  4.22672802190219 -1.42521195029503 -2.15414504460446
 6 -5.75424976107611 -2.49987207760776 -2.07957140534053
 6  5.34588013901390 -1.08696044124412 -1.14501791869187
 6  3.06583667906791  1.18662706530653 -3.63469997919792
 6  0.40077250135014  1.99027417431743 -2.03223496859686
 6  3.10034867516752  1.92391197669767  3.46724206940694
 6 -0.72052588418842  2.26785141734173 -1.25105039293929
 6 -6.79924385088509 -3.16492025612561 -1.71779033773377
 6  6.53065263486349 -1.99708796389639 -1.28936962696270
 6 -1.53278193299330  3.53626585978598 -1.22001007570757
 6 -2.38867295669567  3.38982946194619 -0.16428433463346
 6 -2.12127439983998  2.08158909240924  0.46371530353035
 6 -1.20916089448945  4.62667892809281 -2.15909767776778
 6 -3.37085772227223  4.24093457635764  0.41645588528853
 6 -1.96795068626863  5.77280269846985 -2.35328906170617
 1 -3.37569606280628 -0.43284877477748  1.11446565116512
 1 -2.76003763016302 -3.40584570957096  1.29467981708171
 1 -3.34839465926593 -2.46267971237124  2.43155254395440
 1 -0.50936624142414 -2.90406917201720  0.05089209920992
 1 -1.86854524422442 -0.30473677717772 -0.56585068746875
 1  1.86021398279828 -0.37823927772777  4.27636973607361
 1  2.89871720462046 -0.92138402970297  3.12421735113511
 1  2.85486430033003 -2.74678626152615  0.38876192939294
 1 -1.77789041834183 -1.05426470047005  4.43499056085609
 1 -0.48390815881588  0.03795959235924  4.51913827032703
 1 -1.71388070187019  0.68359080578058  3.38205697099710
 1 -5.75353614081408 -1.44447257845785  2.05564985798580
 1 -5.69142790349035 -3.07583168776878  1.56583943024302
 1 -6.75259263606361 -2.03904954835484  0.47214357605761
 1  2.34501064046405  1.16127606950695  1.58577618891889
 1  1.00468041954195  1.37107935223522  2.75204317801780
 1  0.19559781738174  0.12765713551355 -0.29548158045805
 1  4.57149286848685 -1.24044710371037 -3.20798640054005
 1  3.94739556935694 -2.52360413961396 -1.92626973497350
 1 -5.79420155855586 -2.16211713631363 -2.99145260906091
 1  4.99753767506751 -0.94316479637964  0.07476069976998
 1  5.61435287658766 -0.02524952105211 -1.31546602910291
 1  3.92165207670767  0.86720321242124 -4.21297952745275
 1  3.00167591919192  2.36382746144614 -3.41418375377538
 1  2.25549133843384  1.14065856375638 -4.53077622962296
 1  0.42935684568457  2.53780527702770 -3.07298819081908
 1 -6.83734282038204 -3.85076726062606 -0.70977999919992
 1 -7.72903116801680 -3.25595692619262 -2.39944299779978
 1  3.79434316181618  3.44206356735674  3.95329858405840
 1 -0.32243612241224  4.41347262676268 -2.81285918131813
 1 -4.20836942654265  4.49789637143714 -0.22126327782778
 1 -3.98561731143114  3.66837163076308  1.13023383478348
 1 -2.78682699889989  5.12502279337934  0.80728649854985
 1  8.30920661416142 -2.29140229442944 -0.71500213521352
 1 -1.53264618921892  6.55415587268727 -3.12319717191719
 1 -2.81484383728373  6.02308368416842 -1.67489339683968

