%nproc=4
%Mem=4GB
# td=(NStates=1) B3LYP/SVP 

TD

0 1
 8 -5.47551378137814 -0.03520808120812 -3.35519530923092
 8  3.06792679817982  3.08397565226523  3.23606968536854
 8  3.43937228582858  0.79872527152715  2.70928281338134
 8  1.52822046154615 -7.22197846794679  1.43863236953695
 8  0.74068895689569 -6.97766419001900 -0.63776175907591
 8  1.84063111121112  3.97038016081608  0.10042955035504
 7 -2.37381699279928 -0.84657308750875  0.68621563816382
 7 -4.46436131753175  0.43439110561056 -1.35416377117712
 7  1.94295468706871 -0.69151072407241 -0.24924340194019
 7  2.57105264716472  1.90889663516352 -0.30276702340234
 6 -4.74028041924192  1.18015951295130 -0.12974717491749
 6 -4.39097649044905  0.38477864316432  1.26127348504850
 6 -3.00306540214021  0.03874413111311  1.44342635563556
 6 -1.95365446214621  0.67368232543254  2.20186335593559
 6 -0.66459306960696  0.02204676917692  1.81610228782878
 6 -0.97106129392939 -0.96251931083108  0.85184700410041
 6 -6.30726308240824  1.36059384868487 -0.24105932133213
 6  0.64580318691869  0.15293597009701  2.56932595269527
 6 -6.71610212471247  0.84476372477248 -1.42228795749575
 6 -0.14113036913691 -1.89095783268327  0.24173625512551
 6  1.14765166136614 -1.79246879347935 -0.31685326752675
 6 -5.56327692799280  0.27892610731073 -2.13818112961296
 6  1.90180426562656 -2.90803134153415 -0.93748075737574
 6 -2.06296199709971  1.78346410331033  3.19305369556956
 6 -7.14191168436844  1.94267239643964  0.95646963286329
 6  3.11081741544154 -2.35252520372037 -1.31601284638464
 6  1.16761278857886  1.67809630303030  2.61805544144414
 6  2.92872094739474 -0.85606423202320 -1.10547453565357
 6  1.53485725592559 -4.36118208260826 -0.92274399129913
 6 -8.03174908090809  0.80395203280328 -2.10471885968597
 6  1.83206077167717 -5.12354328892889  0.38058405390539
 6  4.23130873987399 -3.07761623042304 -1.95142437373737
 6  3.86390726132613  0.04173357685769 -1.34940962336234
 6  2.67300792199220  1.76438402660266  2.89757565746575
 6  3.63212759055906  1.49482489398940 -1.14116068336834
 6 -9.26884186758676  0.68542070237024 -1.39081389668967
 6  1.31067613231323 -6.51869852005201  0.30486914591459
 6  4.55044387898790  2.64243099799980 -1.49951703480348
 6  3.92332160056006  3.74130465416542 -1.00844213851385
 6  2.77208877967797  3.29363721482148 -0.31626038873887
 6  5.85778938423842  2.44770961156116 -2.11085304040404
 6  4.35263088288829  5.15233010881088 -0.92543455685569
 6  6.67812787038704  3.45498118291829 -2.46816129302930
 1 -4.32946743284328  2.24480556065607 -0.11217817751775
 1 -5.15853050995099 -0.59139061516152  1.35388013221322
 1 -4.60612745264526  1.12123612331233  2.03324023372337
 1 -2.89357839773977 -1.09928732423242 -0.19082600440044
 1 -3.54389538683868  0.45609752685269 -1.60203775467547
 1  0.74884931963196 -0.31348103610361  3.61757130523052
 1  1.54467847724773 -0.42754742214221  2.02344747754776
 1 -0.72520118101810 -2.79802726772677 -0.09677467516752
 1 -3.26154629992999  1.81353261736174  3.27102709240924
 1 -1.58527974307431  1.22280164406441  4.03284167206721
 1 -1.45292167326733  2.87321114091409  3.04282170397040
 1 -6.50119357025703  2.72178098159816  1.59058129112911
 1 -7.31023079007901  1.29093890309031  1.82552956365637
 1 -8.12416835403540  2.42503858695870  0.59157763796380
 1  1.07452016041604  2.17973000960096  1.78605667296730
 1  0.62826593909391  2.29853667566757  3.40660648484849
 1  1.49293361976198  0.27577822282228  0.09408404310431
 1  2.20952874507451 -4.93803763416342 -1.69318392809281
 1  0.58498029552955 -4.35478532603260 -1.28990747414741
 1 -7.98468953075308  0.58917914851485 -3.17688362656266
 1  1.45662785168517 -4.68776995669567  1.41851942854285
 1  2.92957922802280 -5.37224442894289  0.54476229112911
 1  4.04002906520652 -3.97112456465647 -2.19907336843684
 1  5.21701279967997 -3.15307415761576 -1.53745736333633
 1  4.46865829892989 -2.61878411101110 -2.92128120172017
 1  4.61866148564856 -0.10893298779878 -2.03676985268527
 1 -9.35629923042304  0.96280373587359 -0.30799348914891
 1 -10.14663279687969  0.46572798849885 -2.09999609960996
 1  3.98820350685069  3.06760014371437  3.10751551725173
 1  6.15984945314531  1.44575672487249 -2.27119593459346
 1  5.36152685248525  5.14723748794880 -0.55360398029803
 1  4.38701072357236  5.58585535123512 -2.02002454735474
 1  3.61117878747875  5.85770537693769 -0.34441618321832
 1  0.95437274537454 -8.07597875497550  1.57331338623862
 1  7.39793223762376  3.25265080498050 -3.09718699199920
 1  6.40914280178018  4.48791430363036 -2.27728008050805

