%nproc=4
%Mem=3GB
# td=(NStates=1) B3LYP/SVP 

TD

0 1
 8 -3.12091900210021 -1.45577063256326 -2.93745439973997
 8  3.23292374717472  3.02174383288329  2.92768703960396
 8  3.55108941714171  1.31758888718872  4.50467491109111
 8  7.63933253615362 -1.55832194639464 -0.57243800560056
 8  6.74520867726773 -2.96125692059206 -1.96712316041604
 8 -2.64173508000800  1.68155364446445  1.52794285478548
 7 -0.25023076927693 -2.41734804910491  0.93432827362736
 7 -2.54673671167117 -1.30299543454345 -0.70133227782778
 7  1.12939448884889  0.10195110481048 -0.74688962616262
 7 -0.99186833233323  1.47612302020202 -0.14919581748175
 6 -3.25974112381238 -1.25956351875188  0.63376034993499
 6 -2.63433205930593 -2.27564171037104  1.69040434723472
 6 -1.25630127182718 -2.01654946894690  1.74977296589659
 6 -0.58781858415842 -1.29323051475148  2.81435945644564
 6  0.77757887048705 -1.15890089108911  2.47633882848285
 6  0.97450013621362 -1.73435987068707  1.23992879687969
 6 -4.63733868046805 -1.81597724642464  0.19474636193619
 6  1.94675926732673 -0.46369669926993  3.15615777027703
 6 -4.72835919731973 -1.92694140254025 -1.10212055255526
 6  2.05321327772777 -1.83573176537654  0.28671094979498
 6  2.05931195309531 -0.90058197039704 -0.73258716021602
 6 -3.32906757665767 -1.64278624392439 -1.74978226162616
 6  2.83644470767077 -0.66949769806981 -1.88051195009501
 6 -1.22857142934293 -0.53307716471647  4.00234574287429
 6 -5.70257548164817 -1.85051153145315  1.21990299589959
 6  2.39037869476948  0.41620898909891 -2.57567217721772
 6  1.99483891629163  0.98441413341334  2.84367100870087
 6  1.37421078757876  0.97238388698870 -1.82955906190619
 6  4.17016236533653 -1.47242667176718 -2.14994462456246
 6 -5.83392772887289 -2.41974406480648 -1.96883033123312
 6  5.33467901890189 -1.18956070127013 -1.09823324022402
 6  3.08049814521452  1.16258466106611 -3.72303881308131
 6  0.47919034313431  2.03818896579658 -1.96495824092409
 6  3.02419105940594  1.83589317481748  3.50383572877288
 6 -0.64352818441844  2.31350598279828 -1.22834812271227
 6 -6.85302922942294 -3.25227899199920 -1.66858541724172
 6  6.64956452605261 -2.05548380348035 -1.26547723772377
 6 -1.53112176697670  3.50239247244724 -1.24676275097510
 6 -2.36996108550855  3.38002848184818 -0.15260316651665
 6 -2.06774904730473  2.13097403090309  0.53091202320232
 6 -1.39802978137814  4.53498975917592 -2.30768253625363
 6 -3.44168480498050  4.31953243614361  0.41069530923092
 6 -2.10077396859686  5.61021643984398 -2.39166289908991
 1 -3.16397489068907 -0.17103259315932  1.02048625322532
 1 -2.94934656105611 -3.50535566056606  1.46018636773677
 1 -3.11328114791479 -2.23614705910591  2.63619300800080
 1 -0.62581788658866 -2.75117388248825 -0.12762575257526
 1 -1.92212060176018 -0.52753905740574 -0.77593169556956
 1  1.96359432083208 -0.46497795159516  4.33994609370937
 1  2.75587292019202 -0.99095098639864  2.90709563896390
 1  2.63033184708471 -2.65963754665467  0.46953000620062
 1 -1.83709633893389 -1.22948222222222  4.46283334513451
 1 -0.37481724972497 -0.17136133973397  4.74667102360236
 1 -2.00404971877188  0.23279572627263  3.65667443274327
 1 -5.46151693889389 -1.16130426162616  2.03706799979998
 1 -5.62703146384638 -2.90249435403540  1.82410525682568
 1 -6.78407578437844 -1.64203984738474  0.80452681438144
 1  2.05360149954995  1.13668361026103  1.62290990229023
 1  0.98973892539254  1.37374961926193  2.81449942364236
 1  0.21435969356936  0.19318368816882 -0.25856788908891
 1  4.73559927912791 -1.33232629162916 -3.14202980488049
 1  3.89024985478548 -2.65357713691369 -2.07534464246425
 1 -5.67395953435344 -2.13240416501650 -2.93660712451245
 1  5.15163308460846 -1.34895537543754  0.02770599429943
 1  5.72019346064607 -0.12887988408841 -1.02041652415242
 1  4.00091000250025  0.61187767986799 -3.92247047654765
 1  3.24910066166617  2.15151623032303 -3.45051738713871
 1  2.44561035033503  0.93887838573857 -4.61459461146115
 1  0.62281619161916  2.64349584608461 -2.69101999399940
 1 -7.00377946404641 -3.84848703260326 -0.77472649384938
 1 -7.50753901880188 -3.36845817631763 -2.56315936943694
 1  3.86890061756176  3.45916527752775  3.41233448764876
 1 -0.79141302010201  4.49033031253125 -3.34613250865087
 1 -3.96707529712971  4.73358994079408 -0.42240339183918
 1 -4.00944969466947  3.65469026262626  1.06093690509051
 1 -2.86419473567357  5.23685397649765  1.06268203810381
 1  8.51981767526753 -1.97047020122012 -0.54648528352835
 1 -1.85395832043204  6.46219667676768 -3.11621647384738
 1 -2.82598495139514  5.96216759255926 -1.64613052055205

