%nproc=4
%Mem=3GB
# td=(NStates=1) B3LYP/SVP 

TD

0 1
 8 -3.29813672387239 -1.40240529602960 -2.81967262156216
 8  2.99502995779578  3.16130778927893  2.83431770267027
 8  3.68925323352335  1.58157528582858  4.27574201780178
 8  7.85513411631163 -1.67260337453745 -0.77228799059906
 8  6.71695585198520 -3.00070086498650 -2.08259470757076
 8 -2.67215812231223  1.53387887698770  1.38520858135814
 7 -0.33898964516452 -2.42795911021102  0.90267510831083
 7 -2.65360739873987 -1.25466060106011 -0.64804694929493
 7  1.15672722212221  0.09726063576358 -0.59792472967297
 7 -0.99451859735974  1.42102751065107 -0.13614451235124
 6 -3.39525467516752 -1.41337890029003  0.63688066196620
 6 -2.57617624372437 -2.32646679287929  1.59218452525253
 6 -1.26178181988199 -1.99449726372637  1.79386737533753
 6 -0.61686148844884 -1.15270646234623  2.73519153965397
 6  0.74757587018702 -1.12728772977298  2.40445163976398
 6  0.95267795399540 -1.90124655935594  1.30177498149815
 6 -4.64665961256126 -1.92520816951695  0.22791967926793
 6  1.82499709110911 -0.40975130473047  3.26157831233123
 6 -4.75290165156516 -1.93511221962196 -1.08550889138914
 6  2.03398135453545 -1.91050924312431  0.36214849354936
 6  2.12248827072707 -0.94613652585259 -0.61842574407441
 6 -3.55056972687269 -1.43063502880288 -1.67882516591659
 6  3.07817888108811 -0.59541028932893 -1.67575147404740
 6 -1.34362293449345 -0.52332618961896  3.82580808910891
 6 -5.81237646174618 -2.28191467176718  1.23328433403340
 6  2.53934359125913  0.49369673787379 -2.36662127212721
 6  1.94745417781778  1.07446313831383  2.66794343594359
 6  1.40422378887889  0.87230387898790 -1.73211931793179
 6  4.34748009710971 -1.39191862096210 -2.04242387248725
 6 -5.92334667076708 -2.29030112051205 -1.91694514271427
 6  5.44173972497250 -1.07132887808781 -1.07867128402840
 6  3.29721981738174  1.04997339993999 -3.59945645484548
 6  0.53280570467047  1.99543469036904 -2.03953569866987
 6  2.93910255055506  1.94438402390239  3.37856320152015
 6 -0.58835266686669  2.24784941714171 -1.16363165106511
 6 -7.07689161566157 -2.96487025112511 -1.65493405210521
 6  6.73151272087209 -1.95804405950595 -1.41019170917092
 6 -1.44318297309731  3.42131436463646 -1.12079015371537
 6 -2.43700779017902  3.30089056805681 -0.13515142134213
 6 -2.02912518491849  2.06828776227623  0.44826375837584
 6 -1.33699367776778  4.46544280448045 -2.18391015901590
 6 -3.46828746524652  4.21303178607861  0.39978421812181
 6 -1.79545343654365  5.66242166036604 -2.25214894769477
 1 -3.47062555575558 -0.39935542544254  1.02744694929493
 1 -2.77115874227423 -3.27577270227023  1.14684503360336
 1 -3.12419223902390 -2.30156360076008  2.62171155985599
 1 -0.47966327112711 -3.04955372047205  0.02537954795480
 1 -1.89762815251525 -0.65543184668467 -0.66433053545354
 1  1.60821878327833 -0.63839529332933  4.38173027212721
 1  2.78912624552455 -0.95683757505751  3.24630956035604
 1  2.54967378127813 -2.67580916381638  0.48954200740074
 1 -1.90584321362136 -1.19016829082908  4.62680974277428
 1 -0.60822059005901  0.11113691009101  4.48984534103410
 1 -2.24063337713771  0.20099254595460  3.39085785108511
 1 -5.32372315951595 -2.14960309150915  2.11449574257426
 1 -5.96651541224122 -3.47224132873287  1.12835568186819
 1 -6.77696507330733 -1.64523016641664  0.79988635033503
 1  2.26713285268527  1.10525046694669  1.47227483878388
 1  1.01686163766377  1.56197844214421  3.02186015971597
 1  0.29521777937794 -0.01520715091509 -0.22820485278528
 1  4.60881660086009 -1.25759881888189 -3.04282988488849
 1  4.16442727252725 -2.44214599379938 -2.02381948994900
 1 -5.53375551395140 -2.20399132373237 -2.99943340714071
 1  5.00786870817082 -1.13150363026303  0.05324854855485
 1  5.94296573787379 -0.07914491059106 -1.26633111561156
 1  4.11270118161816  0.32335882798280 -4.01852008150815
 1  3.87304305590559  2.02650372907291 -3.29285162056206
 1  2.72277806710671  1.28053255115512 -4.42794594659466
 1  0.69531344134413  2.77211870837084 -2.86695758775878
 1 -7.58181726782678 -3.19862204610461 -0.57301632283228
 1 -7.67553581848185 -3.02988431893189 -2.62845589908991
 1  3.68028175567557  3.73336269726973  3.23758701290129
 1 -0.79592347114711  4.12759403890389 -3.02038993439344
 1 -4.08403699329933  4.67127370917092 -0.45691684318432
 1 -4.06423517321732  3.76115090869087  1.11715252665267
 1 -2.92229054525453  5.23426371747175  0.66251202110211
 1  8.55620131363136 -2.27494064826483 -1.09206984198420
 1 -1.68289121372137  6.42106256335634 -3.00273512571257
 1 -2.36322867576758  6.12859423522352 -1.37571347884788

