%nproc=4
%Mem=4GB
# td=(NStates=1) B3LYP/SVP 

TD

0 1
 8 -5.18845507550755  0.20512595219522 -3.24485427512751
 8  2.97428743424342  2.85801305600560  3.37929400780078
 8  3.41390973957396  0.74786018501850  2.84507639273927
 8  1.56321396089609 -7.14858112821282  1.44672317861786
 8  0.53033792179218 -6.95928235183518 -0.48625660856086
 8  1.76638368646865  3.90938406120612  0.12377188458846
 7 -2.39900951205120 -0.95852428262826  0.77886490309031
 7 -4.33177805920592  0.53842150865087 -1.16260461526153
 7  1.98902929452945 -0.64266583958396 -0.27650612821282
 7  2.65224076597660  1.80796654215422 -0.44852159885989
 6 -4.79683607480748  1.08342983998400  0.05516131593159
 6 -4.44106149894990  0.23322348764876  1.27772513021302
 6 -2.93079817541754 -0.03989373267327  1.42124413741374
 6 -2.01839093579358  0.66992194939494  2.17301047064706
 6 -0.71626823712371 -0.04014945044504  1.87543822142214
 6 -1.01312550035004 -0.96565962486249  0.89481130053005
 6 -6.29256161226123  1.18414620392039 -0.22335755115512
 6  0.60411901850185  0.22553322982298  2.48691771187119
 6 -6.59027954245424  0.78359760816082 -1.41642737143714
 6 -0.16807306340634 -1.89003774067407  0.19535161666167
 6  1.24110100630063 -1.89352889948995 -0.23656523872387
 6 -5.33564416471647  0.46120433513351 -2.07122443394339
 6  1.90012409760976 -2.90025056345635 -0.88945595489549
 6 -2.25095079597960  1.75379113601360  3.04025841604160
 6 -7.13456094929493  1.81345947514752  0.88410239613961
 6  3.17310364406441 -2.23772372357236 -1.32204344944494
 6  1.12653868116812  1.64949344274427  2.67351098699870
 6  3.08790686598660 -0.85464409000900 -0.99895388358836
 6  1.47749151935194 -4.28488445284528 -0.95520723762376
 6 -7.87934384038404  0.80297193479348 -2.09263765156516
 6  1.76587415301530 -5.04749568416842  0.32287828332833
 6  4.16533214221422 -2.95947441624162 -2.17877710901090
 6  4.01809267986799  0.09618902240224 -1.33982866526653
 6  2.57384800600060  1.63135072327233  2.95980188008801
 6  3.77820219801980  1.48130354185419 -1.20602717001700
 6 -9.15831081448145  0.94400656095610 -1.51902671797180
 6  1.18208327302730 -6.39737638783878  0.36642530153015
 6  4.63080191479148  2.67412416731673 -1.55647273037304
 6  3.87219648804881  3.76809733343334 -1.16956825112511
 6  2.66033760456046  3.19773762486249 -0.38550731343134
 6  5.83182678797880  2.46239107970797 -2.18664061916192
 6  4.02069768956896  5.23808868466847 -1.31402341574157
 6  6.72970302790279  3.47546323112311 -2.43108758565857
 1 -4.43556804290429  2.11179225932593  0.21184422472247
 1 -4.82072672957296 -0.81602307840784  1.23782852705270
 1 -4.77262410231023  0.59033303300330  2.15668257795779
 1 -2.81041008090809 -1.89295669116912  0.14891796999700
 1 -3.31102209950995  0.75203712081208 -1.33749130003000
 1  0.66986142084208 -0.07548723672367  3.62024157225723
 1  1.28962297169717 -0.48895356275628  1.97800293309331
 1 -0.69061772267227 -2.90065753075308  0.21064606690669
 1 -3.18614876017602  1.66416768086809  3.63705369506951
 1 -1.39382059715972  1.70825018891889  3.78198658655866
 1 -2.27110349144914  2.94654847464746  2.56872429422942
 1 -6.41468491939194  2.57610641414141  1.59443167616762
 1 -7.61242100910091  1.05812562176218  1.67024403510351
 1 -8.01500743794379  2.35963204630463  0.50373885408541
 1  1.12106481488149  2.15102713931393  1.64053212051205
 1  0.50167327982798  2.21700852285228  3.29963578777878
 1  1.82182650905091  0.26739738473847  0.01116575127513
 1  2.14606239843984 -4.79098292869287 -1.80233484318432
 1  0.36891868936894 -4.43871371887189 -1.26249473287329
 1 -8.03045410721072  0.68496872747275 -3.21885782398240
 1  1.40490267916792 -4.49801098079808  1.27475505210521
 1  2.86566283638364 -5.01950915541554  0.69298711361136
 1  3.68964402670267 -4.05927337953795 -2.45272873397340
 1  5.34449554795480 -2.97560641084108 -1.76195981358136
 1  4.24205563866387 -2.60574280688069 -3.20081915551555
 1  4.80279989948995 -0.38472056655666 -2.01383755945595
 1 -9.31543514401440  1.10248770427043 -0.54184687448745
 1 -10.07091522512251  0.71799321502150 -2.12500860086009
 1  3.79797448394840  2.93190657435744  3.52948771447145
 1  6.22296576477648  1.54384653385339 -2.76318513351335
 1  5.14448514831483  5.63603636783678 -1.00333895379538
 1  3.88350037253725  5.53114988068807 -2.33472601750175
 1  2.89960763036304  5.54295390179018 -0.96431817341734
 1  1.09289659775978 -8.06939809690969  1.60397645254525
 1  7.70552299669967  3.25076061596160 -2.88906617991799
 1  6.65467735523552  4.58065357755776 -2.20010236273627

