%nproc=4
%Mem=3GB
# td=(NStates=1) B3LYP/SVP 

TD

0 1
 8 -3.38101501170117 -1.30056511201120 -2.83207386168617
 8  2.89080953575358  3.14792645114511  3.09513378427843
 8  3.53802811101110  1.51289841814181  4.39516395999600
 8  7.88685728862886 -1.76451256545655 -0.78490925272527
 8  6.79859401580158 -2.87922871777178 -2.38020446854685
 8 -2.76487739423942  1.62543803290329  1.44840490099010
 7 -0.15701144734473 -2.46469278357836  0.97602244304430
 7 -2.80192223022302 -1.19166430143014 -0.62123426802680
 7  1.23296484588459  0.04424533423342 -0.64814975217522
 7 -1.06395554105411  1.48684409230923 -0.11596249414941
 6 -3.33435858555856 -1.38204576697670  0.64149112301230
 6 -2.60028865496550 -2.37847199339934  1.54937024382438
 6 -1.21656729842984 -2.07736555055506  1.82345033363336
 6 -0.58483828612861 -1.24455564726473  2.73853187368737
 6  0.72305341794179 -1.17519252025203  2.50524171877188
 6  0.96372905910591 -1.80385682038204  1.33480828482848
 6 -4.78449339593959 -1.86808245694569  0.27936482378238
 6  1.95530012141214 -0.42248257785779  3.14153630813081
 6 -4.80244660606061 -2.03813252165217 -1.10449078957896
 6  2.20455841224122 -1.89782797499750  0.44051633033303
 6  2.07613363526353 -0.91102301450145 -0.62884678617862
 6 -3.59687435733573 -1.47765973127313 -1.62525980938094
 6  3.04885594879488 -0.68001875017502 -1.66370026892689
 6 -1.35941451365137 -0.57635149214921  3.83845935423542
 6 -5.85403062716272 -2.03426990729073  1.29422042764276
 6  2.61820147704770  0.42484985318532 -2.37829243924392
 6  1.87346677907791  1.05173086508651  2.71990863246325
 6  1.37497086358636  0.86821346994699 -1.71499760576058
 6  4.30313566266627 -1.45037446654665 -2.00448007810781
 6 -5.80614495059506 -2.54696678707871 -1.94220766896690
 6  5.56322187318732 -1.15754749995000 -1.11970538743874
 6  3.15634572997300  0.99998840144014 -3.71845835503550
 6  0.49868229232923  2.02646779367937 -1.96201794689469
 6  2.91102974327433  1.91301088658866  3.43156850205020
 6 -0.56438026962696  2.32798743094309 -1.17088237613761
 6 -6.95758968546855 -3.15825959005901 -1.61389994869487
 6  6.78294786438644 -1.98650690579058 -1.48657934793479
 6 -1.43657231203120  3.47898013121312 -1.26771484618462
 6 -2.37420150955096  3.33333381238124 -0.22951085728573
 6 -2.12234450685068  2.07881881538154  0.49239817181718
 6 -1.22582256065607  4.59028528872887 -2.21699346734673
 6 -3.45643628012801  4.39056953985398  0.10533477317732
 6 -1.73971786298630  5.81719713791379 -2.24503823662366
 1 -3.45271376457646 -0.47038252815281  1.28682288688869
 1 -2.50703232963296 -3.39974509950995  0.99963031213121
 1 -3.32029184898490 -2.27336078047805  2.51891127982798
 1 -0.24750005480548 -2.92308107320732  0.16010302030203
 1 -2.01030942064206 -0.60123642714271 -0.79163326572657
 1  1.90268823022302 -0.54826628042804  4.25731783088309
 1  2.90641797469747 -0.86063795509551  2.81414634403440
 1  3.14645345924593 -2.63762534543454  0.40789384258426
 1 -2.07999062836284 -1.31579085308531  4.24150121192119
 1 -0.69936970497050 -0.20787499109911  4.70132648914892
 1 -1.84732404620462  0.21885433213321  3.51447021232123
 1 -5.72191297849785 -1.60704883608361  2.26955124812481
 1 -6.06501526222622 -3.09306341094109  1.50879372567257
 1 -6.79131650845085 -1.83235887928793  0.82981934363436
 1  2.17192333173317  1.09598954085409  1.65286289758976
 1  0.91327127862786  1.61233347764776  2.84585255895590
 1  0.07062532013201  0.24873924372437 -0.18829086138614
 1  4.51152687188719 -1.32012507150715 -3.12457805970597
 1  4.19422025182518 -2.36037781698170 -1.74774188218822
 1 -5.57986012441244 -2.45490641524152 -3.07104056785679
 1  5.39545746704670 -1.57296777667767  0.15428865256526
 1  5.91600304160416 -0.11423841994199 -0.99070355285529
 1  3.96217612911291  0.46113260536054 -4.05721395089509
 1  3.54754050565056  2.04809588828883 -3.56828916431643
 1  2.31786757605761  0.73468796669667 -4.42627577957796
 1  0.83562747274727  2.85108660516052 -3.00224111611161
 1 -7.11005009110911 -3.37097928182818 -0.52142116331633
 1 -7.63108137303730 -3.44789612011201 -2.58693174667467
 1  3.68451217871787  3.56824618561856  3.49749300350035
 1 -0.67854173297330  4.16195747524753 -3.10960885628563
 1 -3.89055764536454  4.67195377717772 -0.99618076957696
 1 -4.25727447714771  3.95763055665567  0.78393920532053
 1 -3.26257457365737  5.16539683078308  0.73133890379038
 1  8.57248294179418 -2.37804095829583 -1.11405204020402
 1 -1.61708463306331  6.77452790989099 -3.03531838403840
 1 -2.22227458035804  6.26139751555156 -1.29486539403940

