%nproc=4
%Mem=4GB
# td=(NStates=1) B3LYP/SVP 

TD

0 1
 8 -5.32123835383538  0.28907434703470 -3.29489927962796
 8  2.95995600110011  3.04013126782678  3.21734781318132
 8  3.36021437003700  0.85758115711571  2.79547143224322
 8  1.91295893539354 -7.28023429352935  1.37396590289029
 8  0.52648753675368 -7.01574799839984 -0.36501448434843
 8  1.67785483358336  3.88287140994099  0.02154166156616
 7 -2.26841645274527 -0.99223765396540  0.67471448804880
 7 -4.35070995239524  0.70090775727573 -1.15679403420342
 7  1.82698308990899 -0.75957753075308 -0.42530100770077
 7  2.52493803570357  1.92954870037004 -0.40482722942294
 6 -4.74836122732273  1.26328782578258  0.07202300210021
 6 -4.37360475327533  0.24583474877488  1.23474083178318
 6 -2.96487158275828 -0.00375011831183  1.33801581458146
 6 -1.93164226092609  0.56754171137114  2.12023519311931
 6 -0.66092270257026 -0.03523895939594  1.77086776437644
 6 -0.92175636343634 -1.02846590549055  0.84119593899390
 6 -6.24696705280528  1.35933372267227 -0.18271348674867
 6  0.72903150975098  0.22230290679068  2.58325734583458
 6 -6.61891240574057  0.87414666306631 -1.37899362806281
 6 -0.14604086018602 -2.13054179107911  0.22283436493649
 6  1.07785468166817 -1.91058060466047 -0.32124370657066
 6 -5.35407600790079  0.55279349404941 -2.11180849234924
 6  1.98320240544054 -2.96764730313031 -0.91424843414341
 6 -2.15764146504650  1.63911966886689  3.18044243444344
 6 -7.14376186938694  2.04131226042604  0.81239522542254
 6  3.15214154785479 -2.40056000720072 -1.40494173927393
 6  1.07731375867587  1.62492098549855  2.68324196009601
 6  3.00296837213721 -0.93982260786079 -1.09339332753275
 6  1.59966373657366 -4.45757172157216 -0.94466618351835
 6 -7.89206511251125  0.85782742034203 -2.04568295609561
 6  1.77581514711471 -5.07540847544754  0.47060305580558
 6  4.37925353435344 -2.92873134193419 -1.92809204050405
 6  3.81116198679868  0.18868827232723 -1.42404708710871
 6  2.59341996319632  1.75894348254825  2.89297519741974
 6  3.59307368516852  1.45164057555756 -1.09529609690969
 6 -9.12024700810081  0.88612077237724 -1.50552536783678
 6  1.33358842354235 -6.45758240844084  0.40662932193219
 6  4.45935477007701  2.57950470537054 -1.40678776187619
 6  3.83058232663266  3.62175269896990 -0.97332862716272
 6  2.55680725152515  3.27469532063206 -0.44058282098210
 6  5.75415902120212  2.49063390399040 -2.13478543364336
 6  4.11597721752175  5.07744262006201 -0.93776578997900
 6  6.55890594819482  3.44723040784078 -2.64642911981198
 1 -4.27821230733073  2.33154423452345  0.34768780908091
 1 -5.12489714661466 -0.57903938003800  1.22209695389539
 1 -4.65048188808881  0.59595359505951  2.35224213391339
 1 -2.83735277517752 -1.76607400290029  0.12492557075708
 1 -3.36790778807881  0.63777569466947 -1.35672322322232
 1  0.33399783448345 -0.46654634263426  3.46356590469047
 1  1.44877888728873 -0.47003167056706  2.13563869666967
 1 -0.33657231813181 -3.24050151515152  0.20069507180718
 1 -3.27483762906291  1.84792605670567  3.45699568926893
 1 -1.51667288238824  1.48748811271127  4.14654304220422
 1 -1.83359974107411  2.70820464026403  2.83139056085609
 1 -6.56747019791979  2.64417322082208  1.39108134113411
 1 -7.84098386538654  1.35386519571957  1.37066407710771
 1 -7.78338427562756  2.84044012711271  0.12740122032203
 1  1.10144285268527  2.18057009360936  1.65210327762776
 1  0.57622073457346  2.31723854585458  3.42173799799980
 1  1.52648697509751  0.16045669066907 -0.30518588388839
 1  2.25814360656066 -4.82792662306231 -1.73334794449445
 1  0.62561435893589 -4.54199404690469 -1.14546302970297
 1 -7.60653171497150  1.03304353495350 -3.17532347054705
 1  1.21295348424842 -4.53629480918092  1.20637821442144
 1  2.95278154825483 -5.08080528502850  0.66326414131413
 1  4.29044410671067 -3.75273272547255 -2.41407486858686
 1  5.35231633003300 -2.94544339453945 -1.15522914051405
 1  4.64597603070307 -2.29342157475748 -2.86975604920492
 1  4.81463108260826 -0.09148124262426 -1.70364654035404
 1 -9.21311491199120  0.97332478797880 -0.44573726352635
 1 -10.00343847744774  1.14574599029903 -1.99493559355936
 1  3.87033171967197  3.06941032473247  3.24483924962496
 1  6.02850631883188  1.46622877207721 -2.24284309930993
 1  5.21606230603060  5.53795655985599 -0.70631925182518
 1  4.07270929342934  5.59632639833984 -1.95407795269527
 1  3.42164983458346  5.63644325072507 -0.33520526212621
 1  1.41673898199820 -8.15174633173317  1.29891594649465
 1  7.41313375777578  3.13645918581858 -3.20477775107511
 1  6.41639352685268  4.53635914811481 -2.51512386488649

