%nproc=4
%Mem=3GB
# td=(NStates=1) B3LYP/SVP 

TD

0 1
 8 -3.45381229142914 -1.60789584508451 -2.90372102640264
 8  2.76023647844784  3.23813547204720  3.37729200010001
 8  3.80449475767577  1.31113824212421  4.33102754635464
 8  7.79092769566957 -1.64884099829983 -0.71615237703770
 8  6.76374053045305 -2.95869666456646 -2.19819626772677
 8 -2.63184409090909  1.49235472457246  1.35777583808381
 7 -0.23200894709471 -2.45480179447945  0.83638847964796
 7 -2.80598263626363 -1.15740087508751 -0.62666481108111
 7  1.13195474487449  0.04283519321932 -0.76954189138914
 7 -0.96581572707271  1.47612302020202 -0.25387628552855
 6 -3.50352550225022 -1.31656921932193  0.69149612351235
 6 -2.66031465756576 -2.32313645984598  1.58873418021802
 6 -1.21695733743374 -2.06106392039204  1.79232722132213
 6 -0.55789559185919 -1.14338553025303  2.65606362686269
 6  0.84835594819482 -1.18842384338434  2.42133332793279
 6  1.04813749994999 -1.99693612831283  1.26861166516652
 6 -4.86984193079308 -1.83839948864887  0.27180406770677
 6  1.90012460386039 -0.40646097569757  3.20967312181218
 6 -4.94948130953095 -1.96805551395139 -1.00250059055906
 6  2.19450740714071 -1.90097829002900  0.24737701640164
 6  2.20696671857186 -0.88733064526453 -0.63190709220922
 6 -3.59037370727073 -1.54698666396640 -1.65665294869487
 6  3.03185424862486 -0.64127487578758 -1.69184308320832
 6 -1.29310788298830 -0.35565942294229  3.74183969226923
 6 -5.89888511261126 -2.08535501580158  1.37334834043404
 6  2.78913857075708  0.56350371857186 -2.46530114011401
 6  1.86708614101410  1.05775146714671  2.82107874947495
 6  1.47707107360736  0.94746139473947 -1.81007711371137
 6  4.28924427352735 -1.53888331743174 -2.05775540564056
 6 -5.93399773587359 -2.51008309870987 -1.88774222242224
 6  5.50677622862286 -1.12513425862586 -1.10650406730673
 6  3.32021211661166  1.26489489208921 -3.56638314751475
 6  0.69050147424742  2.02164731163116 -2.03899564466447
 6  2.94082272257226  1.90133971947195  3.60634597979798
 6 -0.56439027062706  2.23980861306131 -1.22512780068007
 6 -6.98998292479248 -3.36789055315532 -1.48696725542554
 6  6.59001857145715 -2.01983023812381 -1.38289897989799
 6 -1.46489514431443  3.52177441064106 -1.35057313201320
 6 -2.31658574797480  3.41140161916192 -0.24115202140214
 6 -2.04269654205421  2.05259619311931  0.33326225822582
 6 -1.20680065846585  4.70389664986499 -2.25906767476748
 6 -3.35199583608361  4.27555803870387  0.34196843654365
 6 -1.98524241544154  5.73387880608061 -2.28056178897890
 1 -3.58897739093909 -0.31776726662666  1.22324652925292
 1 -2.77759938633863 -3.29141426642664  1.09346969606961
 1 -3.25320514031403 -2.26085953035304  2.71156054475448
 1 -0.55213051785179 -2.65029379447945 -0.10082307230723
 1 -2.21302969266927 -0.27105340884088 -0.89150325272527
 1  1.61331929332933 -0.62672412621262  4.23422552165217
 1  2.90385771867187 -0.93919581088109  3.08679360876088
 1  2.84279309320932 -2.77822940584058  0.16950000320032
 1 -2.01498412771277 -0.95604487848785  4.14515157695770
 1 -0.61709147714771 -0.05140934453445  4.61381773827383
 1 -1.65003431723172  0.78276072277228  3.23043180848085
 1 -5.83368415561556 -1.34508263946395  2.15487978097810
 1 -5.78784754545455 -3.11397550215022  1.71144399069907
 1 -6.82628000480048 -1.93822946634664  0.85928228992899
 1  2.24122026142614  1.29116905880588  1.81485909720972
 1  1.00045999749975  1.67575982028203  2.95397337103710
 1  0.49396765436544  0.35524989478948 -0.11199323162316
 1  4.53755947514752 -1.31516457545755 -3.28108371027103
 1  4.03215404520452 -2.46420820002000 -1.90846795479548
 1 -5.81107324572457 -2.39497042164216 -2.86056952075208
 1  5.11125904720472 -1.33502398229823 -0.17473424972497
 1  5.73035447674767 -0.09705670177018 -1.21677616011601
 1  4.45990590209021  0.79573606570657 -3.73495172467247
 1  3.31172692429243  2.53155423412341 -3.73436577197720
 1  2.76779256855686  0.96711120902090 -4.41734488648865
 1  0.75607951795180  2.82141363786379 -3.04444533653365
 1 -7.21956104220422 -3.52271445534553 -0.44932395359536
 1 -7.75548381328133 -3.52854418491849 -2.24567762126213
 1  3.53466719421942  3.62881224222422  3.89574282848285
 1 -0.48804268306831  4.60604188368837 -3.08937683308331
 1 -4.02320090969097  4.71883846564656 -0.55367651915192
 1 -3.96250500020002  3.97082187578758  1.17337814921492
 1 -2.90781909810981  5.18178846994699  0.43395916581658
 1  8.42374806830683 -2.24983813801380 -1.11968260326033
 1 -1.63332625722572  6.58255871297130 -3.03372822502250
 1 -2.70616296919692  6.08015939173917 -1.62443835133513

