%nproc=4
%Mem=3GB
# td=(NStates=1) B3LYP/SVP 

TD

0 1
 8 -3.02487939813981 -1.56651170667067 -2.83613426772677
 8  2.97477793259326  3.24853651215121  3.27460173107311
 8  3.59212352055206  1.53465059335934  4.56126056965697
 8  7.52653125602560 -1.42579869406941 -0.91921268306831
 8  6.65421957835784 -3.12831362626263 -1.99128557665767
 8 -2.62626353285329  1.63886937603760  1.38179824032403
 7 -0.37080282648265 -2.30540685498550  0.90996583738374
 7 -2.53213525152515 -1.23114824982498 -0.60452259685969
 7  1.19663121252125  0.05462637233723 -0.68235317251725
 7 -1.00034918041804  1.40111551945195 -0.27286818471847
 6 -3.26521167086709 -1.31813937633763  0.59474644854485
 6 -2.67191581768177 -2.25402954915492  1.74901020782078
 6 -1.25267090879088 -1.92073988798880  1.81530951955196
 6 -0.58927873017302 -1.20951214291429  2.83217123762376
 6  0.72028314091409 -1.11735673667367  2.48922011661166
 6  0.86254894109411 -1.83365980068007  1.24092889688969
 6 -4.64587953455346 -1.89704535323532  0.17851473877388
 6  1.88827341874187 -0.33871420102010  3.21232338683868
 6 -4.69075543694369 -2.09447815621562 -1.17059740024002
 6  1.98315627202720 -1.99490768296830  0.21876415511551
 6  2.03658968086809 -0.98086999919992 -0.67750165166517
 6 -3.36492116201620 -1.66237820312031 -1.67793507690769
 6  2.88808987218722 -0.84646539483948 -1.91326522542254
 6 -1.28332690489049 -0.41587544454445  3.89389489778978
 6 -5.75341056515652 -2.06836331663166  1.07914892049205
 6  2.43052270917092  0.39049641784178 -2.47922253225323
 6  1.83319275167517  1.25100079207921  2.89285592719272
 6  1.34041740824082  0.85459210781078 -1.80405651165117
 6  4.11822717181718 -1.65530495959596 -2.23170280038004
 6 -5.67873220932093 -2.62875496589659 -2.03533698189819
 6  5.37505305630563 -1.14620636583658 -1.41603502040204
 6  3.04894498989899  0.93717211981198 -3.76014252345235
 6  0.44751717581758  1.94915006190619 -2.04763650875087
 6  2.90602924322432  1.91511109660966  3.72451779697970
 6 -0.59388321992199  2.31871650385039 -1.28182347024702
 6 -6.74161808830883 -3.35990975507551 -1.67654621332133
 6  6.53537310691069 -2.04315257035704 -1.37932862286229
 6 -1.41482013681368  3.67356959015902 -1.17595567026703
 6 -2.22479656905691  3.54777525652565 -0.06366427262726
 6 -1.94304657705771  2.08229916341634  0.43552248424842
 6 -1.09606958535854  4.68563482368237 -2.04199596759676
 6 -3.22880351685169  4.42862334523452  0.58654289398940
 6 -1.96065995719572  5.77302272047205 -2.18991272407241
 1 -3.19754824802480 -0.36232172207221  1.02833703830383
 1 -2.83385501190119 -3.24160928592859  1.42429277837784
 1 -3.11819163896390 -2.07078052245225  2.74751414011401
 1 -0.52029733453345 -2.70039880498050  0.02352936293629
 1 -1.99262765246525 -0.36617292079208 -0.72301640404040
 1  1.61916987838784 -0.42698415221522  4.20812291139114
 1  2.93698103100310 -0.64608649995000  2.92359728912891
 1  2.72591140504050 -2.85011659455946  0.29332238543854
 1 -1.90493312261226 -1.13617289128913  4.25711277307731
 1 -0.72649241724172  0.25364116051605  4.50273663016302
 1 -2.12448176197620  0.21034348104811  3.22804156945695
 1 -5.52983377057706 -1.50795892709271  1.95962025502550
 1 -5.99377813851385 -3.26125022962296  1.33991683798380
 1 -6.64981235803580 -1.71208685208521  0.41392775447545
 1  2.03103924332433  1.15571551345135  1.92356996829683
 1  0.68340829232923  1.52168441274127  3.12498047174717
 1  0.23125138273827  0.40827519731973 -0.22322435473547
 1  4.08446416561656 -1.75570862986299 -3.28409401130113
 1  3.81519234903490 -2.63177495669567 -1.89675678367837
 1 -5.43359549794979 -2.57325825042504 -3.22261572537254
 1  5.19118704000400 -0.96169664956496 -0.32798957525753
 1  5.79359080038004 -0.03247024312431 -2.16771125362536
 1  4.05000491199120  0.31837832993299 -4.16087431693169
 1  3.45732148374838  2.00170124882488 -3.54378671407141
 1  2.32008779807981  1.26127062496250 -4.56832998499850
 1  1.05515942594259  2.76859835633563 -2.65253614561456
 1 -7.09300838693869 -3.73415559945995 -0.71392041324132
 1 -7.47745601050105 -3.64523585408541 -2.55316837033703
 1  3.57410113761376  3.86277563856386  3.77586084028403
 1 -0.24119799859986  4.50151143064306 -2.79326722212221
 1 -3.92383097269727  4.29407598939894 -0.15737688918892
 1 -3.84050279998000  4.11057585118512  1.52274308570857
 1 -2.84808312451245  5.56956724782478  0.81406717661766
 1  8.17584327782778 -2.15921907610761 -0.99928056305631
 1 -1.60404332893289  6.47584804190419 -2.95235008720872
 1 -2.92643499639964  5.88361973777378 -1.56763267076708

