%nproc=4
%Mem=3GB
# td=(NStates=1) B3LYP/SVP 

TD

0 1
 8 -3.15656256645665 -1.36487154265427 -2.84034468876888
 8  2.98421887668767  3.15384704320432  3.33155742664266
 8  4.08048235643564  1.23046017431743  4.13833827742774
 8  7.71388999189919 -1.63802991719172 -0.70267102890289
 8  6.53350750715072 -3.15132592749275 -2.05554200230023
 8 -2.64378528502850  1.64160965006501  1.48225828632863
 7 -0.24900064626463 -2.32105842014201  0.93058789958996
 7 -2.69900193819382 -1.08494362936294 -0.55589773437344
 7  1.16401795119512  0.09634054375438 -0.66932186938694
 7 -1.14218336383638  1.41056646454645 -0.22479337723772
 6 -3.39506465616562 -1.26175373777378  0.68674564846485
 6 -2.60503913001300 -2.22500664686469  1.70406571337134
 6 -1.20163580528053 -1.91859967396740  1.80848883748375
 6 -0.52916271857186 -1.18906009770977  2.83764178467847
 6  0.83399451205121 -1.22537753875388  2.45638683328333
 6  0.93965665186519 -1.85278171287129  1.21982678667867
 6 -4.73126807340734 -1.81716736543654  0.22386927422742
 6  1.97050164156416 -0.49669999959996  3.08057021152115
 6 -4.82779914131413 -2.04418312671267 -1.15189553005301
 6  2.13529148554856 -1.98968716091609  0.24135641434143
 6  2.10970699259926 -0.85861777397740 -0.59873377487749
 6 -3.47549221912191 -1.46447841314131 -1.67217450085009
 6  3.01077214041404 -0.61393214151415 -1.80148404730473
 6 -1.31918049024902 -0.50595445244524  3.92287779607961
 6 -5.85589081318132 -2.19756623692369  1.25084609020902
 6  2.59483914081408  0.51436880508051 -2.32751736173617
 6  2.00601003340334  1.04627031903190  2.85997263886389
 6  1.24306767326733  1.00287693629363 -1.70851695769577
 6  4.20154550365037 -1.42212164126413 -2.08166779687969
 6 -5.80896523262326 -2.59574166456646 -2.08024147234723
 6  5.49720527152715 -1.14281602680268 -1.18674209110911
 6  3.23187328272827  1.30956935953595 -3.53096960616062
 6  0.46875930003000  2.07617276417642 -1.88995074017402
 6  3.10534917521752  1.79457904340434  3.55650099529953
 6 -0.65193902550255  2.31941657385739 -1.15391067896790
 6 -6.87215114161416 -3.33404716881688 -1.79829838853885
 6  6.58231780138014 -2.10511876697670 -1.33480417041704
 6 -1.45525418021802  3.50912314551455 -1.27344541924192
 6 -2.32812690209021  3.41619209820982 -0.19802770897090
 6 -2.12399467186719  2.16340727422742  0.49402833483348
 6 -1.30525050345035  4.51642790299030 -2.43880564856486
 6 -3.58173881038104  4.26887737063706  0.15004924462446
 6 -2.08767265846585  5.63649906810681 -2.56002973577358
 1 -3.72075056825683 -0.36568205810581  1.24854905950595
 1 -2.82065369176918 -3.33824894989499  1.42768311741174
 1 -3.16311613141314 -2.39200264466447  2.74519390809081
 1 -0.45859116391639 -2.75920468556856 -0.02809579957996
 1 -2.11254964466447 -0.14326062956296 -0.75885998839884
 1  2.08415637703770 -0.56448790259026  4.25743784288429
 1  2.93121045394539 -0.94304619591959  2.85349027842784
 1  2.92184099799980 -2.62044362726273  0.37647070027003
 1 -2.20621325062506 -1.22020129412941  4.46814387618762
 1 -0.65132490049005 -0.13141734533453  4.62703906040604
 1 -1.63714302810281  0.42183463016302  3.50695946124613
 1 -5.90483127032703 -1.51037916911691  2.23353764676468
 1 -5.72334109480948 -3.24475858045805  1.49351219751975
 1 -6.99051642844284 -2.23053869726973  1.06656301800180
 1  1.93673981338134  1.17618756065607  1.76892450375037
 1  0.87631758325833  1.65065731003100  3.02183015671567
 1  0.23472172977298  0.15351972177218 -0.12409444174417
 1  4.51527724692469 -1.17358041704170 -3.03468907080708
 1  3.82485331513151 -2.34320609980998 -1.99417652565257
 1 -5.40437257565757 -2.38705963056306 -3.13626709050905
 1  5.26906482778278 -1.19984046394639 -0.18570534683468
 1  5.78845028632863 -0.18129512561256 -1.39221370387039
 1  4.24980489198920  0.98949544164416 -3.79879810931093
 1  3.21468722032203  2.53680475917592 -3.52591492689269
 1  2.53380917021702  1.06372086998700 -4.41505465746575
 1  0.98107201720172  2.84897639413941 -2.61236212821282
 1 -7.12113119921992 -3.46374855875588 -0.73161218241824
 1 -7.65591385628563 -3.53268459895990 -2.50852390589059
 1  3.69842356985699  3.69007836883688  3.80430368456846
 1 -0.51096497529753  4.24586586608661 -3.13118101350135
 1 -4.20988957855786  4.24181076287629 -0.79075022652265
 1 -4.03544229392939  3.95191998559856  1.09435024642464
 1 -3.34500281648165  5.45215550665067  0.09695546544654
 1  8.45946163966397 -2.13285643984398 -0.67402803780378
 1 -1.53050597519752  6.38181863896390 -3.19157400960096
 1 -2.70036238913891  5.78546992279228 -1.69830573807381

