%nproc=4
%Mem=4GB
# td=(NStates=1) B3LYP/SVP 

TD

0 1
 8 -5.27181341134113  0.18435387498750 -3.34100389008901
 8  3.06102610811081  2.74399165386539  3.30874695309531
 8  3.34425277387739  0.53037843684368  2.95161704680468
 8  1.85732337183718 -7.17589385948595  1.47562606890689
 8  0.61802669066907 -6.89234565816582 -0.43145112801280
 8  1.66404345244524  3.97140026282628  0.05768527592759
 7 -2.38263787488749 -0.96046447664766  0.61468848544854
 7 -4.39422430383038  0.60801846834683 -1.29262761756176
 7  1.84302469406941 -0.59534110711071 -0.39776825442544
 7  2.32332787468747  1.87779352485249 -0.65392213891389
 6 -4.79594598579858  1.18797029402940 -0.00188438863886
 6 -4.39572696549655  0.23047321262126  1.21994935263526
 6 -2.93325842144214  0.02445270197020  1.37706971997200
 6 -1.97023612031203  0.61249620682068  2.15436860646065
 6 -0.72055866616662 -0.00912634813481  1.86499717731773
 6 -1.00359454725473 -0.93891695059506  0.91305312471247
 6 -6.24353670977098  1.44562235153515 -0.22604782018202
 6  0.60801940854085  0.18216889338934  2.56948596869687
 6 -6.65876639113911  0.89821907030703 -1.42830855955596
 6 -0.16821307740774 -1.90521925882588  0.28984106560656
 6  1.11077797399740 -1.79916946354635 -0.35746732893289
 6 -5.42122272257226  0.44273248794879 -2.13098040954095
 6  1.95342942814281 -2.76054659305931 -0.89669667896790
 6 -2.11396709760976  1.62584834173417  3.19948433863386
 6 -7.15105259845985  2.05020314951495  0.86943092899290
 6  3.06450278397840 -2.31084103530353 -1.34880612571257
 6  1.19823585088509  1.56984547794779  2.58119175507551
 6  2.94669274457446 -0.83716234183418 -1.06573056125613
 6  1.58697246744674 -4.31215718011801 -0.86242795969597
 6 -7.95872177817782  0.74551618921892 -1.98883727152715
 6  2.00156772237224 -5.07753868846885  0.34130012551255
 6  4.29115472447245 -3.05902437123712 -1.95215444674467
 6  3.83921479207921  0.08676808030803 -1.29985466786679
 6  2.63172379357936  1.51638922712271  2.92441834173417
 6  3.54147852565257  1.45404081558156 -1.13206977427743
 6 -9.10566554995500  0.82755491579158 -1.40804561986199
 6  1.38476354105411 -6.50649729992999  0.41926058505851
 6  4.46772560716072  2.59729648454845 -1.39176625972597
 6  3.83611287968797  3.81905242894289 -1.15894718901890
 6  2.53224479527953  3.38100595169517 -0.54504326702670
 6  5.79537314261426  2.48695353595360 -2.01486344144414
 6  4.27576319611961  5.24889976577658 -1.19856186958696
 6  6.76470652825282  3.31779746454645 -2.48950342724272
 1 -4.18454294039404  2.04725580568057  0.20024306460646
 1 -4.86647130403040 -0.48750022612261  1.38803354755476
 1 -4.79186602650265  0.67527152685269  2.13568047774777
 1 -2.84168320822082 -1.30648804430443 -0.11436835863586
 1 -3.42675367266727  0.46075799289929 -1.73569112001200
 1  0.26656109080908 -0.10652034003400  3.68869841794179
 1  1.44413842324232 -0.48379304670467  2.27844297709771
 1 -0.66036469736974 -2.86155362036204  0.11765676797680
 1 -3.11422156745675  1.94128539263926  3.05681567126713
 1 -1.97719893499350  1.13022238613861  4.27161554945495
 1 -1.25233161426143  2.43952777257726  3.02406982878288
 1 -6.72989644054405  2.93983278677868  1.44213644664466
 1 -7.78260802780278  1.37054686388639  1.57840485118512
 1 -7.96894283148315  2.60408649174918  0.39614809500950
 1  1.13579628802880  2.05699773637364  1.48833690099010
 1  0.85733884638464  2.15146196819682  3.23127895209521
 1  1.50136446284628  0.47271791679168 -0.25707107240724
 1  1.99253704590459 -4.86431026142614 -1.70770538023802
 1  0.60377217471747 -4.81256110361036 -1.08320680408041
 1 -7.66329739153915  0.60598082868287 -3.02145808400840
 1  1.66506869576958 -4.60244142384238  1.39678725532553
 1  3.06313258335834 -4.91483868836884  0.45827364226423
 1  4.08909397169717 -4.08301575377538 -2.22392585368537
 1  4.99218031643164 -2.90736958715872 -1.17424104170417
 1  4.59032046514651 -2.46552878547855 -2.82857193079308
 1  4.76051567106711 -0.06020811531153 -1.90291646734674
 1 -8.96000960146015  1.07203465896590 -0.30198288808881
 1 -10.12454058765877  0.62107352305231 -1.88382448244824
 1  4.07833251975198  2.72689607330733  3.22314708040804
 1  6.03893736193619  1.34462661186119 -2.03235205020502
 1  5.20684138393839  5.55795856005601 -0.69242786268627
 1  4.36938896139614  5.70444721042104 -2.38966151105110
 1  3.50867853745375  5.71095070147015 -0.74748649024902
 1  1.45311261936194 -7.92499365646565  1.21775783068307
 1  7.70566301070107  2.97305284518452 -3.06375364866487
 1  6.64816670417042  4.42861837403740 -2.48539089158916

