%nproc=4
%Mem=3GB
# td=(NStates=1) B3LYP/SVP 

TD

0 1
 8 -3.23264017421742 -1.29109416491649 -2.83126378067807
 8  2.69946040084008  3.25763742224222  3.21738600950095
 8  3.79381368956896  1.54671179947995  4.34007845144514
 8  7.64440304320432 -1.62335845004500 -0.50818157995800
 8  6.68620277667767 -2.93174396929693 -2.16723317141714
 8 -2.60883178967897  1.67093258235824  1.45774583508351
 7 -0.26461220742074 -2.40749706400640  0.93700854165417
 7 -2.78785082308231 -1.02853798879888 -0.53577572217222
 7  1.06550810021002 -0.04214330463046 -0.81646658385839
 7 -1.04788393389339  1.43213862176218 -0.21559245714571
 6 -3.45644079377938 -1.26593415581558  0.72675964986499
 6 -2.59672829892989 -2.41832597879788  1.66579188598860
 6 -1.21462710441044 -2.05399321332133  1.81216920552055
 6 -0.42154195649565 -1.27899909160916  2.86266428692869
 6  0.92113322592259 -1.18967396839684  2.47611880648065
 6  1.02341502770277 -1.88229466416642  1.15537034103410
 6 -4.79650459705971 -1.85120076877688  0.33559044634463
 6  1.95195978737874 -0.41486181578158  3.15768792329233
 6 -4.83092945434543 -1.97286599499950 -1.14271461196120
 6  2.16118407480748 -2.01030922312231  0.20551282998300
 6  2.08517453935394 -0.99659157135714 -0.74175807730773
 6 -3.46103077297730 -1.44726669196920 -1.68904618801880
 6  3.04328539173917 -0.68892964126413 -1.81585548444844
 6 -1.14920349254925 -0.52883674067407  3.90161566986699
 6 -5.88312353645365 -2.24717119741974  1.19097010261026
 6  2.54873453035304  0.39670703890389 -2.48068267826783
 6  1.92447187958796  1.03649934193419  2.81692833443344
 6  1.36073944044404  0.79847649624963 -1.80291639763976
 6  4.27606295539554 -1.49117854695470 -2.10914054415442
 6 -5.76212054815482 -2.42820491089109 -2.00072352055206
 6  5.39022457345735 -1.07961970717072 -1.14560797769777
 6  3.04606470187019  1.15865426802680 -3.66396290549055
 6  0.50805322942294  1.95649079597960 -1.98789053415342
 6  2.99238787908791  1.90661024652465  3.54403974917492
 6 -0.60979481108111  2.26818145034503 -1.18228351625163
 6 -6.86058998549855 -3.12677644174417 -1.68873743244324
 6  6.57593716331633 -2.02356061116112 -1.32831352135214
 6 -1.43701235603560  3.51998423162316 -1.28271634633463
 6 -2.27207129652965  3.35663614261426 -0.28098600480048
 6 -1.97774004640464  2.09612054555456  0.44144307630763
 6 -1.35686566496650  4.45308156835684 -2.35963773177318
 6 -3.28762939943994  4.21798228112811  0.34848908860886
 6 -1.83964785598560  5.74863028122812 -2.22514624742474
 1 -3.46417491069107 -0.45792128202820  1.49361356595660
 1 -2.76504813121312 -3.42313743874387  1.03664401350135
 1 -3.18382820262026 -2.21942538693869  2.63452284098410
 1 -0.69807511231123 -2.59878864396440 -0.11833482348235
 1 -2.06311470117012 -0.31263756725673 -0.74935903830383
 1  1.96784474587459 -0.80665211901190  4.30645274437444
 1  2.88489582248225 -0.92969486078608  2.62614754415442
 1  3.02522133603360 -2.46499808270827  0.52667572077208
 1 -2.18870149944994 -1.00900017401740  4.08695575737574
 1 -0.75662543054305 -0.47576177977798  4.87613396989699
 1 -1.09061837563756  0.79689213591359  3.44758352365236
 1 -5.79492027922792 -1.68489662086209  2.14907920092009
 1 -5.92173093379338 -3.23846795139514  1.54002684898490
 1 -6.89664704150415 -2.01288693209321  0.66729309100910
 1  2.22819895929593  1.05856579847985  1.67357496879688
 1  1.09974992649265  1.75491773607361  3.08204617831783
 1  0.38380663826383  0.17993236303630 -0.15942797509751
 1  4.58316403560356 -1.46135919491949 -3.07866346824682
 1  3.96628745854585 -2.53631541074107 -2.00973808180818
 1 -5.58501063946395 -2.30129105370537 -3.01759522332233
 1  5.36630455175518 -1.36893737363736 -0.05138191449145
 1  5.73697513881388  0.00550355425543 -1.14937942044204
 1  4.23643355485549  0.73982047414741 -3.65139336883688
 1  3.03497924952495  2.41509258795880 -3.68851118651865
 1  2.60490627992799  0.62778727662766 -4.74932808480848
 1  0.73152706270627  2.53163465996600 -2.95362625462546
 1 -7.24280336643664 -3.56658884278428 -0.65490451165117
 1 -7.53126139103910 -3.32966429692969 -2.58827188068807
 1  3.33795752325233  3.83890325132513  3.63362661686169
 1 -0.72419629842984  4.29659093859386 -3.26425432083208
 1 -4.25940453005301  4.16513309510951 -0.44404555605561
 1 -3.68480723042304  3.52877767136714  1.12533334473447
 1 -2.98809712591259  5.27398768986899  0.53827959785979
 1  8.33766946044605 -2.29482263646365 -0.54928556355636
 1 -1.61619454405441  6.52864332143214 -2.99464431663166
 1 -2.60099245214521  6.08618999479948 -1.41470737823782

