%nproc=4
%Mem=3GB
# td=(NStates=1) B3LYP/SVP 

TD

0 1
 8 -3.24703161336134 -1.33015807130713 -2.78282893719372
 8  2.92832328712871  3.15885754425443  3.13338760966097
 8  3.66464077227723  1.43959108740874  4.42704714831483
 8  7.68185678857886 -1.55697181138114 -0.68410917271727
 8  6.90292444884488 -2.61226202110211 -2.55353180128013
 8 -2.52568347484748  1.52223771287129  1.52447250775077
 7 -0.29014476067607 -2.39590590489049  0.99084392519252
 7 -2.64028606660666 -1.25872100710071 -0.55589773437344
 7  1.10518206760676  0.04455536523652 -0.70020495769577
 7 -0.93700284578458  1.38516392429243 -0.13379427732773
 6 -3.36443159285929 -1.33679124152415  0.65841281518152
 6 -2.71775040114011 -2.46066021222122  1.67864317111711
 6 -1.27762340404040 -2.06446426042604  1.93213120172017
 6 -0.64721452375238 -1.18761995369537  2.83598161866187
 6  0.69554066666667 -1.16358135913591  2.45294648924892
 6  0.89961264746475 -1.90080651535153  1.32260706470647
 6 -4.76704165076508 -1.78216386508651  0.27254414171417
 6  1.83666825822582 -0.33889421902190  3.17248940344034
 6 -4.75043140454045 -1.95593430183018 -1.11895223572357
 6  2.02198015441544 -1.91948014021402  0.34071635033503
 6  2.13538956085609 -0.97445935813581 -0.66603050455045
 6 -3.45329999989999 -1.44834679998000 -1.66048333173317
 6  3.01017208040804 -0.84920566886689 -1.78293219211921
 6 -1.37738631083108 -0.42865672267227  3.87186269456946
 6 -5.79948517261726 -1.97905438573857  1.27741874747475
 6  2.55535519241924  0.41110847904790 -2.40171478147815
 6  1.82497192959296  1.15831152315232  2.81669831143114
 6  1.39656302280228  0.88163481208121 -1.78213431943194
 6  4.26383173227323 -1.56381581068107 -2.04056368646865
 6 -5.91996633273327 -2.36567865826583 -2.03852730093009
 6  5.40129568056806 -1.12709445464546 -1.15011842874287
 6  3.18970906630663  1.03832223482348 -3.63923043224322
 6  0.54794721882188  1.93535868276828 -2.02300404550455
 6  2.96081472177218  1.91101068656866  3.58226357155716
 6 -0.54634846644664  2.18421305350535 -1.14664995289529
 6 -7.03925785228523 -3.09066283038304 -1.84070262896290
 6  6.73751332093209 -1.84346260136014 -1.48080877087709
 6 -1.42160081488149  3.39866209940994 -1.19171724642464
 6 -2.24848893829383  3.32297277627763 -0.21278918511851
 6 -1.88198047044704  2.00026095959596  0.47838677067707
 6 -1.30707068546855  4.38625488568857 -2.33863563156316
 6 -3.31570220672067  4.33698418131813  0.35473971367137
 6 -1.90845473667367  5.58132355055506 -2.49177291009101
 1 -3.42427092029203 -0.32746823672367  1.14177838243824
 1 -3.02635426182618 -3.31831695669567  1.36381673077308
 1 -3.33159297909791 -2.44897834223422  2.73578296699670
 1 -0.30370567536754 -2.88591735683568 -0.01217420742074
 1 -1.96337472717272 -0.59407571107111 -0.63284738713871
 1  1.83399136053605 -0.56791824562456  4.38194029312931
 1  2.88618595149515 -0.61795368666867  2.87939286868687
 1  2.61427024092409 -2.76586816971697  0.45745879907991
 1 -1.97079970927093 -1.29480875487549  4.38150521232123
 1 -0.69714948294829  0.01138693509351  4.65258161466147
 1 -2.18544785858586  0.31360380708071  3.52534129942994
 1 -5.52045283248325 -1.42503063426343  2.16929122212221
 1 -5.73358211891189 -3.11478558315832  1.63747659395940
 1 -6.73262063886389 -1.71352699609961  0.76929329102910
 1  2.04491063046305  1.18946888878888  1.77436504780478
 1  0.80635058655866  1.54228647294729  3.12662063576358
 1  0.46271452905291  0.26094046384638 -0.15754778707871
 1  4.49640535973597 -1.29158221722172 -3.05388098999900
 1  4.02805363516352 -2.64723650285028 -1.91151825982598
 1 -5.60530266866687 -1.94905583018302 -3.16345980978098
 1  5.17967588888889 -1.26351683158316 -0.15497227352735
 1  5.71824326562656 -0.02941993809381 -1.29957443994399
 1  3.87365727722772 -0.02496600450045 -4.08659688918892
 1  3.75711146274628  1.93850492919292 -3.17754008940894
 1  2.48044383368337  1.33134763266327 -4.36034918691869
 1  0.69556346634663  2.50026152265227 -2.89253014501450
 1 -7.51839092519252 -3.36451863576358 -0.96497551875187
 1 -7.56931519641964 -3.45894722522252 -2.65581863536354
 1  3.59950367786779  3.72254161516152  3.66328958315832
 1 -0.56236011481148  4.08471975147515 -3.04259215461546
 1 -4.15383397299730  4.52133871567157 -0.56390754225423
 1 -4.05961471117112  3.72786758035804  1.04852566396640
 1 -3.04792310851085  5.38259855095510  0.81800757065707
 1  8.33969966346635 -2.17481063526353 -1.00344097909791
 1 -1.68279120372037  6.19005946304631 -3.47512236443644
 1 -2.43352570547055  5.90501187698770 -1.60505641314131

