%nproc=4
%Mem=3GB
# td=(NStates=1) B3LYP/SVP 

TD

0 1
 8 -3.46142305250525 -1.29745480098010 -2.91295194949495
 8  2.99927038183818  3.13062472097210  3.29703397429743
 8  4.04454876307631  1.15551267956796  4.13053749734974
 8  7.75260386328633 -1.26777289148915 -0.62991375317532
 8  6.80766492289229 -2.93379417431743 -1.82869931803180
 8 -2.68041894839484  1.55441093019302  1.34216427692769
 7 -0.24952069826983 -2.40915723002300  0.85309014981498
 7 -2.63457549554955 -1.27577271227123 -0.72388453305331
 7  1.15256680608061  0.03480439013901 -0.77034197139714
 7 -0.96123526902690  1.38943435133513 -0.24155505340534
 6 -3.28750390009001 -1.36365392779278  0.54552152605261
 6 -2.68482710881088 -2.40042418861886  1.59318462526253
 6 -1.18397403910391 -2.05347316131613  1.83111109970997
 6 -0.61166096839684 -1.25313650535054  2.83720174067407
 6  0.74976608920892 -1.16642164316432  2.51034222882288
 6  0.96851953815382 -1.78675511021102  1.19994479847985
 6 -4.70625557215722 -1.78726437513751  0.36032291959196
 6  1.85135972737274 -0.39213954355436  3.22012416691669
 6 -4.85816217761776 -1.97677638603860 -1.04585492599260
 6  2.05318327472747 -1.92606079827983  0.36351863056306
 6  2.15369139103910 -0.89436134833483 -0.60981488298830
 6 -3.64043871377138 -1.45159712501250 -1.73568085148515
 6  3.00782184538454 -0.74078482678268 -1.77533143204320
 6 -1.40145871807181 -0.52363622062206  3.94153966226623
 6 -5.75572079617962 -2.05751223152315  1.40061106670667
 6  2.58784844174417  0.43540090829083 -2.51042565256526
 6  1.78429786218622  1.10896658865887  2.86408304990499
 6  1.32916628312831  0.94816146474647 -1.77380348634863
 6  4.30020536963696 -1.51118054715472 -2.02659228932893
 6 -6.00732506860686 -2.28036012641264 -1.90675412361236
 6  5.40583613461346 -0.94329607480748 -1.16506992389239
 6  3.14105420082008  1.07900630323032 -3.81386789598960
 6  0.59770219431943  1.98310345724572 -2.09205095019502
 6  3.09802844314431  1.77941752725273  3.51183652885289
 6 -0.60356418801880  2.16051068326833 -1.26686197409741
 6 -7.10268419491949 -3.04686845094509 -1.63383194189419
 6  6.66164573417342 -1.87107536263626 -1.28483917391739
 6 -1.44937359215922  3.41680391359136 -1.26438451315131
 6 -2.24511860126013  3.31188166716672 -0.25552345854585
 6 -1.98876114851485  1.97573850735073  0.40370930293029
 6 -1.24029400780078  4.48155441564156 -2.31749351735174
 6 -3.42389302580258  4.21129161206121  0.30795503520352
 6 -1.93978786998700  5.64041946014602 -2.36177991079108
 1 -3.39276776997700 -0.26465195509551  1.02555676027603
 1 -2.80128175457546 -3.40791591659166  1.36339668876888
 1 -3.16828664846485 -2.20195363976398  2.72277166586659
 1 -0.34303960876088 -2.90558932403240 -0.02197518751875
 1 -1.79476786648665 -0.49375567906791 -0.96815091749175
 1  1.77854581598160 -0.55048650245024  4.29452155125512
 1  2.81839917281728 -0.80330222152215  2.86769169856986
 1  2.90139895379538 -2.63649523242324  0.21639469266927
 1 -2.13889651895190 -1.11894116811681  4.46007306910691
 1 -0.64864463246325 -0.28979318291829  4.62792914941494
 1 -1.76164547834783  0.35546799349935  3.56608537383738
 1 -5.58412920012001 -1.46176430763076  2.28676296929693
 1 -5.45492425312531 -3.14443854845485  1.50379322562256
 1 -6.86848422522252 -2.03069871327133  1.00427678937894
 1  1.62210835023502  1.41508145004501  1.70345795709571
 1  0.84238418991899  1.74927717201720  3.42140011371137
 1  0.12369062666267  0.02154652445245 -0.20768280058006
 1  4.56249196839684 -1.45599865886589 -3.12039764166417
 1  4.05689651945194 -2.68467024622462 -1.85653276127613
 1 -5.92634477287729 -2.12235315991599 -2.95109857365737
 1  5.20198812011201 -0.80969144904490 -0.05120189648965
 1  5.71928336963696  0.12616562046205 -1.45296977947795
 1  4.13896380788079  0.53280977307731 -4.23577180668067
 1  3.47513326492649  2.11574265296530 -3.63421575697570
 1  2.42218800810081  1.06492098999900 -4.55144829682968
 1  0.56385029502950  2.72505400190019 -2.83473436543654
 1 -7.17747683378338 -3.36047823172317 -0.81921094229423
 1 -7.60921918681868 -3.26143747424742 -2.54562761626163
 1  3.84604833233323  3.51737109810981  3.77355060926093
 1 -0.47037091589159  4.36371765126513 -3.26145404080408
 1 -4.23675226482648  4.41028761056106 -0.41692284378438
 1 -4.03601235093509  3.48051284488449  1.07364817621762
 1 -3.08338665486549  5.12859315041504  0.93535930583058
 1  8.68844453795380 -1.79261241544154 -0.82740337533753
 1 -1.70173309790979  6.25109556665667 -3.08131298349835
 1 -2.57903025592559  6.19058043384338 -1.59235514301430

