%nproc=4
%Mem=3GB
# td=(NStates=1) B3LYP/SVP 

TD

0 1
 8 -3.36250316051605 -1.44632968846885 -2.89032968726873
 8  3.17542799759976  3.02286394489449  3.04257852875288
 8  3.71838614681468  1.35428255655566  4.45649009260926
 8  7.85927453035304 -1.72231834603460 -0.75731649344935
 8  6.77482163856386 -2.94024481938194 -2.37984443254325
 8 -2.74799570607061  1.57895338443844  1.35003506400640
 7 -0.31123686988699 -2.44272058635864  0.95465030583058
 7 -2.71790382838284 -1.21754688968897 -0.63879602420242
 7  1.17759930933093  0.16674758445845 -0.64500943814381
 7 -1.02855200070007  1.44720012791279 -0.21404230213021
 6 -3.43054820452045 -1.33159072147215  0.63879085298530
 6 -2.73904253035304 -2.26357050325032  1.55828113491349
 6 -1.26766240794079 -2.00288810281028  1.80896888548855
 6 -0.59744954725473 -1.20304149584959  2.82959097959796
 6  0.74089520212021 -1.17121212221222  2.45223641824182
 6  0.94743742994299 -1.91428786348635  1.19078388238824
 6 -4.79375432203220 -1.79156480518052  0.28347523482348
 6  1.78795338673867 -0.39947027662766  3.04874702920292
 6 -4.87510387178718 -2.07605631403140 -1.00080042054205
 6  2.10893885028503 -1.91597979017902  0.32748502720272
 6  2.11332735463546 -0.89526143834383 -0.56929083058306
 6 -3.56151082098210 -1.53821578687869 -1.71271855525553
 6  3.08899996319632 -0.51268201650165 -1.61082498139814
 6 -1.35242381458146 -0.42281613861386  3.93076858515852
 6 -5.91669689378938 -2.02682916321632  1.26853785938594
 6  2.69231888878888  0.55148251645165 -2.30813542354235
 6  1.90652008440844  1.08764445644564  2.89754639623962
 6  1.36433980048005  0.95762241084108 -1.67811391739174
 6  4.27640298939894 -1.37503693279328 -2.01135076517652
 6 -5.92472680878088 -2.52139422982298 -1.94930837903790
 6  5.63791934293429 -1.12549429462946 -1.20750416731673
 6  3.20707080248025  1.24211261386139 -3.56876338553855
 6  0.56624904900490  2.06722186908691 -2.00469221432143
 6  3.13258189848985  1.77953753925393  3.51999734493449
 6 -0.64342817441744  2.34693932613261 -1.14226951485149
 6 -6.89784371087109 -3.41168493259326 -1.56799535823582
 6  6.76248581818182 -2.12650090519052 -1.44857554755476
 6 -1.50494914971497  3.55088732193219 -1.24605267996800
 6 -2.37305139453945  3.33586406540654 -0.23798170437044
 6 -2.10011228362836  2.06710764426443  0.38018695069507
 6 -1.21062104050405  4.64474073427343 -2.17318908690869
 6 -3.48817945444544  4.26643712661266  0.20839507920792
 6 -1.93179707090709  5.67253267146715 -2.51239497229723
 1 -3.35148364156416 -0.38853434333433  1.17653185778578
 1 -2.84099572597260 -3.36653177817782  1.27041739083908
 1 -3.19043886368637 -2.10985442984298  2.52246163486349
 1 -0.53226853165317 -2.94580334543454  0.01856886688669
 1 -2.05368375807581 -0.45317162066207 -0.82354645704570
 1  1.67337529892989 -0.50250170397040  4.38545064416442
 1  2.64637197009701 -0.78851074237424  2.76295122452245
 1  2.99174798869887 -2.81424300720072  0.46734978817882
 1 -2.10102273157316 -0.86697597159716  4.58180524232423
 1 -0.59625939393939 -0.06804100770077  4.79992634913491
 1 -1.87837715151515  0.45677812451245  3.28044680998100
 1 -5.97590837803780 -1.17328545974597  2.09743403640364
 1 -5.83053181388139 -3.03654775937594  1.65405825212521
 1 -6.98856623342334 -1.97615325872587  0.71335769746975
 1  2.10409654905491  1.14251419331933  1.74047165846585
 1  0.97291724322432  1.62172441674167  2.94789276297630
 1  0.31993025062506  0.14814918471847 -0.08366039833983
 1  4.80209592879288 -1.25047810681068 -2.99004460636064
 1  3.90846167596760 -2.36287806700670 -1.95074218221822
 1 -5.63185532393239 -2.32397332193219 -2.95246871067107
 1  5.45882380368037 -1.37530801070107 -0.08277505380538
 1  5.88892033333333 -0.07556455255526 -1.26140062256226
 1  4.04561447294730  0.79187567966797 -4.14361259075908
 1  3.76325207680768  2.07550862956296 -3.30775311071107
 1  2.40333612291229  1.24309880778078 -4.36608976097610
 1  0.84104801480148  2.69296079257926 -2.72841373337334
 1 -6.92536162226223 -3.70802298619862 -0.47291631283128
 1 -7.52663092799280 -3.81467279777978 -2.26245929942994
 1  3.80081380888089  3.42740210121012  3.59967322152215
 1 -0.00486436523652  4.52440371987199 -2.35175307070707
 1 -4.19571816141614  4.31116769856986 -0.72791394289429
 1 -4.00260901060106  3.78421321492149  0.90802161356136
 1 -3.36230454665467  5.41025131623162  0.54670043994399
 1  8.60748644214421 -2.31780493469347 -0.75066570157016
 1 -1.54224714931493  6.62579303640364 -3.15304015621562
 1 -3.12224457735774  5.75726710251025 -2.21409731723172

