%nproc=4
%Mem=3GB
# td=(NStates=1) B3LYP/SVP 

TD

0 1
 8 -3.38171508170817 -1.27791284678468 -2.92452310661066
 8  2.90692114691469  3.24048570707071  3.32186645754575
 8  3.77619192739274  1.47365449374937  4.38095253885389
 8  7.64471307420742 -1.74866098029803 -0.51848261006101
 8  6.80094425082508 -2.86322711761176 -2.45741218931893
 8 -2.65793670017002  1.63542903200320  1.37491755225523
 7 -0.25467121332133 -2.43056937123712  0.95660050085009
 7 -2.72779481748175 -1.26013114811481 -0.67390953555356
 7  1.17114866426643  0.11513242294229 -0.68601353855386
 7 -0.98285743124312  1.46872228012801 -0.17581847974797
 6 -3.34247939763976 -1.29001656405641  0.61747872177218
 6 -2.64850347644764 -2.27194134033403  1.56358166496650
 6 -1.18997463916392 -1.98166598059806  1.76426441504150
 6 -0.62338214051405 -1.16097728942894  2.82770079057906
 6  0.84056516911691 -1.11928692969297  2.49658085268527
 6  0.96485917211721 -1.87534396909691  1.28256306030603
 6 -4.69652459905991 -1.84497014571457  0.28284517181718
 6  1.84018861026103 -0.44262459205921  3.34075623012301
 6 -4.80715707710771 -2.01106981538154 -1.03379371987199
 6  2.02634059045905 -1.81403959615962  0.30971325002500
 6  2.04246026792679 -0.78086999919992 -0.64413831533153
 6 -3.56800147004700 -1.54174613991399 -1.69939722312231
 6  3.05508657185719 -0.70861160946095 -1.80324422332233
 6 -1.27165573777378 -0.52403626062606  3.96596210451045
 6 -5.77380260436044 -2.28982546284628  1.29125013061306
 6  2.51675133203320  0.41674904310431 -2.45917052705271
 6  2.02453188558856  1.10537622962296  2.87722436403640
 6  1.43917728422842  0.95682233083308 -1.78680478647865
 6  4.16798214731473 -1.56462589168917 -1.98587821792179
 6 -5.83396773287329 -2.60640273067307 -1.99205265346535
 6  5.41483703470347 -1.21830357555756 -1.04529794669467
 6  3.01368146354635  1.01517992059206 -3.90678718791879
 6  0.59643206730673  2.10893604050405 -2.01302304740474
 6  2.94550319061906  1.86509609510951  3.60887623282328
 6 -0.56463029462946  2.35065969816982 -1.19109439733973
 6 -6.86166009250925 -3.33496726082608 -1.74346290499050
 6  6.62755232483248 -2.06639489458946 -1.47826851685169
 6 -1.39466812161216  3.49041127432743 -1.28908698339834
 6 -2.26119020842084  3.35432591159116 -0.20997890409041
 6 -2.03672594499450  2.06976791029103  0.40316924892489
 6 -1.21485146354635  4.61919818001800 -2.20928269626963
 6 -3.37706834333433  4.34883536643664  0.29634387408741
 6 -1.97999189038904  5.74271969016902 -2.34875860866087
 1 -3.40695918911891 -0.21611710161016  1.08033223782378
 1 -2.90603222962296 -3.37669279427943  1.16421677077708
 1 -3.19121894169417 -2.23264670907091  2.50754014271427
 1 -0.65885118991899 -2.57668643374337  0.09123613361336
 1 -2.04635302500250 -0.30134643814381 -0.77335143754375
 1  1.58599656105611 -0.57060851465147  4.34115621472147
 1  2.87798513141314 -0.85036692799280  3.13369829922992
 1  2.92059087298730 -2.61122270517052  0.38396144934493
 1 -1.97218984828483 -1.25118439243924  4.53196025782578
 1 -0.48047781578158 -0.04140834443444  4.54157051355136
 1 -1.78662797659766  0.46683913061306  3.62633139843984
 1 -5.73966475367537 -1.67767589878988  2.24741903490349
 1 -5.52294105480548 -3.24046815141514  1.45425827212721
 1 -6.74408178497850 -2.22327797119712  0.85130149184919
 1  2.22674881428143  1.04972491439144  1.73870148144815
 1  0.96358631013101  1.50046229052905  2.95657363106311
 1  0.30125838343834  0.37214158395840 -0.28985101740174
 1  4.64377009620962 -1.57096015501550 -3.06138174007401
 1  3.84547537733773 -2.60932271147115 -1.99284639263926
 1 -5.74505664406441 -2.22330325492549 -3.01848531233123
 1  5.25167308860886 -1.33400388028803  0.10161338503850
 1  5.49832127342734 -0.20053704980498 -1.12607709020902
 1  3.83675358685869  0.20179667176718 -4.24940316981698
 1  3.55039079067907  2.00571164986499 -3.79541187658766
 1  2.04635042434243  1.05897039493949 -4.63869702170217
 1  0.94498840884088  2.69924142064206 -2.91154204620462
 1 -7.13064215031503 -3.73791597549755 -0.78065708690869
 1 -7.45554381928193 -3.81558288878888 -2.66554960846085
 1  3.80079380688069  3.38249761076108  3.85844909910991
 1 -0.34421830063006  4.67139841934193 -2.92709060446045
 1 -4.18869745934593  4.31741832363236 -0.49704085558556
 1 -3.68196694639464  3.85769056265627  1.26009682108211
 1 -2.88029634583458  5.44525481658166  0.40709647954795
 1  8.31607730123012 -2.41070422462246 -0.98013864886489
 1 -1.72166509110911  6.17025748284828 -3.33527838003800
 1 -2.92140449334933  5.88684005980598 -1.82212812031203

