%nproc=4
%Mem=3GB
# td=(NStates=1) B3LYP/SVP 

TD

0 1
 8 -3.32173908410841 -1.37517257275728 -2.82083273757376
 8  2.98915937073707  3.10417207570757  3.36626089698970
 8  3.80972528072807  1.22902003030303  4.39435387898790
 8  7.83244184708471 -1.54359047324732 -0.87102786458646
 8  6.75700985738574 -2.93221401630163 -2.25148159625963
 8 -2.74432533903390  1.59395488458846  1.21835189568957
 7 -0.30999674587459 -2.37555386968697  0.92430727152715
 7 -2.84567660566057 -1.20770590559056 -0.54751689628963
 7  1.14457600700070  0.07232814251425 -0.59537447464746
 7 -1.07889703520352  1.48319372727273 -0.33218411631163
 6 -3.53515866556656 -1.28148571097110  0.65994296819682
 6 -2.67667629372937 -2.34128827502750  1.65901120792079
 6 -1.22106774847485 -2.02607042104210  1.79077706630663
 6 -0.57240704300430 -1.20933212491249  2.87881590209021
 6  0.84947606020602 -1.22251725272527  2.51276247084708
 6  0.96191887808781 -1.85660209490949  1.28955375937594
 6 -4.75258020462046 -1.95262091079108  0.31098798609861
 6  1.94429902130213 -0.43916424602460  3.28157031153115
 6 -4.82042840424042 -1.96468517691769 -1.01049138963896
 6  2.06907486388639 -1.93370156235624  0.33063534223422
 6  2.14087010891089 -0.93243515571557 -0.49851375287529
 6 -3.55366003590359 -1.49112107740774 -1.65318260166017
 6  3.00180124332433 -0.58684943324332 -1.67220111901190
 6 -1.24010258245825 -0.50683454045405  3.92894840314031
 6 -5.85302052615262 -2.37443392369237  1.37170817641764
 6  2.59858951585159  0.42527989618962 -2.38768337833783
 6  2.02997242964296  0.98503419541954  2.82233887548755
 6  1.43102646914691  1.00652730133013 -1.62599870587059
 6  4.23265861496150 -1.40735016411641 -1.97874750485049
 6 -5.86194053015302 -2.45125721612161 -1.95074852305231
 6  5.54823037403740 -1.14162590779078 -1.19114253115312
 6  3.09403949934994  1.12387078967897 -3.64692120132013
 6  0.54397682178218  1.99560470737074 -1.93813555865587
 6  2.97021566186619  1.76701628712871  3.66517186238624
 6 -0.57748157975798  2.33202783498350 -1.22391767966797
 6 -6.98731265776578 -3.18328209230923 -1.71546010471047
 6  6.78866843644364 -1.97388564366437 -1.54635532553255
 6 -1.42175082988299  3.58190042324232 -1.45793386808681
 6 -2.45899998939894  3.46074655365537 -0.49432733893389
 6 -2.10946321872187  2.03859479297930  0.33281221322132
 6 -1.14428440684068  4.61590785098510 -2.26801856985699
 6 -3.39588022452245  4.38841932483248  0.13661790149015
 6 -1.92649654085409  5.72131754995500 -2.54758849164916
 1 -3.50568906210621 -0.32201769166917  1.18608281288129
 1 -2.68082970937094 -3.41695682068207  1.26994734383438
 1 -3.04020384018402 -2.42105554995500  2.72226161486149
 1 -0.34000930573057 -2.85543430853085  0.02230924092409
 1 -2.11356974667467 -0.46852315581558 -0.51402550495050
 1  1.81962992439244 -0.37615906970697  4.27855995509551
 1  2.95027236013601 -1.00384227552755  2.86784171357136
 1  2.77115592949295 -2.97858944184418  0.42218527172717
 1 -2.24864749404940 -0.85594486848685  4.52726978877888
 1 -0.59824959295930 -0.22890709430943  4.53800015651565
 1 -1.59083839763976  0.49270171687169  3.46093485878588
 1 -5.82511329852985 -1.59581771297130  2.13798809180918
 1 -6.03103186388639 -3.57297140174017  1.54743759005901
 1 -6.78588596539654 -2.24388003140314  0.85084144584458
 1  2.18920505990599  1.40137007890789  1.76656426772677
 1  1.00062001350135  1.53843608790879  2.87496547024702
 1  0.33208146574657  0.40901527132713 -0.10934296659666
 1  4.34973069226923 -1.13811687068707 -3.12250785268527
 1  4.02173300310031 -2.39727150635063 -1.85274238223822
 1 -5.60860299869987 -2.21564248884889 -2.91894535833583
 1  5.26447436873687 -1.10478095799580 -0.04008078437844
 1  5.80301174247425 -0.06659365546555 -1.26175065756576
 1  3.97160707220722  0.49216570867087 -3.95353358285829
 1  3.41016676827683  2.13164424312431 -3.42167450285029
 1  2.19382517181718  1.30039453735373 -4.32106525852585
 1  0.70742465246525  2.54844634113411 -2.90737162916292
 1 -7.28406749284929 -3.58164034793479 -0.85915493669367
 1 -7.70742900780078 -3.39238056855686 -2.52934598809881
 1  3.80845457295730  3.59861922292229  3.74008726292629
 1 -0.08483236203620  4.49829110861086 -2.74673256865687
 1 -4.13234182378238  4.78217479927993 -0.50267141864186
 1 -3.59571832153215  3.87735252885288  1.09277008840884
 1 -2.89424774097410  5.32257254835484  0.55101087098710
 1  8.49999569306931 -2.12415556975698 -1.01240187518752
 1 -1.63435636023602  6.48947940504050 -3.30579543174317
 1 -2.95698805170517  6.02076345214522 -2.10424633213321

