%nproc=4
%Mem=3GB
# td=(NStates=1) B3LYP/SVP 

TD

0 1
 8 -3.13947085728573 -1.41289634513451 -2.83172382668267
 8  3.15676613141314  3.15543720222022  3.15852012291229
 8  3.90091439963996  1.25207233553355  4.23810825442544
 8  7.80584918781878 -1.46832294649465 -0.89065982778278
 8  6.57953210961096 -3.13693448834883 -1.98519496759676
 8 -2.67728863536354  1.63230871997200  1.38522858335834
 7 -0.32774852105211 -2.49287560186019  1.01351619241924
 7 -2.69666170417042 -1.20880601560156 -0.62151429602960
 7  1.04380592999300  0.10472138183818 -0.72249718691869
 7 -0.95503464896490  1.49737514541454 -0.23765466336634
 6 -3.35784093379338 -1.24738230063006  0.67011398529853
 6 -2.68514714081408 -2.25299944614461  1.62208751555156
 6 -1.25191083278328 -2.03000081408141  1.83936192479248
 6 -0.52438224052405 -1.21689288098810  2.90499852035204
 6  0.73178429102910 -1.12208720972097  2.49226042064206
 6  0.80256294249425 -1.87487392209221  1.24782958695870
 6 -4.76379132573257 -1.97604325302530  0.20749763706371
 6  1.78999359075908 -0.39188951855186  3.17240939543954
 6 -4.85711207260726 -2.03614232263226 -1.13092343284328
 6  1.98466642304230 -1.92798099029903  0.30549282798280
 6  2.01490751265126 -0.88971088328833 -0.67364126562656
 6 -3.49117378727873 -1.61624358965897 -1.70689797319732
 6  3.08450951415142 -0.58246899519952 -1.64250814971497
 6 -1.34601317351735 -0.66211006800680  3.98145365366537
 6 -5.84435966006601 -2.04687116741674  1.19059006460646
 6  2.51339099599960  0.46586395459546 -2.40633524352435
 6  1.90809024142414  1.16692238423842  2.85968260986099
 6  1.33034640114011  0.90120676927693 -1.82460856685669
 6  4.20059540864086 -1.55493492259226 -1.94541417151715
 6 -5.70774511061106 -2.57998008840884 -2.04550799899990
 6  5.52445799679968 -1.09086083128313 -1.17190060696070
 6  3.22251234663466  1.12067046964696 -3.62279878907891
 6  0.54735715981598  2.04380952785279 -2.03267501260126
 6  3.04972361266127  1.86783636913691  3.53445879107911
 6 -0.59160299189919  2.33014764696470 -1.18152344024402
 6 -6.78682260876088 -3.37458122222222 -1.68317687638764
 6  6.63416298589859 -2.00071832693269 -1.39151984198420
 6 -1.49907856265627  3.54350658385839 -1.36343441814181
 6 -2.34757884728473  3.43334381338134 -0.29224713091309
 6 -2.04628690109011  2.14348528202820  0.33864279627963
 6 -1.18566854525453  4.71564782498250 -2.24672644064406
 6 -3.31467210371037  4.31866234913491  0.41036527622762
 6 -2.10028391959196  5.80438585678568 -2.33951768456846
 1 -3.54397289048905 -0.23968945884588  1.28381258585859
 1 -2.79248087448745 -3.42466759175918  1.37563791289129
 1 -3.34778459825983 -2.21348479287929  2.51009039773977
 1 -0.52250755555556 -2.91252001710171  0.07553456345635
 1 -2.28800719041904 -0.16070237373737 -0.72421652405241
 1  1.62706066746675 -0.75427688148815  4.07483958305831
 1  2.88852618551855 -0.82982487378738  2.86304123352335
 1  2.87508632253225 -2.57987957085709  0.50071312451245
 1 -2.18016064536454 -1.27353662766277  4.38837589938994
 1 -0.63033280128013 -0.28308251185119  4.88745510201020
 1 -1.95540485428543  0.33617606430643  3.72433119841984
 1 -5.64090487768777 -1.45973410461046  2.14309860286029
 1 -5.96512527322732 -3.19757386198620  1.44496734303430
 1 -6.83387076387639 -1.55100074347435  0.90653701540154
 1  1.96970310971097  1.20761070297030  1.61538915021502
 1  0.93876382788279  1.81973421772177  3.05571354505451
 1  0.23404166176618  0.35631000080008  0.04221218891889
 1  4.50842656185619 -1.55678873787379 -3.12630823272327
 1  3.99811064086409 -2.61514329352935 -1.64716182418242
 1 -5.75200733913391 -2.39911083568357 -3.20765422922292
 1  5.37501542284228 -0.97917839773977  0.02829605330533
 1  5.72997443874387  0.07230023392339 -1.56565104760476
 1  4.02597250875088  0.45616210831083 -4.13356158565857
 1  3.69147489908991  2.16560763946395 -3.27498983438344
 1  2.51636742604260  1.34534903280328 -4.30115326732673
 1  0.59764367436744  2.59267076357636 -3.17866875887589
 1 -7.29792887898790 -3.58931111501150 -0.73919294049405
 1 -7.55654391929193 -3.60452178267827 -2.38385143864386
 1  3.91253498099810  3.43094245524552  3.68386164036404
 1 -0.31408528732873  4.74499577907791 -2.85994388978898
 1 -4.23546213581358  4.39147572937294 -0.37827897939794
 1 -3.69785853555356  3.61551634523452  1.27400821222122
 1 -2.93007132333233  5.38884917601760  0.66624239413941
 1  8.48790448394839 -2.00840399459946 -1.29593022802280
 1 -1.93239616421642  6.88416887398740 -2.94924977717772
 1 -3.04027638053805  5.73257463326333 -1.68038394589459

