%nproc=4
%Mem=3GB
# td=(NStates=1) B3LYP/SVP 

TD

0 1
 8 -3.34775168536854 -1.17667272277228 -2.83888454275428
 8  2.81509196399640  3.13459511801180  3.23231750265027
 8  3.56289059725973  1.42729985828583  4.28656309990999
 8  7.71635023792379 -1.77750386458646 -0.71325208700870
 8  6.60761491789179 -3.04040483538354 -2.33664011211121
 8 -2.72633353985399  1.67573306240624  1.38183824432443
 7 -0.21106685288529 -2.42490880518052  0.94257909870987
 7 -2.60879291729173 -1.18054318931893 -0.60533267786779
 7  1.22322387178718  0.09395030473047 -0.63428836603660
 7 -0.99543868936894  1.44136954485449 -0.20200109800980
 6 -3.34056920662066 -1.32359992239224  0.71532850675068
 6 -2.50515914201420 -2.44576872307231  1.63767907470747
 6 -1.10332597429743 -2.06568438243824  1.81923991259126
 6 -0.63276307860786 -1.30082127382738  2.84471249174918
 6  0.73323443604360 -1.12686768776878  2.55550674527453
 6  0.97897058325833 -1.83445988068807  1.27062186618662
 6 -4.64298924552455 -1.88087373607361  0.25251213851385
 6  1.78687327872787 -0.36839716931693  3.21150330483048
 6 -4.78805516691669 -1.96180488888889 -1.04334467496750
 6  2.09821777817782 -1.86654484668467  0.30784306300630
 6  2.11199722162216 -0.94172608480848 -0.62772667416742
 6 -3.49274394429443 -1.40942290759076 -1.61764904830483
 6  3.09993105630563 -0.64835558385839 -1.70794469336934
 6 -1.41559013121312 -0.49497335433543  3.89644515281528
 6 -5.66806203030303 -2.29444592489249  1.35033603920392
 6  2.64580423732373  0.52059942814281 -2.34656926692669
 6  1.92487191959196  1.10886657865787  2.66159280088009
 6  1.41148451495150  0.97725437403740 -1.75881198719872
 6  4.24716006510651 -1.47127655675568 -2.18464809490949
 6 -5.78909324542454 -2.43849593999400 -1.99623307150715
 6  5.43202875387539 -1.18499024422442 -1.11898531543154
 6  3.17418751415142  1.14461286388639 -3.64160066926693
 6  0.51358378247825  1.95328047494749 -2.07583932903290
 6  2.82890153045305  1.89407899339934  3.46810215541554
 6 -0.61617544914491  2.28013264546455 -1.20740602850285
 6 -6.83101702820282 -3.19392315641564 -1.65000355905591
 6  6.65741531113111 -2.13370162526253 -1.44970566056606
 6 -1.34516317111711  3.52526475967597 -1.18632670737074
 6 -2.31949603900390  3.42508298729873 -0.16984489068907
 6 -2.10169244164416  2.09157009050905  0.42914184618462
 6 -1.23358333673367  4.56351261146115 -2.23607537553755
 6 -3.55987662416242  4.30843132603260  0.19127336703670
 6 -1.94528842004200  5.70686610481048 -2.40118385118512
 1 -3.16489498269827 -0.42459794969497  1.15415962056206
 1 -2.53580520692069 -3.43429855485549  0.94537488658866
 1 -3.15609542934293 -2.35711915631563  2.54939432813281
 1 -0.41665697049705 -2.96005477057706  0.08944595459546
 1 -1.91958034773477 -0.53118942244224 -0.47942204460446
 1  1.45015297669767 -0.36907836163616  4.32081418051805
 1  2.75552288518852 -0.81814370567057  3.04225915531553
 1  2.85839465336534 -2.72148373127313  0.54000705390539
 1 -2.15269789908991 -0.94324359835984  4.81493855565557
 1 -0.41321108910891 -0.03179738333833  4.49805616211621
 1 -1.90267958175818  0.39563200990099  3.65390415571557
 1 -5.32341312851285 -1.79174730593059  2.30922521552155
 1 -5.71679043974397 -3.53340744534453  1.15942878917892
 1 -6.70481785858586 -1.89594523792379  1.08752511421142
 1  2.39891603100310  0.94377431933193  1.54219183048305
 1  0.95619557105711  1.85500774507451  2.21693966766677
 1  0.30250850845085  0.18241261106111 -0.17716974927493
 1  4.48394411361136 -1.45063812281228 -3.28384398629863
 1  4.03811464126413 -2.37299907910791 -2.08064517251725
 1 -5.31865400380038 -2.29911083568357 -3.00653411721172
 1  5.18586650795080 -1.44169464936494 -0.03364014031403
 1  5.65482692399240 -0.16089308540854 -1.24855933843384
 1  4.00216012751275  0.53337983008301 -4.11105933543354
 1  3.91755750735074  2.09537061576158 -3.35767810321032
 1  2.33156894619462  1.08592309020902 -4.36933008500850
 1  0.68667257725773  2.43656515301530 -2.89285017701770
 1 -6.96898598469847 -3.26964914881488 -0.52124114531453
 1 -7.39879814471447 -3.66541787228723 -2.39655270877088
 1  3.68038176567657  3.38791815281528  3.76882013621362
 1 -0.40787466626663  4.41847312681268 -2.98415631103110
 1 -4.39052764236424  4.72294887668767 -0.71026217771777
 1 -4.06847559725973  4.02218701230123  0.98238905030503
 1 -3.03636195239524  5.22870316141614  0.73933970387039
 1  8.55784147764776 -2.32559571377138 -0.73219385438544
 1 -1.52319524412441  6.45162561966197 -2.96855170737074
 1 -2.94142649554955  5.78849022482248 -1.92978888638864

