%nproc=4
%Mem=4GB
# td=(NStates=1) B3LYP/SVP 

TD

0 1
 8 -5.47715394539454 -0.10157471787179 -3.34535432513251
 8  3.11493149864987  2.83910116481648  3.32583866226623
 8  3.36232458105811  0.68925432443244  3.26175806090609
 8  1.52756039553955 -7.19255552565256  1.46270477677768
 8  0.71856674467447 -6.94784120772077 -0.64801278417842
 8  1.85553260136014  3.96375949874988  0.28785829322932
 7 -2.25719533063306 -0.77041547174717  0.50870788738874
 7 -4.45156003740374  0.46090375687569 -1.31813016781678
 7  1.75084547614761 -0.63304487748775 -0.45571404900490
 7  2.60390593249325  1.86251199669967 -0.33880062676268
 6 -4.78085447664767  1.08017951495150 -0.04295849604960
 6 -4.32401979477948  0.39106927222722  1.24469182688269
 6 -2.86270136573657  0.08105836253625  1.35163717671767
 6 -1.87786688338834  0.77305226242624  2.16175934553455
 6 -0.72256886718672  0.07452201670167  1.81552222982298
 6 -0.96982116991699 -0.93929698859886  0.84345616501650
 6 -6.32413476957696  1.30900869016902 -0.25487070247025
 6  0.64734334093409  0.25473615011501  2.54303332343234
 6 -6.64629514401440  0.70872012041204 -1.38514424312431
 6 -0.13889014511451 -1.99865860276028  0.17424950645065
 6  1.10624752095210 -1.79420896749675 -0.18902048424842
 6 -5.50726132643264  0.28744695939594 -2.23123043454345
 6  1.90953503870387 -2.87726826522652 -0.97225423472347
 6 -2.03738943984398  1.74591034793479  3.22873726392639
 6 -6.97912540574057  1.96789491869187  0.87832181808181
 6  3.04878121182118 -2.33358330953095 -1.41860310541054
 6  1.22060808810881  1.66029452285229  2.56894052995300
 6  2.95217329262926 -0.86829545514551 -1.09918390659066
 6  1.64134790499050 -4.30998696309631 -0.91514323122312
 6 -8.06160206620662  0.63072471007101 -2.03082146994700
 6  1.69252681828183 -5.07555849044904  0.48890488598860
 6  4.34848045704570 -2.99049751855186 -1.96504573587359
 6  3.90047091769177  0.09145854935494 -1.45733041544154
 6  2.70094071527153  1.67617520572057  3.10071597149715
 6  3.62820719851985  1.44057946944694 -1.09879644694469
 6 -9.23318830223022  0.92853501380138 -1.48145296059606
 6  1.22370743544354 -6.51094774497450  0.37342600160016
 6  4.48862769736974  2.67857461236124 -1.49237632073207
 6  3.82923219161916  3.72747327102710 -0.99672096639664
 6  2.64733630443044  3.27795564666467 -0.32095085778578
 6  5.73949755505551  2.51468630923092 -2.27260921602160
 6  4.28518413821382  5.21004588038804 -1.18346035943594
 6  6.62329238683868  3.47649333413341 -2.64077855475548
 1 -4.41606609270927  2.18356943704370  0.03842688298830
 1 -4.96403106000600 -0.59417089318932  1.50694543874387
 1 -4.62189902980298  1.20075407510751  1.94871178087809
 1 -2.69717875777578 -1.25557295279528 -0.29950687248725
 1 -3.47191818911891  0.54203612071207 -1.45622317321732
 1  0.49366380108011 -0.02276196419642  3.69829937803780
 1  1.38992300170017 -0.50377504490449  1.93139827262726
 1 -0.57117577847785 -2.93139060406041  0.16026102840284
 1 -3.15742588788879  1.74811607570757  3.53046303600360
 1 -1.50669188428843  1.40007937183718  4.09671805970597
 1 -1.70845722682268  2.96990080988099  3.03569099089909
 1 -6.33408685958596  2.43389219271927  1.49860209320932
 1 -7.37163693069307  1.02660246944694  1.59127613831383
 1 -7.57985392259226  2.78938502160216  0.60415889608961
 1  1.12873558195820  2.26494853145315  1.54167223452345
 1  0.65947906040604  2.05524234623462  3.42381820602060
 1  1.54494882128213  0.48524916991699 -0.25718108340834
 1  2.31354914711471 -4.98747257765777 -1.48531314101410
 1  0.81265306280628 -4.43503335083508 -1.37876636003600
 1 -8.08288935073507  0.22006223682368 -3.14950088828883
 1  0.80127231613161 -4.74458563826383  1.36298387498750
 1  2.71750802090209 -5.07422462696270  0.93242105700570
 1  3.98241330363036 -3.99178663086309 -2.03411687278728
 1  5.15557665606561 -2.94691354155416 -1.07299091669167
 1  4.74755618871887 -2.58896112871287 -2.97265633923392
 1  4.87812743224322 -0.16523861836184 -2.15549172487249
 1 -9.16668026852685  1.37515497099710 -0.45186787658766
 1 -10.09684781838184  0.76516793249325 -2.01939803980398
 1  4.07567225372537  2.78195157885789  3.49690445614562
 1  5.98036150435043  1.41641379057906 -2.76290510551055
 1  5.37068776857686  5.37776054025403 -0.90842946284628
 1  4.16726874937494  5.59444621032103 -2.42728527342734
 1  3.62388005760576  5.81107071347135 -0.50735247684768
 1  1.31704901300130 -8.14874603170317  1.22377843274327
 1  7.57786023042304  3.25688122802280 -3.26173344664466
 1  6.46718860636064  4.44972048424842 -2.24038639113911

