%nproc=4
%Mem=3GB
# td=(NStates=1) B3LYP/SVP 

TD

0 1
 8 -3.05406231643164 -1.37951300680068 -2.85298595289529
 8  3.05075553035304  3.13068472697270  3.25842011291129
 8  3.79509381758176  1.33951107940794  4.32001644524452
 8  7.81533013591359 -1.31887800200020 -0.99647040884088
 8  6.67407156355636 -3.12851364626463 -1.98005445354535
 8 -2.73824473097310  1.67003249234923  1.53372343284328
 7 -0.28816456265627 -2.39632594689469  0.93498833963396
 7 -2.66084812281228 -1.18125326032603 -0.59628177277728
 7  1.06155770517052  0.00085099479948 -0.76367130433043
 7 -1.11820096559656  1.47298270617062 -0.21980287818782
 6 -3.36798194789479 -1.21252881528153  0.62156913081308
 6 -2.67804643074307 -2.24545869206921  1.66304161096110
 6 -1.22723836553655 -2.01957977197720  1.87469545814581
 6 -0.57028683098310 -1.18234942664266  2.86359437993799
 6  0.77423853645365 -1.12416741774177  2.40730192479248
 6  0.92462514871487 -1.96064249894989  1.28669347334733
 6 -4.75118006460646 -1.85990163886389  0.22506939423942
 6  1.83693828522852 -0.45543587318732  3.12673482798280
 6 -4.74122048344834 -2.10135884428443 -1.17267760826083
 6  2.07114507090709 -1.95322351455146  0.32509478817882
 6  2.13388941084108 -1.01556346854685 -0.66789069056906
 6 -3.33920859075908 -1.56790875617562 -1.69605688908891
 6  3.03753481668167 -0.65386613491349 -1.79383328222822
 6 -1.25116368856886 -0.35434929192919  3.87995350365036
 6 -5.77713293739374 -2.05890237053705  1.30094109970997
 6  2.54393405030503  0.43612098029803 -2.38963357335734
 6  1.93161259365937  1.09502519451945  2.81244788638864
 6  1.40969433593359  0.82418906750675 -1.79734584058406
 6  4.23790914001400 -1.57005643474347 -1.94646427652765
 6 -5.77858219431943 -2.47037912831283 -2.07474092229223
 6  5.43579913091309 -1.20914265946595 -1.16022943984398
 6  3.12475257065707  1.12393079567957 -3.72303881308131
 6  0.49595201930193  1.94845999289929 -1.98891063616362
 6  3.00979962026203  1.84278386388639  3.52713805900590
 6 -0.64056788838884  2.24570920312031 -1.15478076597660
 6 -6.97685161166117 -3.20380414451445 -1.85242380108011
 6  6.65627519711971 -2.07037529262926 -1.42223291329133
 6 -1.42384103890389  3.52648488168817 -1.18449652435244
 6 -2.35695978537854  3.41839231823182 -0.13829173537354
 6 -2.09468174057406  2.12582351585159  0.54946387838784
 6 -1.28666864526453  4.58947520772077 -2.24126589458946
 6 -3.57290792729273  4.29586006890689  0.31797603730373
 6 -1.97709160036004  5.70875629382938 -2.42920665346535
 1 -3.36722521572157 -0.32371786168617  1.14111831643164
 1 -2.96455808220822 -3.14541966696670  1.24129447854785
 1 -3.12851267106711 -2.13693713811381  2.71762115081508
 1 -0.61359666446645 -3.14399316441644  0.20339734973497
 1 -1.81859024872487 -0.64256055955596 -0.61286538893889
 1  1.62078003940394 -0.67892934673467  4.28498059715972
 1  2.87965529842984 -0.85743763506351  2.94144907430743
 1  2.88295710961096 -2.82791437433743  0.11599465266527
 1 -2.11007363666367 -1.08964823882388  4.36810387218722
 1 -0.39377914591459 -0.26442064566457  4.83580993749375
 1 -1.77131644544454  0.64870731743174  3.65761452675267
 1 -5.36101688888889 -1.49582771397140  2.20350464346435
 1 -5.74855361606161 -3.02206631123112  1.62660550685068
 1 -6.69499687648765 -1.75081072447245  1.04390075177518
 1  2.16773291269127  1.36048599049905  1.64472208350835
 1  0.92974292579258  1.58808105240524  3.04807278097810
 1  0.55059331693169  0.49704407420742  0.02416038373837
 1  4.37205292449245 -1.55962902190219 -3.16685228712871
 1  3.70685151495150 -2.57905968516852 -1.76120322832283
 1 -5.21415355375538 -2.08075900050005 -3.01385484928493
 1  5.19667758905891 -1.36773725362536 -0.12819959625963
 1  5.66270771207121 -0.07344434053405 -1.15971045354535
 1  3.86672658415842  0.66196268836884 -3.97699592909291
 1  3.53903965556556  2.19841091979198 -3.60899323472347
 1  2.31400719001900  1.45212971087109 -4.59807295929593
 1  0.57420133013301  2.55400689718972 -2.86375726772677
 1 -7.40210929702970 -3.52190437433743 -0.93116213741374
 1 -7.50539880478048 -3.22711404190419 -2.81108416191619
 1  3.71244497199720  3.63241260226023  3.96586984118412
 1 -0.59788366716672  4.36318759825983 -3.00387828322832
 1 -4.27116570617062  4.46581316311631 -0.67861901340134
 1 -4.11369011871187  3.84256905050505  1.03517432883288
 1 -3.19459777597760  5.38395868696870  0.85864163406341
 1  8.54006970047005 -1.95981913611361 -1.05475611061106
 1 -1.86819974457446  6.18012846994699 -3.39070392259226
 1 -2.83845619851985  5.93004438023802 -1.77366327382738

