%nproc=4
%Mem=3GB
# td=(NStates=1) B3LYP/SVP 

TD

0 1
 8 -3.36937384758476 -1.35794084958496 -2.82154280858086
 8  3.08257871267127  3.05407706620662  3.45001927282728
 8  4.13405771397140  1.25145227352735  4.15617006060606
 8  7.71085968886889 -1.70229634383438 -0.65262602440244
 8  6.56693084948495 -2.96322711761176 -2.11541798989899
 8 -2.77317822432243  1.64293978307831  1.34535459595960
 7 -0.26936268246825 -2.30360667496750  0.87248208900890
 7 -2.69075111311131 -1.16816195119512 -0.59957210181018
 7  1.12921447084709  0.12093300300030 -0.78663360056006
 7 -1.02665181068107  1.46580198809881 -0.25435633353335
 6 -3.38542369206921 -1.30063762616262  0.65004197809781
 6 -2.62884151025102 -2.44667881408141  1.59281458825883
 6 -1.20972661436144 -2.00137795179518  1.74292228082808
 6 -0.61788159045905 -1.21155234693469  2.78938695919592
 6  0.69723083568357 -1.09098409940994  2.52257345194519
 6  0.97566025222522 -1.73087952265227  1.24522932693269
 6 -4.76033097969797 -1.89595524422442  0.32591947924792
 6  1.80604519591959 -0.34176450605061  3.23842599709971
 6 -4.79261562296230 -2.05597430583058 -1.04223456395640
 6  2.10480843724372 -1.86012420462046  0.29693197189719
 6  2.13011903380338 -0.85429734193419 -0.67853175467547
 6 -3.61219588948895 -1.42763472877288 -1.66501378477848
 6  2.98703976717672 -0.59323007130713 -1.80328422732273
 6 -1.34341291349135 -0.55003886088609  3.98155366366637
 6 -5.79260448454846 -2.24209068936894  1.30069107470747
 6  2.65675533243324  0.50716808500850 -2.41827643764376
 6  1.80977040944094  1.12531822382238  3.04719136073607
 6  1.38161152765277  0.97502415101510 -1.88499460546055
 6  4.26167151625163 -1.53586301540154 -2.05192482258226
 6 -5.83137747384738 -2.58022011241124 -2.00407385558556
 6  5.43847939893989 -1.14546629182918 -1.06488990589059
 6  3.07369746514651  1.10419882248225 -3.75644215341534
 6  0.60882330643064  2.11969711661166 -2.10875262036204
 6  3.13763240354035  1.79398898439844  3.60177552275227
 6 -0.58284211581158  2.35399003120312 -1.26934222212221
 6 -6.76304023052305 -3.47296106020602 -1.70607916661666
 6  6.56923649324933 -2.01560981608161 -1.31052174217422
 6 -1.40753940874087  3.54150638383838 -1.31016909160916
 6 -2.30283437283728  3.45278575757576 -0.32465037123712
 6 -2.09411168356836  2.12867380088009  0.35056398839884
 6 -1.20212019041904  4.64550081028103 -2.24232600060006
 6 -3.48950958745875  4.37518800170017  0.17994223392339
 6 -1.99833372457246  5.70357577577758 -2.35839957275728
 1 -3.33844233743374 -0.35459094899490  1.33577778237824
 1 -2.72871449784979 -3.36147127212721  1.17658800790079
 1 -3.17252707250725 -2.43274671907191  2.68814820352035
 1 -0.44066937173717 -2.88536730183018  0.00434744474447
 1 -1.84773316301630 -0.52654895839584 -0.61842594499450
 1  1.68603656505651 -0.67548900270027  4.16260835993599
 1  2.74709204210421 -0.83024491579158  2.88785371477148
 1  2.76209502340234 -2.64554613751375  0.19323237643764
 1 -2.00817344664466 -1.11735100910091  4.52664972677268
 1 -0.57288705670567 -0.03038724232423  4.58029438593859
 1 -1.97167648144814  0.23808625532553  3.49497826312631
 1 -5.81678246544654 -1.47663579477948  2.08925321832183
 1 -5.50747950865087 -3.18502260686069  1.86232907920792
 1 -6.89647702450245 -2.56002164556456  0.87305366706671
 1  1.89725586498650  1.28190813271327  1.86906451775178
 1  0.97773772527253  1.65242748704870  3.63800177387739
 1  0.30535879347935  0.52838720852085 -0.13930596289629
 1  4.62156787598760 -1.41334439343934 -3.02879848174817
 1  3.87317814761476 -2.50900267946795 -2.14497160516052
 1 -5.74100623902390 -2.08789971457146 -2.97157062086209
 1  4.96912483378338 -1.23839431933193  0.03000622432243
 1  5.92592403370337 -0.05861285738574 -1.07931241374137
 1  3.93814372587259  0.37049354145415 -4.03625185468547
 1  3.73365911751175  2.01337241594159 -3.47424976037604
 1  2.39124491379138  1.14660915881588 -4.49270242224222
 1  0.82423633363336  2.74783628012801 -3.04721561356136
 1 -6.98114720082008 -4.01058324222422 -0.78371739293929
 1 -7.52473073797380 -3.97113844434443 -2.31288434193419
 1  4.02842657015702  3.35829519051905  3.78340159435944
 1 -0.35071895069507  4.55247652715272 -2.93426132153215
 1 -4.22805139473947  4.44195077687769 -0.67232838433843
 1 -3.94227297699770  4.04123891749175  1.17442825422542
 1 -3.28433674987499  5.56182647374738  0.31280705060506
 1  8.37871356485649 -2.37530068426843 -0.91561219621962
 1 -1.64952787738774  6.41667212431243 -3.06981183338334
 1 -2.95669802270227  5.85568694449445 -1.73037894539454

