%nproc=4
%Mem=4GB
# td=(NStates=1) B3LYP/SVP 

TD

0 1
 8 -5.44191042104210 -0.05316987738774 -3.33954374407441
 8  3.06113611911191  2.92991024572457  3.20790686908691
 8  3.33448179677968  0.68376377537754  3.14535642074207
 8  1.75833347284728 -7.32748901900190  1.44326283258326
 8  0.57189207720772 -6.96590301390139 -0.43765174807481
 8  1.70583763186319  4.00316343914391  0.03218272567257
 7 -2.31331094219422 -0.85707413761376  0.62341935853585
 7 -4.44303918531853  0.57003466996700 -1.25978433323332
 7  1.85397578917892 -0.68484005700570 -0.34324280188019
 7  2.50847638953895  1.93342908840884 -0.62246899359936
 6 -4.78106449764976  1.12518401540154 -0.02259645984598
 6 -4.37846523932393  0.30760092539254  1.22318967666767
 6 -2.92044714031403 -0.02424216751675  1.45972798579858
 6 -1.94033313001300  0.68867382458246  2.14445761536154
 6 -0.68511512181218  0.07972253675368  1.88652933053305
 6 -0.92148633643364 -0.92477553645365  0.89113093249325
 6 -6.28158051415142  1.39682747204720 -0.19582479787979
 6  0.62947155375538  0.17558823532353  2.54141316141614
 6 -6.68874938943894  0.80385963436344 -1.42929865856586
 6 -0.19116537263726 -1.87981671857186  0.18251033253325
 6  1.16215311151115 -1.86356590319032 -0.25104668686869
 6 -5.44531513181318  0.39442765746575 -2.21756906840684
 6  1.96915100030003 -2.92367290569057 -0.90075708500850
 6 -2.17351305220522  1.69786554345435  3.24520891109111
 6 -7.12498999219922  1.96407453665367  0.83591757765777
 6  3.10724705840584 -2.37191714291429 -1.41623286838684
 6  1.14013004030403  1.58864735813581  2.61101473737374
 6  3.00822889818982 -0.91700032563256 -1.04223821202120
 6  1.54183795399540 -4.34120008440844 -0.97004872177218
 6 -7.98369427542754  0.88760039763976 -2.03754214201420
 6  1.87159472507251 -5.10859179377938  0.36653264876488
 6  4.21174678367837 -2.95532400120012 -2.08924815611561
 6  3.90644151475148  0.20066947044705 -1.38882356475648
 6  2.59988060926093  1.65119270747075  2.97648354825483
 6  3.67021139893989  1.50697610911091 -1.14020058735874
 6 -9.17331231463146  0.90389254955496 -1.38604341964196
 6  1.30916598129813 -6.54571122132213  0.43715237423742
 6  4.61177001160116  2.64258101300130 -1.35052213531353
 6  3.90323959235924  3.79810033373337 -1.02077337163716
 6  2.60566213701370  3.29438728982898 -0.52465122782278
 6  5.90690429572957  2.48146298689869 -2.08207016211621
 6  4.29203482328233  5.19952482828283 -1.08725073847385
 6  6.72309236683668  3.45316100090009 -2.49781425832583
 1 -4.22722720882088  1.97765884598460  0.11822486278628
 1 -5.12984764166417 -0.55973744984498  1.16956170037004
 1 -4.86588342824282  0.91142514221422  2.12783969366937
 1 -2.89186822672267 -1.46484387988799  0.00279335753575
 1 -3.47459845714571  0.42448436553655 -1.50095764666467
 1  0.61940637533753 -0.40872056005601  3.43698324642464
 1  1.31440544994499 -0.64504917231723  2.16325145794579
 1 -0.67826648754876 -2.75750321532153 -0.00534553225323
 1 -3.22505265056506  1.58332959705971  3.36021601130113
 1 -1.72117333243324  1.55887525142514  4.13895228312831
 1 -1.85308168926893  2.75732955275528  3.12310973277328
 1 -6.55572902380238  2.67714651815182  1.51784401740174
 1 -7.45658542554255  1.02753256245625  1.51401841254125
 1 -8.08019395659566  2.29098518161816  0.42227070727073
 1  1.13249595799580  2.14742677927793  1.60331839913991
 1  0.53572668516852  2.19618644064406  3.36531235543554
 1  1.68429275567557  0.39620026502650 -0.20877624292429
 1  1.95515330753075 -4.87439126952695 -1.87308191789179
 1  0.36557835533553 -4.31912175967597 -1.03458194159416
 1 -8.05967702950295  0.68492872347235 -3.19499543774377
 1  1.39741193009301 -4.51893307300730  1.17718529512951
 1  2.97607387748775 -5.01764896939694  0.33393120802080
 1  4.02519758205821 -4.03633108530853 -2.13577703880388
 1  5.35506660506051 -2.78254710491049 -1.73464708230823
 1  4.30502193529353 -2.42617485008501 -3.10378945254525
 1  4.97214683418342 -0.30346244074407 -1.86691286698670
 1 -9.34978857935794  1.02398985448545 -0.21730442024202
 1 -10.18049618321832  0.82491390709071 -1.81890799079908
 1  4.12331701820182  2.96517990169017  3.39563432913291
 1  6.27592106030603  1.40816296549655 -2.51618043304330
 1  5.15741644144414  5.28658142234223 -0.48725734563456
 1  4.42054407690769  5.59069583528353 -2.11629417431743
 1  3.44274194379438  5.73274288068807 -0.67076881848185
 1  1.50980828892889 -8.18095925302530  1.18781483638364
 1  7.66698914331433  3.02092763266327 -3.05362263556356
 1  6.47219910741074  4.54982049424942 -2.54130648314831

