%nproc=4
%Mem=4GB
# td=(NStates=1) B3LYP/SVP 

TD

0 1
 8 -5.26702293229323  0.08425386498650 -3.15591538123812
 8  3.03601360686069  2.88547580228023  3.08527460586059
 8  3.39475782438244  0.67045244424442  2.84117600270027
 8  1.50695833533353 -7.02969924002400  1.55939444574457
 8  0.78851373937394 -7.05282170577058 -0.61883986688669
 8  1.59380642874287  3.99677280008001 -0.10265075767577
 7 -2.40152976407641 -0.94737316751675  0.63436045264526
 7 -4.31132601400140  0.56443410991099 -1.17325568036804
 7  1.88695908750875 -0.67705927892789 -0.45992447004700
 7  2.46767230913091  1.88742448794880 -0.67175392209221
 6 -4.72565895709571  1.12999449644965  0.11948774857486
 6 -4.50984837763776  0.33269343464346  1.39482684038404
 6 -2.93448854445445 -0.04299404270427  1.44195620862086
 6 -1.89478857555756  0.61359631683168  2.09943311291129
 6 -0.72422903320332  0.00614517901790  1.74575525312531
 6 -0.96923111091109 -0.87940099899990  0.74614643404340
 6 -6.21871422752275  1.27811560086009 -0.14099931533153
 6  0.64944355095510  0.18060873737374  2.45873489358936
 6 -6.64789530403040  0.82600184858486 -1.35297102580258
 6 -0.23922017811781 -1.95556429332933  0.06702878437844
 6  1.09738663486349 -1.85511505810581 -0.36482806500650
 6 -5.32304290459046  0.48597681238124 -2.07082439393939
 6  1.92038612381238 -2.83065360376038 -0.86772378167817
 6 -2.08098379927993  1.65039079597960  3.14038842904290
 6 -7.10869836303630  1.88042617181718  0.96660064596460
 6  3.16074240794079 -2.30889084028403 -1.35772701780178
 6  1.23584961226123  1.65779427282728  2.67962159805981
 6  3.11948002330233 -0.87362598819882 -0.95791978017802
 6  1.59109287948795 -4.38216418081808 -1.02545426232623
 6 -7.90623652965297  0.76829846744674 -1.99570795859586
 6  1.49673723932393 -5.00724165876588  0.42345834133413
 6  4.33862947194720 -3.06851532033203 -1.81784101540154
 6  3.95793666426643  0.08237764126413 -1.41841652405241
 6  2.66401702290229  1.66028361656166  2.81530743064306
 6  3.68854323212321  1.50519593109311 -1.16915348264827
 6 -9.14463944734474  0.92180434073407 -1.50449526482648
 6  1.27337240194019 -6.47936458665867  0.37399605860586
 6  4.53577241184118  2.59950670557056 -1.37276435953595
 6  3.83883315171517  3.85918644234423 -1.02590388468847
 6  2.56751832263226  3.32092994409441 -0.51056981968197
 6  5.88352195749575  2.36149098969897 -1.80465242034203
 6  4.15316093589359  5.22003687948795 -1.10588260166017
 6  6.68741879947995  3.44534021882188 -2.36977145404540
 1 -4.25341982808281  2.19226030613061  0.14822786308631
 1 -5.13200785768577 -0.52065354145415  1.35158990319032
 1 -4.59415625552555  1.05220922062206  2.36846375607561
 1 -2.95509454935494 -1.33922131763176 -0.26268319011901
 1 -3.27858885618562  0.47054897199720 -1.31148869976998
 1  0.48170260496050 -0.15474516251625  3.47132668076808
 1  1.43061707110711 -0.39325399279928  1.94829996279628
 1 -0.77958661956196 -2.75193265826583 -0.17969296699670
 1 -2.94887503280328  1.66607787188719  3.65177516721672
 1 -1.32329354445445  1.54782414631463  3.88658704660466
 1 -2.11470785188519  2.58360218001800  2.84449187098710
 1 -6.48713216411641  2.77117592109211  1.51679391239124
 1 -7.30157992499250  0.98133794299430  1.57985499619962
 1 -8.21599753695369  2.05127121022102  0.33137161736174
 1  0.91438414681468  2.36695873247325  1.74370243754375
 1  0.51009412191219  1.98579540154015  3.54628045224523
 1  1.50092441884188  0.35578622362236 -0.17647301260126
 1  2.25097288948895 -4.75899973037304 -1.63968857855786
 1  0.60318211571157 -4.57446729422942 -1.60912939633963
 1 -7.71203226502650  0.39269950055005 -3.01961789999000
 1  0.53355554445445 -4.64135531523152  1.03459103570357
 1  2.55359162926293 -4.79451665616562  0.96824463936394
 1  4.22065712801280 -4.10628808100810 -2.20712417351735
 1  5.19343044144415 -3.38737758795880 -0.92289590719072
 1  4.75225665876588 -2.44074630723072 -2.70513958755876
 1  4.90253987348735 -0.20318241274127 -1.70296647234724
 1 -9.48981258175818  0.92131958745875 -0.44889757955796
 1 -9.90653878747875  0.70956237193719 -2.38611471147115
 1  3.87473215971597  2.74403778747875  3.39031379707971
 1  6.32060552875287  1.33102525172517 -1.83722253725373
 1  5.33035373517352  5.44248701290129 -0.79106772667267
 1  3.97888991149115  5.60974774047405 -2.07993053795380
 1  3.28047571717172  5.80589019541954 -0.65512725432543
 1  1.38376568466847 -7.95911706880688  1.38089414431443
 1  7.65387783218322  3.05683122302230 -2.78767604090409
 1  6.19135102260226  4.52515802800280 -2.60880323282328

