%nproc=4
%Mem=4GB
# td=(NStates=1) B3LYP/SVP 

TD

0 1
 8 -5.28539476947695  0.15731117071707 -3.35743553325333
 8  2.98797880338034  2.82878013271327  3.15143122152215
 8  3.20339868846885  0.58844424342434  3.22438432353235
 8  1.66302394189419 -7.19868613871387  1.53956246254625
 8  0.97200208820882 -7.11911833543354 -0.55369335223522
 8  1.78358540664066  4.09210233303330  0.19702921032103
 7 -2.29158876997700 -0.91514994519452  0.55430244684468
 7 -4.34427930933093  0.67652531903190 -1.23342169696970
 7  1.84026441804180 -0.67143871687169 -0.30876935453545
 7  2.48434397629763  1.88323406890689 -0.48688543524352
 6 -4.76262265346535  1.15430692769277  0.02288808860886
 6 -4.40590798359836  0.20211037633763  1.22709006670667
 6 -2.90519561516152 -0.01552129542954  1.40178219121912
 6 -1.97297639433943  0.61861681888189  2.14999816941694
 6 -0.73852046234623  0.01878644314431  1.82861353895390
 6 -0.97438162596260 -0.83664672357236  0.74305612501250
 6 -6.25565792189219  1.38813660296030 -0.19667488288829
 6  0.61100970757076  0.17166784328433  2.49813883398340
 6 -6.64831534603460  0.97539678807881 -1.36756248494850
 6 -0.21308756485649 -1.96922565946595  0.13916599809981
 6  1.09088598479848 -1.78291783838384 -0.34687626982698
 6 -5.37856845714571  0.54657287198720 -2.18916622812281
 6  1.87454153935394 -2.91915245364536 -0.83396040534053
 6 -2.17964366526653  1.60657641454145  3.24711910211021
 6 -7.08477597079708  1.94986311551155  0.98554254015402
 6  3.05622195589559 -2.26359631083108 -1.27383862896290
 6  1.16913294059406  1.57856635003500  2.40803443934393
 6  2.98415649094909 -0.90273889948995 -0.99471345954595
 6  1.54307807800780 -4.44101006540654 -0.88101981888189
 6 -7.91843774977498  0.89322095969597 -1.99419780758076
 6  1.84907247284728 -5.06664759935994  0.46380237573757
 6  4.31635724472447 -2.90016848564856 -1.86391562286229
 6  3.88236910751075  0.14394379787979 -1.34687937033703
 6  2.55978659985999  1.58040562876288  2.97366326622662
 6  3.62641701950195  1.38561397289729 -1.18455502280228
 6 -9.14630961436144  0.90354251455146 -1.52844766006601
 6  1.48887395209521 -6.49238588878888  0.39168782778278
 6  4.52980181478148  2.66717347224722 -1.50849793289329
 6  3.77859712811281  3.73106363006301 -1.04510580488049
 6  2.57201877267727  3.39448729982998 -0.38465722842284
 6  5.79080268556856  2.40562540314031 -2.28332028712871
 6  4.24313993379338  5.20607548334833 -1.06033804720472
 6  6.50607066466647  3.30084576937694 -2.88203268016802
 1 -4.43166765286529  2.34349542964296  0.31650469076908
 1 -4.88289294619462 -0.81696317241724  1.04680942514251
 1 -4.71352819271927  0.60535453515352  2.04783169286929
 1 -2.75296433633363 -1.44362175767577 -0.07300422222222
 1 -3.29044004130413  0.58216013311331 -1.42618016891689
 1  0.46953138783878  0.09055936793679  3.42935248334833
 1  1.28448245764576 -0.54433910131013  1.93690882368237
 1 -0.65456411731173 -2.89589705470547 -0.15825082278228
 1 -3.16895704100410  1.95816708080808  3.49917990769077
 1 -1.50821203630363  1.25502486638664  4.11514990289029
 1 -1.53481986308631  2.49326314611461  3.07792521432143
 1 -6.52074552545254  2.66279508300830  1.64339657265727
 1 -7.40757052405240  1.18617842704270  1.80344735543554
 1 -7.97812374957496  2.36608269136914  0.53931241144114
 1  1.28888159655966  2.06619865646565  1.56451451875187
 1  0.50138325082508  2.19402622462246  3.16951277547755
 1  1.46109043544354  0.41635228022802 -0.21182654795479
 1  2.18331612381238 -4.98304213461346 -1.51428603830383
 1  0.52576437393739 -4.68970881838184 -1.21535001840184
 1 -7.90151121292129  0.74286451705171 -3.17079301750175
 1  1.26029821872187 -4.83306448614861  1.37176475307531
 1  2.85550182028203 -4.99323652815282  0.68709652455245
 1  4.30485554785479 -3.98615606780678 -1.86223968506851
 1  5.22635373377338 -2.50057890809081 -1.60157377497750
 1  4.25708714181418 -2.59625185778578 -2.96015508910891
 1  5.04723434293429 -0.19788188268827 -1.71111728742874
 1 -9.30688428892889  0.98855631113111 -0.33015570537054
 1 -10.16600473407341  0.93110452615262 -2.16475257525753
 1  3.95201988848885  2.79965334903490  3.35035980168017
 1  5.83740720892089  1.15324747394739 -2.57725654065407
 1  5.28945964576458  5.28552131633163 -0.72739135903590
 1  4.32630465296530  5.67878464416442 -2.13698624352435
 1  3.39254692429243  5.78280788718872 -0.44913665526553
 1  1.41385869396940 -8.04284544164416  1.37445350025003
 1  7.61629407380738  3.18187372727273 -3.36835410871087
 1  6.22315420292029  4.34120963316332 -2.62988534103410

