%nproc=4
%Mem=4GB
# td=(NStates=1) B3LYP/SVP 

TD

0 1
 8 -5.42630886088609  0.00106554615462 -3.27146693639364
 8  3.00214021952195  2.95029228392839  3.24764084248425
 8  3.33019136773677  0.72200759975998  2.98994087918792
 8  1.52473011251125 -7.14884115421542  1.50400890719072
 8  0.48710359835984 -6.99950637423742 -0.53889187208721
 8  1.84510155825583  3.98862198499850  0.19899940734073
 7 -2.32149176027603 -0.95735416561656  0.57171418801880
 7 -4.35033991539154  0.59963763026303 -1.30454880968097
 7  1.83370376197620 -0.63071464446445 -0.50595907350735
 7  2.67015255715572  1.81593733923392 -0.38210495719572
 6 -4.82731912311231  1.15501699869987  0.01781758155816
 6 -4.33823121592159  0.30719088438844  1.36189354705471
 6 -2.86606170177018  0.06225648234823  1.28305031803180
 6 -1.96928602530253  0.70256521372137  2.12085525512551
 6 -0.66543315361536  0.06639120362036  1.81651232883288
 6 -1.00675486328633 -0.94778783768377  0.90520233963396
 6 -6.38019037513751  1.19835762506251 -0.14927014241424
 6  0.65632423902390  0.31303197969797  2.43583260336034
 6 -6.75106562106211  0.72817206560656 -1.37982371107111
 6 -0.15112136823682 -1.91349008590859  0.27611969346935
 6  1.06705360156016 -1.89313886048605 -0.34260584278428
 6 -5.48650925122512  0.39689790449045 -2.19287659915992
 6  1.93020710591059 -2.86476701510151 -0.89413642294229
 6 -2.18636433733373  1.88162391929193  3.08618300850085
 6 -7.23385087828783  1.86140426962696  0.85846983288329
 6  3.05558189188919 -2.35825577677768 -1.45084632973297
 6  1.16107213451345  1.68121661506151  2.56695033093309
 6  3.06920499579958 -0.94043266886689 -1.21438542674267
 6  1.47218098829883 -4.24534049844984 -0.86756847374738
 6 -8.09173507950795  0.66078771637164 -1.94909329712971
 6  1.80230779637964 -5.06921785638564  0.30371636713671
 6  4.32891850085008 -2.95609407820782 -2.13551278257826
 6  3.96236710731073  0.11126052955296 -1.34273895629563
 6  2.63540416161616  1.73848143634363  2.95104100400040
 6  3.78582296009601  1.50998641014101 -1.05722228952895
 6 -9.39581456485649  0.63720588088809 -1.36628144344434
 6  1.24008907360736 -6.51019766996700  0.35122378137814
 6  4.64654348894890  2.59398615351535 -1.45124220732073
 6  3.99610887928793  3.80322084578458 -0.96691798609861
 6  2.76171774257426  3.30946879797980 -0.38298706140614
 6  5.89452305760576  2.48569340994099 -2.14440639573957
 6  4.44029964976498  5.20329520532053 -1.09669168256826
 6  6.82009206680668  3.43560924572457 -2.46285076197620
 1 -4.52576706280628  2.06062714281428  0.05332837313731
 1 -4.77012166906691 -0.63659513561356  1.47055179937994
 1 -4.79165600550055  0.86269026872687  2.36993390309031
 1 -2.84323336323632 -1.62214961046105 -0.08293521532153
 1 -3.38565956325632  0.76703862096210 -1.63891144204420
 1  0.49056349104911 -0.15032472047205  3.40790033813381
 1  1.40524453385339 -0.27701236863686  1.98213334613461
 1 -0.55291395229523 -3.03621108610861  0.21358636093609
 1 -3.26177632293229  2.16518778287829  3.14535452515252
 1 -2.00807202230223  1.63532289618962  4.04143253115312
 1 -1.38572495359536  2.73081690149015  2.85264268606861
 1 -6.64484793569357  2.53755255875588  1.39893212621262
 1 -7.65818558555855  0.91268107730773  1.61565857655766
 1 -8.16643258045805  2.28146422952295  0.36114459465947
 1  1.06491920032003  2.15760779737974  1.64607267456746
 1  0.52164527702770  2.29103592559256  3.13282910711071
 1  1.57379170557056  0.37020766576658 -0.31219658495850
 1  2.04855264746475 -4.93039687008701 -1.62832744244424
 1  0.33729552705271 -4.06417626512651 -1.26705518891889
 1 -7.90635169696970  0.11454168476848 -2.89265520372037
 1  1.33934612351235 -4.69680085978598  1.20219779637964
 1  2.88194446454645 -5.08861606610661  0.38164597949795
 1  4.14527959025903 -4.05125257745775 -2.48216167726773
 1  5.03351444984498 -3.05258410861086 -1.23313693129313
 1  4.83749518261826 -2.29251148374837 -2.93242231583158
 1  4.94514413391339 -0.23907600210021 -1.65817199289929
 1 -9.37003060356036  0.84201165666567 -0.31984467426743
 1 -10.30932906650665  0.55539695539554 -1.87914401440144
 1  3.99878456495650  3.00497388108811  3.52229699539954
 1  6.13246671487149  1.57661981118112 -2.41179999499950
 1  5.32018271807181  5.39888265246525 -0.47311593149315
 1  4.62720474297430  5.50054682038204 -2.04128667356736
 1  3.72202987258726  5.82996260266027 -0.64725646724672
 1  1.19665697379738 -8.06511766886689  1.27034308920892
 1  8.01897434183418  3.14005954585459 -2.74764203750375
 1  6.84441632913291  4.61868738093809 -2.24666701920192

