%nproc=4
%Mem=4GB
# td=(NStates=1) B3LYP/SVP 

TD

0 1
 8 -5.38528475847585 -0.27634219461946 -3.27466725642564
 8  3.10912091759176  2.81470872557256  3.11462754115412
 8  3.27345569416942  0.59656505550555  3.40948283338334
 8  1.69694733423342 -7.06572284238424  1.45595410171017
 8  0.74811969997000 -7.19192561616162 -0.55058304120412
 8  1.76851389948995  4.05102822562256  0.25523503090309
 7 -2.29979959105911 -0.84580301050105  0.61068808540854
 7 -4.28715359675968  0.54698236473647 -1.29444779957996
 7  1.79737012861286 -0.69338091109111 -0.28606708430843
 7  2.59315485738574  1.92715846134613 -0.46752349904990
 6 -4.63491988318832  1.13292478947895 -0.01680588078808
 6 -4.26404379717972  0.34009417471747  1.21883924162416
 6 -2.92431752735274  0.17783804050405  1.42946495949595
 6 -1.87907700440044  0.62203716091609  2.28709187878788
 6 -0.70017662796280  0.12765733023302  1.89735041264126
 6 -0.96449063686369 -0.89471253015302  0.93736555595560
 6 -6.17099945604560  1.29930772007201 -0.21788700410041
 6  0.59305791239124  0.24006468296830  2.59197821792179
 6 -6.52943345784578  0.84975422382238 -1.49360508920892
 6 -0.19015527162716 -1.93084182108211  0.20573265476548
 6  1.06249314551455 -1.85562510911091 -0.28832041424142
 6 -5.39066966726673  0.21608982368237 -2.17436474797480
 6  1.90152423762376 -2.83447398579858 -0.91087809710971
 6 -2.20708640954095  1.87573333023302  3.12234662486249
 6 -6.97525501870187  2.05354348354836  0.76785077097710
 6  3.04715104880488 -2.33508345954595 -1.42889413451345
 6  1.14954098139814  1.60305879927993  2.64828846474647
 6  2.98867694299430 -0.89342796839684 -1.03652764096410
 6  1.41205497569757 -4.31051701610161 -1.02712442934293
 6 -7.94144005000500  0.71524316191619 -2.06117450525053
 6  1.63287085268527 -5.02989392399240  0.29516551205121
 6  4.16035164416442 -2.97729619841984 -2.13595282658266
 6  3.78939981058106  0.12465186868687 -1.49603428582858
 6  2.59229985118512  1.61003859205921  3.03502940284028
 6  3.63509788758876  1.55183059455946 -1.16859342664266
 6 -9.09723470687069  0.82726488678868 -1.43346816211621
 6  1.23051811651165 -6.49761641184118  0.34067272627263
 6  4.50361919651965  2.67204395929593 -1.57367445054505
 6  3.87240650905091  3.75388591229123 -0.98365966026603
 6  2.65076664746475  3.37727557865787 -0.27601636433643
 6  5.76591019631963  2.44237907850785 -2.39458141324132
 6  4.28731435123512  5.22942781858186 -0.90395240864086
 6  6.58820887848785  3.40489617441744 -2.75014949184919
 1 -4.07189167526753  2.20321140124012  0.01591463176318
 1 -4.84213887078708 -0.71421289738974  1.30197494169417
 1 -4.85332217211721  0.85458945864587  1.99241615131513
 1 -2.81887092699270 -1.57632502800280 -0.04273119491949
 1 -3.40430142744274  0.57748966606661 -1.67826537743774
 1  0.48784321902190 -0.14383407140714  3.68689823792379
 1  1.24467847724772 -0.42307697509751  2.12607774057406
 1 -0.57232589348935 -2.95125259025903  0.38753375567557
 1 -3.24786493179318  2.10593185728573  3.43027301700170
 1 -1.70963217831783  1.47739710361036  4.02975136303630
 1 -1.68770515161516  2.88686250605060  2.80180760256026
 1 -6.32269572047205  2.81685048854885  1.28972120512051
 1 -7.37321708870887  1.37196700590059  1.60165717641764
 1 -7.82986892409241  2.56739282238224  0.29679816001600
 1  1.09067177557756  2.39650168676868  1.81844991229123
 1  0.65575868836884  2.19891671367137  3.37521334553455
 1  1.31154548094810  0.30139078407841 -0.11505687098710
 1  2.13812160436044 -4.74331816221622 -1.68102271197120
 1  0.33381517901790 -4.32408225572557 -1.27552603600360
 1 -7.78507956975698  0.30595082568257 -3.13606954515452
 1  0.83791598049805 -4.49598077777778  1.02019959655966
 1  2.63031930203020 -4.78140534503450  0.68426624152415
 1  3.93515857815782 -4.11336878907891 -2.09182264336434
 1  4.96291739013901 -3.06566541674168 -1.50793441104110
 1  4.57161859495949 -2.62388462106211 -3.07275634923492
 1  4.78661828132813 -0.04553664816482 -2.11629780548055
 1 -9.17241084158416  0.97529498499850 -0.42928561836184
 1 -10.06984511811181  0.54506592229223 -2.04223032303230
 1  3.95894058055806  2.93705708940894  3.93642840854085
 1  5.83998746694669  1.39107125632563 -2.89703851885189
 1  5.15439613941394  5.14365712991299 -0.03498211811181
 1  4.49221124362436  5.67523428912891 -1.84981752665267
 1  3.38467613721372  5.85170477687769 -0.75025676727673
 1  1.14405171327133 -7.87850900800080  1.32294834973497
 1  7.39251169556956  3.03149868976898 -3.41848912221222
 1  6.83242513001300  4.57283279547955 -2.37081943444344

