%nproc=4
%Mem=4GB
# td=(NStates=1) B3LYP/SVP 

TD

0 1
 8 -5.23192942294229  0.07918335793579 -3.21725151485149
 8  2.87096710221022  3.00980823552355  3.24251032943294
 8  3.40124847344735  0.87823322232223  2.72794467956796
 8  1.39897753725373 -7.19660593069307  1.49662816911691
 8  0.84164905290529 -7.14684110771077 -0.78294627752775
 8  1.75774282238224  4.10174329712971  0.05486499389939
 7 -2.37019663076308 -0.96648507870787  0.69704672127213
 7 -4.36137101850185  0.65670333683368 -1.17638599339934
 7  1.84209460106011 -0.64807638063806 -0.33664214181418
 7  2.45176071797180  1.94551029652965 -0.68033478017802
 6 -4.79935632683268  1.19148064506451  0.08493429322932
 6 -4.34254164696470  0.27472763806381  1.28835619331933
 6 -2.95067016261626  0.01661191789179  1.44324633763376
 6 -1.94561365806581  0.67135209240924  2.20771394099410
 6 -0.69483609390939  0.05779034353435  1.80907158475848
 6 -0.97221140894089 -0.91725478437844  0.83831565096510
 6 -6.24284664076408  1.31122891219122 -0.11488670407041
 6  0.60268887548755  0.24369504600460  2.50207922802280
 6 -6.62388290279028  0.73397264566457 -1.27727345604560
 6 -0.19982623872387 -1.96132486938694  0.16162824432443
 6  1.13868076427643 -1.83962350895089 -0.31448303050305
 6 -5.44923552385239  0.40285850055005 -2.07198450995100
 6  1.95130921612161 -2.89955049344935 -0.94909191849185
 6 -2.14165986688669  1.72614837173717  3.20627501770177
 6 -7.12713020622062  1.86285441464146  0.90376436233623
 6  3.12705903960396 -2.34842479367937 -1.30315156025603
 6  1.11478750605060  1.72237073047305  2.33551718761876
 6  3.01075915121512 -0.95757438303830 -1.03868785698570
 6  1.53183695389539 -4.33213917831783 -0.89708142504250
 6 -7.92698860486049  0.70279191679168 -1.90053844164416
 6  1.59923748934893 -5.09453038763876  0.39391538703870
 6  4.33134874387439 -3.05336380518052 -1.87501673297330
 6  3.84363523412341  0.01821122462246 -1.42227691009101
 6  2.55549617081708  1.75619320752075  2.79529542944294
 6  3.59117349514952  1.50665607710771 -1.24872143944394
 6 -9.14432941634163  0.68544070437044 -1.42459727502750
 6  1.18911397609761 -6.56924357455746  0.26838549754976
 6  4.59632846744675  2.57846460136014 -1.47802488558856
 6  3.92480174857486  3.81221174487449 -1.04261555585559
 6  2.60990256105611  3.32341019211921 -0.54728349104910
 6  5.95077868316832  2.43068790939094 -2.06380833593359
 6  4.36612223202320  5.21497637343734 -1.11208322172217
 6  6.92859291689169  3.42932861766177 -2.08152262916292
 1 -4.34980946704670  2.15672675277528  0.24746778707871
 1 -5.03213787068707 -0.66015749184919  1.36304104830483
 1 -4.70435727562756  0.70264426412641  2.20418732843284
 1 -2.88436747664767 -1.29577697319732 -0.19988691049105
 1 -3.31703270057006  0.93071498859886 -1.57241479237924
 1  0.58085251995200 -0.19519920792079  3.62155170327033
 1  1.25161917131713 -0.37704237163716  1.89894502730273
 1 -0.86074473537354 -2.72025949094909 -0.15004000170017
 1 -3.19708985428543  1.65405666976698  3.55998598829883
 1 -1.56338755385539  1.29968933283328  4.12000038793879
 1 -1.80474685578558  2.71348516831683  2.97863528532853
 1 -6.46451990289029  2.57042584608461  1.41018325132513
 1 -7.39483925092509  1.02315212441244  1.53961097179718
 1 -8.04908084528453  2.20292637573757  0.45009348954895
 1  1.12185489388939  2.13202523912391  1.45676374367437
 1  0.38250136263626  2.31095791779178  2.93786961116112
 1  1.54069839623962  0.48367901290129 -0.38403376867687
 1  1.96680447264726 -5.00964479487949 -1.65906051575158
 1  0.43777557505751 -4.34511435893589 -1.20140862426243
 1 -7.76023708550855  0.82071230183018 -3.02585852405240
 1  1.08385057395740 -4.52569374907491  1.10797837443744
 1  2.61333760386039 -5.06920412491249  0.82965077997800
 1  4.05202026432643 -4.09585703790379 -1.83031649274927
 1  5.25895699409941 -2.94517336753675 -1.26706032363236
 1  4.50667210031003 -2.80703293589359 -2.83667274087409
 1  4.85245486498650 -0.30515260976098 -1.75574174987499
 1 -9.21955555605560  0.74091154665466 -0.43456614641464
 1 -9.87726586018602  0.97292870857086 -2.10504660466047
 1  3.79355404190419  2.93617700140014  3.28718348404840
 1  6.08335180338034  1.34562671187119 -2.20556937193719
 1  5.19664036383638  5.39258202240224 -0.43658227812781
 1  4.30927294979498  5.48314508020802 -2.33578612351235
 1  3.47547521712171  5.89173878027803 -0.88451019261926
 1  1.30681798989899 -8.26002715981598  1.36476253115312
 1  7.92414485888589  3.24002954285429 -2.46531380468047
 1  6.81632351985198  4.42643815601560 -1.70572292479248

