%nproc=4
%Mem=4GB
# td=(NStates=1) B3LYP/SVP 

TD

0 1
 8 -5.30430666066607  0.20590603020302 -3.32907269696970
 8  3.21616162166217  2.76048330303030  2.93670974937494
 8  3.31559990859086  0.51785718471847  2.94458634373437
 8  1.53920155965597 -7.14851112121212  1.65597410371037
 8  0.69660454845485 -7.01254767836784 -0.42067004990499
 8  1.61485853395340  4.01763488628863  0.15397490489049
 7 -2.31234084518452 -0.94677310751075  0.60810782738274
 7 -4.32291717311731  0.56671433793379 -1.24173252805281
 7  1.82884327592759 -0.71406297929793 -0.36984546214621
 7  2.52818836073607  1.89049479497950 -0.51424817151715
 6 -4.72908930013001  1.20926242324232  0.05302110191019
 6 -4.37780517331733  0.34912507780778  1.19377673537354
 6 -2.96456155175518 -0.05667541084108  1.29696170917092
 6 -1.90385948264826  0.58078303550355  2.13471664126413
 6 -0.61478808910891 -0.06745218071807  1.88616929452945
 6 -0.93775796359636 -1.06472953185319  0.82631445084508
 6 -6.24186654275428  1.37685547484748 -0.14180939633963
 6  0.59231783838384  0.20447112361236  2.66374539463946
 6 -6.59235975047505  0.89215846424642 -1.39159488818882
 6 -0.16549280538054 -2.04932366926693  0.23838592009201
 6  1.08997589378938 -1.86825637223722 -0.23992557475748
 6 -5.31531213151315  0.59781799649965 -2.19169648114811
 6  1.97653173837384 -2.93230376877688 -0.94411142044204
 6 -2.12707840874087  1.57200295719572  3.26932132233223
 6 -7.15754324752475  2.04563269246925  0.81087507340734
 6  3.13869020272027 -2.37208715991599 -1.40031127622762
 6  1.23260928822882  1.57322581598160  2.45348898479848
 6  2.99254733003300 -0.90662928852885 -1.19466345454545
 6  1.66416018621862 -4.37159312371237 -0.88951066796680
 6 -7.82495840184018  0.78494013161316 -2.12922130993099
 6  1.63520108570857 -5.03962489708971  0.56626262176218
 6  4.28302391139114 -3.05455392419242 -2.05445467676768
 6  3.82108297889789  0.22208161166117 -1.39451413381338
 6  2.75559618081808  1.56507409560956  2.76981288118812
 6  3.55087946574657  1.56842225372537 -1.14422098939894
 6 -9.01494647804781  0.71209336963696 -1.41442625792579
 6  1.25520058475848 -6.48718536873687  0.52909156815682
 6  4.43068190279028  2.71120787568757 -1.50716779987999
 6  3.83806307470747  3.82099262296230 -0.94071536583658
 6  2.54768633943394  3.38265611671167 -0.30164892759276
 6  5.68497210251025  2.62081692229223 -2.23321527662766
 6  4.21022664246425  5.29806468226823 -0.94215622902290
 6  6.54078413601360  3.61868755355536 -2.51694617151715
 1 -4.20507499359936  2.20578165826583  0.01899493979398
 1 -4.99089374627463 -0.60839231533153  1.19025376957696
 1 -4.83256009590959  0.99562356205621  2.18038494819482
 1 -2.68430747064706 -1.43674106960696 -0.11644856665667
 1 -3.23192418971897  0.53665558265827 -1.49227677857786
 1  0.29259369406941 -0.30085977397740  3.54230377847785
 1  1.30741475087509 -0.54200886828683  2.22981811461146
 1 -0.53495215611561 -3.00964842984298  0.13909891219122
 1 -3.12295244054405  1.98919018311831  3.59451944164416
 1 -1.67401861696170  1.28071743564356  4.11513990189019
 1 -1.54822120322032  2.52204602440244  3.11562898469847
 1 -6.63004645554555  2.91277008050805  1.42482471547155
 1 -7.50007977497750  1.13965377457746  1.45658266896690
 1 -8.00310624782478  2.54834091719172  0.27973645384538
 1  0.99578228662866  2.05478751535154  1.63750181748175
 1  0.56329944244424  2.17493431543154  3.05401122532253
 1  1.56189051545155  0.33604424942494 -0.28784414971497
 1  2.18902669486949 -5.00473430383038 -1.66834144384438
 1  0.64231602910291 -4.62191203870387 -1.30301878527853
 1 -7.73835489728973  0.70509073967397 -3.13040897909791
 1  0.81233342224222 -4.63539471917192  1.19365694229423
 1  2.74936120622062 -4.83202040654065  1.25623343824382
 1  4.17877293959396 -4.18328578077808 -2.18624208530853
 1  5.10857195559556 -2.88825767596760 -1.58472208980898
 1  4.55162659575958 -2.73716594919492 -3.07658673227323
 1  4.53849346884688 -0.11974406890689 -2.13151932763276
 1 -9.37106070657066  0.61225868136814 -0.34267695749575
 1 -9.84394252785279  0.85291670737074 -2.18505460546055
 1  4.09354404090409  2.71469485318532  3.23799856555656
 1  5.64865833403340  1.75739788898890 -2.57737655265527
 1  5.24528522832283  5.24037680188019 -0.39177779767977
 1  4.42254427692769  5.54504126982698 -1.83281582648265
 1  3.46209387898790  5.94584419081908 -0.41926366796680
 1  0.94689199729973 -8.03248440554055  1.55721177607761
 1  7.46952939733973  3.45502104200420 -3.24846211951195
 1  6.34344623212321  4.60342585478548 -2.22192454495450

