%nproc=4
%Mem=3GB
# td=(NStates=1) B3LYP/SVP 

TD

0 1
 8 -3.18114502470247 -1.54347940344034 -2.90350100440044
 8  3.00190064486449  3.12139379787979  3.27018128902890
 8  3.89246355455546  1.31508863716372  4.19639408300830
 8  7.69883848674867 -1.82863897809781 -0.53691445324532
 8  6.72546670307031 -3.04983577847785 -2.21175762386239
 8 -2.64490539703970  1.68878436753675  1.50984104460446
 7 -0.26888263446345 -2.39768608290829  0.86786162696270
 7 -2.72577461546155 -1.08686382138214 -0.63620576517652
 7  1.18390994039404  0.24615552525253 -0.79578451565157
 7 -0.97146629212921  1.51528693659366 -0.10633153105311
 6 -3.44437958765877 -1.19186674907491  0.67965493939394
 6 -2.62825145124512 -2.18185233143314  1.63230853765377
 6 -1.25187082878288 -1.97841565556556  1.82018000660066
 6 -0.56777657995800 -1.23366455815582  2.78719674017402
 6  0.75674678727873 -1.24509951095110  2.48422961756176
 6  0.88761144734473 -1.96867330203020  1.24750955495550
 6 -4.74788973557356 -1.85699134783478  0.27055394269427
 6  1.84181877327733 -0.38411874147415  3.19075122962296
 6 -4.86867322872287 -2.20130883928393 -1.13657399789979
 6  2.00427838423842 -1.89058725092509  0.29986226492649
 6  1.98779480138014 -0.83685559775978 -0.67280118161816
 6 -3.51306597649765 -1.59822178747875 -1.69022630603060
 6  3.03482454565457 -0.56392714101410 -1.71450534943494
 6 -1.32685125732573 -0.34029788678868  3.93708921722172
 6 -5.76102132623262 -2.29010549084908  1.35708671427143
 6  2.60014967186719  0.60130749894989 -2.38894350435044
 6  1.85866529892989  1.02478817081708  2.76129277087709
 6  1.41318468496850  1.08125477407741 -1.84185029102910
 6  4.25110045914591 -1.52217164626463 -2.07828745884588
 6 -5.77581191729173 -2.68433052345235 -2.00113356155616
 6  5.46163171417142 -1.16336808200820 -1.17575099199920
 6  3.13615371077108  1.12316071867187 -3.70207671687169
 6  0.58015043914391  2.09158430533053 -2.08045979107911
 6  2.97171581188119  1.76557614311431  3.47178252345235
 6 -0.55257908950895  2.32953758595860 -1.12785807370737
 6 -6.85574950145014 -3.46588035213521 -1.66561512021202
 6  6.67566713631363 -2.09217747284728 -1.42750344034403
 6 -1.40749940474047  3.58497073027303 -1.22348042274227
 6 -2.32256634603460  3.46963744274427 -0.25566347254725
 6 -2.00144241664166  2.14754568806881  0.54393332533253
 6 -1.29678965736574  4.66823308350835 -2.23206497449745
 6 -3.57007764426443  4.25971645454545  0.16096033573357
 6 -1.92189608080808  5.89296471467147 -2.28972270507051
 1 -3.75186367956796 -0.28376386628663  1.19003320792079
 1 -2.73798542494249 -3.23377850285029  1.29367971707171
 1 -3.18982880268027 -2.15959940434043  2.53064245294529
 1 -0.44592989778978 -2.87017578267827  0.00014702470247
 1 -2.04101249094909 -0.32818912241224 -0.69309341174117
 1  1.48269623102310 -0.37057851165117  4.28477057615762
 1  2.77797513041304 -0.82338422972297  2.99664459385939
 1  2.79215802970297 -2.69011059395940  0.36832988618862
 1 -2.05534816411641 -0.91334060806081  4.43368042984298
 1 -0.72675244324432  0.19118491489149  4.78789514601460
 1 -1.80725003880388  0.37240968766877  3.28752751805180
 1 -5.59567035423542 -1.55424355555555  2.41682597559756
 1 -5.68579734043404 -3.17800190479048  1.67847069336934
 1 -6.75302267906791 -2.03367901130113  1.02114847654765
 1  1.99003514291429  1.35681562346235  1.69315692699270
 1  0.95024497599760  1.40223246754675  2.91762973667367
 1  0.41719997759776  0.46643101290129 -0.04670670297030
 1  4.47766348554856 -1.28549160816082 -3.10869647154715
 1  4.22992382218222 -2.59523130233023 -1.88373548154815
 1 -5.54373651205120 -2.45211613621362 -3.04385784958496
 1  5.09737765906591 -1.17529800970097 -0.14787156345635
 1  5.79955139643964 -0.01796879297930 -1.27255173767377
 1  4.04300421192119  0.59376586868687 -4.16598482798280
 1  3.65067081868187  2.15331641034103 -3.57744007940794
 1  2.39753554285429  1.40432493039304 -4.48840199219922
 1  0.77578148814881  2.84389588608861 -2.82709360136014
 1 -7.20266935303530 -3.66434861876188 -0.61992101330133
 1 -7.58108637353735 -3.69380071057106 -2.50820387388739
 1  3.76704043154315  3.49984934593459  3.55274852905290
 1 -0.72293617241724  4.33961524102410 -3.19998789418942
 1 -4.13200178977898  4.42132871467147 -0.82652380388039
 1 -4.24112286198620  4.09020381398140  1.09606041744174
 1 -3.30173849004901  5.26060635173517  0.55393116301630
 1  8.48827452095210 -2.52924607880788 -0.53680431543154
 1 -1.84547747234723  6.48808926602660 -3.16945179737974
 1 -2.57113946684668  6.35537691349135 -1.51103701120112

