%nproc=4
%Mem=4GB
# td=(NStates=1) B3LYP/SVP 

TD

0 1
 8 -5.54116034603460 -0.20050461086109 -3.27628741844184
 8  3.02202220772077  3.02433968866887  3.07446352475248
 8  3.22589093769377  0.77167256625663  3.16013789888989
 8  1.30497813731373 -7.16616288638864  1.39483799009901
 8  0.72947783578358 -6.90914733833383 -0.75280326322632
 8  1.72301935003500  3.99234235703570 -0.03740423302330
 7 -2.29483909500950 -0.97413584378438  0.58546556315632
 7 -4.38953383478348  0.45729339583958 -1.28137649244925
 7  1.86580697229723 -0.67859943294329 -0.38281675927593
 7  2.51215675757576  1.84927067256726 -0.63603034973497
 6 -4.78450484168417  1.09929142614261  0.02370817061706
 6 -4.36444383718372  0.19294946024602  1.20967832553255
 6 -2.89233432903290  0.00385064176418  1.35795780878088
 6 -1.91867096379638  0.68536349354935  2.18523169276928
 6 -0.67397400770077  0.07430199469947  1.80809148674867
 6 -0.88247243504350 -0.90333339223922  0.89627144654465
 6 -6.31585394149415  1.29039682898290 -0.07067228262826
 6  0.63890249684968  0.26157683418342  2.56585560566057
 6 -6.72674318881888  0.87022627102710 -1.33125885458546
 6 -0.07020327642764 -2.00846958385839  0.36605868736874
 6  1.06899379557956 -1.80381992859286 -0.19283086528653
 6 -5.53131373167317  0.31308952365237 -2.06322363386339
 6  1.99271335653565 -2.85009554795480 -0.90118712801280
 6 -2.07842354325433  1.75205096199620  3.23444783498350
 6 -7.06915440864086  2.01662979217922  1.04375836173617
 6  3.11390772447245 -2.37240719191919 -1.26488773387339
 6  1.26277230453045  1.66216470987099  2.49964360026003
 6  3.13459153445345 -0.90614924052405 -0.92677666586659
 6  1.58518228842884 -4.36653261766177 -1.02328404530453
 6 -7.97014292029203  0.79424106170617 -2.03662205000500
 6  1.81141870747075 -5.14622555715572  0.30818681418142
 6  4.35359096809681 -3.07688615741574 -1.90871010231023
 6  3.93310418101810  0.07309671317132 -1.27157183958396
 6  2.60386100730073  1.77419500770077  2.91409730963096
 6  3.64226860466047  1.50046545804580 -1.10447701500150
 6 -9.22577756115612  0.93259541984198 -1.58203301860186
 6  1.26656172087209 -6.42579923012301  0.27593625262526
 6  4.57350618521852  2.68663541844184 -1.45295237833783
 6  3.97911718011801  3.75636616031603 -1.03457475177518
 6  2.58496006680668  3.33223107420742 -0.52192095479548
 6  5.85352895819582  2.47529236983698 -2.02273422852285
 6  4.30919653945395  5.20351522732273 -1.02078409180918
 6  6.76235629322932  3.41146683148315 -2.48387286418642
 1 -4.46618110421042  2.07075815591559 -0.05342230193019
 1 -4.77435209210921 -0.70980245634563  1.15717046124613
 1 -4.88670551045105  0.66963096279628  2.20644755445545
 1 -2.61610064996500 -1.57031442694269 -0.26009293109311
 1 -3.42674367166717  0.67322924002400 -1.95129268016802
 1  0.80607504220422 -0.03068275627563  3.53877342544254
 1  1.41061507090709 -0.42964763216322  2.08104323712371
 1 -0.73846250715071 -2.83787125212521  0.07852285458546
 1 -3.19408955425543  1.76757802190219  3.37100709040904
 1 -1.84926614171417  1.47200656455646  4.19196758465847
 1 -1.72627900900090  2.70962478227823  2.94045146694670
 1 -6.35871932283228  2.68137694119412  1.60041227422742
 1 -7.50273004000400  1.33448325752575  1.75373238393839
 1 -7.98470440764076  2.50785686878688  0.54184266446645
 1  1.15672838123812  2.18764080068007  1.52640070737074
 1  0.83094620712071  2.20279710171017  3.42516834103410
 1  1.65903022942294  0.33816446144614 -0.01038640394039
 1  1.97755554775478 -4.78657248764877 -1.70174478417842
 1  0.54410620812081 -4.31953180068007 -1.11831031443144
 1 -7.91965302710271  0.53728395899590 -3.03946988518852
 1  1.57205939483948 -4.55819699939994  1.21009858645865
 1  2.96056232633263 -5.16240344484448  0.58783659855986
 1  4.10537559985999 -4.10701815401540 -1.86414987608761
 1  5.22963406180618 -2.39721857205721 -1.39856347394739
 1  4.57528896199620 -2.89903213581358 -2.96736581018102
 1  4.76499611911191 -0.19464155865587 -1.85654182988299
 1 -9.57020062056206  1.36221367686769 -0.46839952975297
 1 -10.18093622722272  0.86506792249225 -2.25381148114811
 1  3.99170385688569  2.73436682038204  3.33581834753475
 1  6.00207367556756  1.60794294349435 -2.31702051705171
 1  5.20079077887789  5.26216898109811 -0.31249986988699
 1  4.53511553405340  5.27550431613161 -2.18822136703670
 1  3.44764243384338  5.75989559595960 -0.64408615021502
 1  0.81964927302730 -7.98750990809081  1.13102915781578
 1  7.54338678307831  3.24666020592059 -3.05964323762376
 1  6.37603949144914  4.41229674187419 -2.38112046454645

