%nproc=4
%Mem=4GB
# td=(NStates=1) B3LYP/SVP 

TD

0 1
 8 -5.30491672167217 -0.00482504290429 -3.32092188188819
 8  3.05470547604760  2.86493374807481  3.34486056445645
 8  3.40019836843684  0.71308670767077  2.99548143324332
 8  1.72579021852185 -7.13985025512551  1.38807731403140
 8  0.57964285228523 -7.08832525612561 -0.56765474837484
 8  1.75273232133213  4.00558368116812  0.12041154855486
 7 -2.36748635973597 -1.00789922012201  0.73462047864786
 7 -4.38239312071207  0.63052071857186 -1.22843119791979
 7  1.86365675727573 -0.74755632863286 -0.26587506510651
 7  2.54975051695170  1.84167991349135 -0.48578532523252
 6 -4.74560095129513  1.21213271027103 -0.05045924612461
 6 -4.27995538833883  0.44105427072707  1.21834919261926
 6 -2.89336443204320  0.03983424012401  1.35544755775578
 6 -1.91614071077108  0.67551250845084  2.16211938153815
 6 -0.66656326662666 -0.03438887438744  1.93907458505851
 6 -0.93508769656966 -0.97437049594960  0.96818863826383
 6 -6.21600395649565  1.49339712901290 -0.21378659405941
 6  0.59046765336534  0.19875055155516  2.73958297839784
 6 -6.58535905040504  0.83163241164116 -1.44252998169817
 6 -0.15179143524352 -2.08669740664066  0.31816389788979
 6  1.16397329352935 -1.85327487408741 -0.26725830803080
 6 -5.29117971827183  0.38792700740074 -2.20720803230323
 6  1.93066715191519 -2.91983252165217 -0.97229423872387
 6 -2.11584728562856  1.77398315521552  3.12432682288229
 6 -7.13211070427043  2.01984011321132  0.83655764166417
 6  3.11634796849685 -2.30372032323232 -1.27013825892589
 6  1.02432846014601  1.60928942234223  2.66306994289429
 6  3.01314939023902 -0.89689831543154 -0.93180716891689
 6  1.56683045324532 -4.37683364776478 -0.94508622552255
 6 -7.87598350435044  0.79927156475648 -2.06783517131713
 6  1.82282984858486 -5.17119805440544  0.35218121362136
 6  4.25555116411641 -3.00701917071707 -1.92767199849985
 6  3.88303917451745  0.02010141364136 -1.40458514091409
 6  2.59350997219722  1.68817640584058  3.01850775067507
 6  3.63832821062106  1.44213962546255 -1.19632619991999
 6 -9.07035201860186  0.91555371567157 -1.46586140144014
 6  1.30087515221522 -6.60434708490849  0.28598725772577
 6  4.42737157175718  2.69444619951995 -1.53517060016002
 6  3.79216848524853  3.82658318201820 -1.07486878117812
 6  2.62501407220722  3.29939779087909 -0.50599936263626
 6  5.66299990529053  2.51255609620962 -2.29160111521152
 6  4.23268888868887  5.18991386718672 -1.08431044444444
 6  6.41591164876488  3.56013169796980 -2.61440591749175
 1 -4.02419690579058  2.14997607770777 -0.08125508520852
 1 -4.81515617251725 -0.49095057115712  1.39707445164516
 1 -4.85705254515452  0.92062606230623  2.22281919161916
 1 -2.86963600350035 -1.39520691619162 -0.13787070887089
 1 -3.46546754405441  0.89993191029103 -1.47443499439944
 1  0.49677411211121 -0.33784347234723  3.74043359145915
 1  1.25143915331533 -0.51684635203520  2.23746887968797
 1 -0.54153281418142 -3.13889135413541  0.27846284858486
 1 -3.09725987128713  2.07341860596060  3.13303329302930
 1 -1.88796001110111  1.41926129002900  4.18590697859786
 1 -1.74038041914191  2.77548136793679  2.85358278007801
 1 -6.72594604550455  2.65702450595059  1.53136536953695
 1 -7.64618438543854  1.32994280348035  1.50297730843084
 1 -7.89583552075208  2.63861994509451  0.33507198739874
 1  1.04232694109411  1.80482251885188  1.47783585088509
 1  0.48565167766777  2.33189001100110  3.27023284748475
 1  1.76243056945695  0.16029667466747 -0.03632899819982
 1  2.08330612281228 -4.93748757915792 -1.98236284598460
 1  0.54122592009201 -4.28917876537654 -1.26238472187219
 1 -7.81459252105210  0.55224545514551 -3.10376631483148
 1  1.33117530643064 -4.70537171687169  1.18324590119012
 1  2.84634090419042 -4.92232943744374  0.79022683758376
 1  4.05663072537254 -3.99839729192919 -2.38295175627563
 1  5.20159125752575 -3.04043289348935 -1.40001361896190
 1  4.64067550065007 -2.46684891749175 -3.01642071567157
 1  4.62610222972297 -0.19765185968597 -2.26958313401340
 1 -9.05616921742174  0.85279273477348 -0.43988667846785
 1 -9.88186632023202  0.91940335603560 -1.94533063306331
 1  3.87654234073407  3.02282566626663  3.15769053475348
 1  5.98917238543854  1.47055920512051 -2.53339215421542
 1  5.14731543134313  5.37587035123512 -0.26516513641364
 1  4.09531155365536  5.64766153185319 -2.07448999389939
 1  3.32558022762276  5.82678228462846 -0.61015275687569
 1  1.38240554865487 -8.11041219831983  1.50690674557456
 1  7.29538198259826  3.35480102000200 -3.18748602190219
 1  6.06251813931393  4.55410092229223 -2.63691604410441

