%nproc=4
%Mem=3GB
# td=(NStates=1) B3LYP/SVP 

TD

0 1
 8 -3.32249916011601 -1.51515657115712 -2.92231288558856
 8  3.14559501430143  3.10244190269027  3.11659593049305
 8  3.59335364356436  1.27703483178318  4.41357580118012
 8  7.75950455335534 -1.54233034723472 -0.88933969576958
 8  6.55993014941494 -3.14663545844584 -1.97959440754075
 8 -2.67642854935494  1.58488397749775  1.34606466696670
 7 -0.24735048124812 -2.40572688698870  0.95126996779678
 7 -2.68228026602660 -1.27723285828583 -0.68567071167117
 7  1.24007555695570  0.07885879557956 -0.67534247144714
 7 -0.90848999449945  1.43432884078408 -0.22809370727073
 6 -3.35110025972597 -1.34733229562956  0.62271924582458
 6 -2.66554518061806 -2.35621976817682  1.66002130893089
 6 -1.24186982868287 -1.96956477047705  1.79963795239524
 6 -0.64441424372437 -1.07147833953395  2.71313933443344
 6  0.72613372597260 -1.05417041804180  2.47047824242424
 6  0.89840252645265 -1.83742017671767  1.32135693969397
 6 -4.79908485508551 -1.88801445014501  0.15610249754976
 6  1.77875246664666 -0.35288561816182  3.19800195469547
 6 -4.78481484288429 -2.01409011741174 -1.12412275277528
 6  2.10018797519752 -1.88148634083408  0.33417569626963
 6  2.11367738963896 -0.97384929712971 -0.70239414091409
 6 -3.55116978687869 -1.50370233553355 -1.67399468286829
 6  2.99760082328233 -0.68566931523152 -1.75638953785379
 6 -1.35327389958996 -0.37494135113511  3.95380088838884
 6 -5.79887511161116 -2.13578005830583  1.30701170677068
 6  2.54419407630763  0.46919428762876 -2.40549515951595
 6  2.05603503590359  1.07851354335434  2.67213385498550
 6  1.45570893739374  0.95471211981198 -1.62528863486349
 6  4.30050539963996 -1.50642007110711 -2.09807943804380
 6 -5.95657999409941 -2.47942003240324 -2.06216966516652
 6  5.47279283028303 -1.06294804000400 -1.18852226912691
 6  3.15599569496950  1.14855325792579 -3.58141465066507
 6  0.69075149924993  2.18354350125013 -1.81385313041304
 6  3.00101874217422  1.80789037453745  3.51216656185619
 6 -0.51420525212521  2.30835546774678 -1.11170645854585
 6 -6.90764469096910 -3.36208997309731 -1.57915647434743
 6  6.65751532113211 -1.98045630073007 -1.53708439843984
 6 -1.36519517431743  3.50342257545755 -1.22123019771977
 6 -2.33885797519752  3.39027950695070 -0.22994090029003
 6 -2.02676494889489  1.98523945744574  0.42683161516152
 6 -1.17888786718672  4.65328158835884 -2.13883565156516
 6 -3.50885152165217  4.33221370427043  0.19377361706171
 6 -2.11593548474847  5.74267968616862 -2.27789152195220
 1 -3.31856034923492 -0.18691418131813  1.12932713731373
 1 -2.82709433583358 -3.40309543454345  1.52818316741674
 1 -3.21729154895490 -2.23238668306831  2.53928331703170
 1 -0.33120842564256 -3.19609837493749  0.15288229822982
 1 -2.23202159185919 -0.40452675617562 -0.97107120952095
 1  1.75026298769877 -0.27865931973197  4.33336543564356
 1  2.80660799369937 -0.85537742904290  3.01852678207821
 1  2.83633244714471 -2.40476205910591  0.40138319151915
 1 -2.26507913721372 -0.97393666766677  4.23692075387539
 1 -0.57824759275928 -0.10346455005501  4.65765212171217
 1 -1.69043835763576  0.55152759945995  3.50396916221622
 1 -5.90751153835384 -1.20907903910391  1.94249854285429
 1 -5.62731149184918 -2.96400050465046  1.91967481378138
 1 -6.69851722852285 -2.17733337673767  0.87014337603760
 1  2.10508664806481  1.24524446634663  1.63148075937594
 1  1.05202515401540  1.72541478577858  2.84232220592059
 1  0.52651090869087  0.51155552535254 -0.09333136543654
 1  4.85437115631563 -1.15168822782278 -3.09043464536454
 1  4.12476330613061 -2.55101688088809 -1.82915002300230
 1 -5.95366750515051 -2.01156208080808 -2.99677314111411
 1  5.21998992029203 -1.25642612251225 -0.19931670797080
 1  5.77458890019002  0.05876888078808 -1.37462194469447
 1  4.09230914241424  0.96195268736874 -3.97700593009301
 1  3.36053180478048  2.19017009570957 -3.41130346574657
 1  2.38532432173217  1.17405190309031 -4.32466561856186
 1  0.87516142614261  2.57954945144514 -2.86098699069907
 1 -6.67341642774277 -3.96621880578058 -0.65003402460246
 1 -8.01148941384138 -3.65934726522652 -2.11505455895590
 1  4.07979170667067  3.48249761076108  3.49344259845985
 1 -0.39290316911691  4.59005028452845 -2.88622651805181
 1 -4.22663125272527  4.39674625642564 -0.61845299679968
 1 -4.19882863256326  3.68585337893789  0.80785159655966
 1 -3.19932824902490  5.26970726182618  0.59110488038804
 1  8.44105979947995 -2.25694884908491 -0.74097473247325
 1 -1.92262518711871  6.59411986908691 -2.96774162636264
 1 -2.95967832073207  5.86338771457146 -1.50176608410841

