%nproc=4
%Mem=4GB
# td=(NStates=1) B3LYP/SVP 

TD

0 1
 8 -5.16969319931993  0.04660009960996 -3.33692348204820
 8  3.05493549904990  2.78206546124612  3.27213329172917
 8  3.48352670127013  0.62876827582758  3.09521140624062
 8  1.37622526202620 -7.09802607270727  1.62198070437044
 8  0.59404429242924 -7.05000142374237 -0.52486046894689
 8  1.72499954805481  4.01593471627163  0.17299680708071
 7 -2.37077668876888 -0.98624705490549  0.66248326492649
 7 -4.24368925032503  0.59108677517752 -1.20511886668667
 7  1.85850624222422 -0.62975454845485 -0.37553603120312
 7  2.51450699259926  1.99774552005201 -0.50482722942294
 6 -4.73824021522152  1.20895239223922  0.07834363416342
 6 -4.48352574537454  0.36049621492149  1.30986834453445
 6 -2.97690278587859 -0.05646538983898  1.45390740374037
 6 -1.90755985268527  0.57610256745675  2.21616478607861
 6 -0.69650626092609  0.03555812031203  1.81361203880388
 6 -0.98033222102210 -1.01502456135614  0.92127394679468
 6 -6.28848120422042  1.22100989028903 -0.14406962236224
 6  0.61589019561956  0.15019569606961  2.53177219731973
 6 -6.53073358785879  0.87563681208121 -1.43533926262626
 6 -0.14411066716672 -1.97379611651165  0.22300438193819
 6  1.07779467566757 -1.78528807540754 -0.33518510071007
 6 -5.31866246654666  0.47416563126313 -2.18542585408541
 6  1.96964104930493 -2.89733027142714 -0.83768077737774
 6 -2.11237693859386  1.57379313621362  3.22771716191619
 6 -7.12205969916992  1.88048617781778  0.98474246014601
 6  3.16753308700870 -2.31410136133613 -1.33747499259926
 6  1.25614164146415  1.55213370677068  2.38111174707471
 6  3.09683775907591 -0.92412103770377 -1.08563255145515
 6  1.53221699189919 -4.36621258565857 -0.91483320022002
 6 -7.81206711271127  0.78343998159816 -2.16142453025303
 6  1.71172873847385 -5.07478841344134  0.37170316581658
 6  4.24435004400440 -2.91888035683568 -1.91286051735174
 6  3.77119799039904  0.18342774627463 -1.43300798319832
 6  2.69211983318332  1.54203179137914  2.86595249514952
 6  3.61287566536654  1.52055746724672 -1.17046361366137
 6 -9.11160614401440  0.88015017531753 -1.59422423772377
 6  1.21703676837684 -6.51642829302930  0.41696035503550
 6  4.41191002560256  2.66212296719672 -1.53894097719772
 6  3.85449471787179  3.86190671437144 -1.11008230253025
 6  2.58939050985099  3.32218006910691 -0.34629339203920
 6  5.68512211751175  2.58585342594259 -2.23018497359736
 6  4.19541516131613  5.23011788758876 -1.26355836923692
 6  6.67427748534853  3.56304198899890 -2.60211468836884
 1 -4.26768125422542  2.09784086418642  0.29130217051705
 1 -4.87489214611461 -0.67378885498550  1.08244298849885
 1 -4.86141298119812  0.92342634233423  2.29131604130413
 1 -2.85197423732373 -1.51576897239724 -0.06754367616762
 1 -3.26910790809081  0.69693161026103 -1.40588813971397
 1  0.32753718841884 -0.25984567256726  3.58282783088309
 1  1.46852086148615 -0.37723239063906  2.18775390819082
 1 -0.75053371427143 -2.82480994599460 -0.18488348604860
 1 -3.23952409770977  1.64624588868887  3.41359134883488
 1 -1.89755097019702  1.09571893579358  4.22584097199720
 1 -1.74840122122212  2.57421124092409  3.04187160896090
 1 -6.27979143004301  2.49573837733773  1.62159439243924
 1 -7.63337310431043  1.12817262646265  1.63750076077608
 1 -7.87194313151315  2.53937002010201  0.21638011821182
 1  1.21244395279528  2.02394443104310  1.43114118141814
 1  0.77408052055205  2.28860568256826  3.00541636583658
 1  1.78655298169817  0.38787943294329 -0.03313867916792
 1  1.97057484968497 -4.82566639703970 -1.73051766146615
 1  0.44483628112811 -4.08834868236824 -1.27671615501550
 1 -7.93092415421542  0.26588681928193 -3.18044398259826
 1  1.30527271617162 -4.60252143184318  1.37398497509751
 1  2.83727999809981 -5.34506171067107  0.60365818071807
 1  4.09859492179218 -3.85596304850485 -2.33701716281628
 1  5.21644274267427 -2.96453530373037 -1.31997561516152
 1  4.51351278437844 -2.11556378897890 -2.77428650225022
 1  4.66314593409341 -0.04224631913191 -1.95957213291329
 1 -9.16340994149415  1.03220067556756 -0.44352704250425
 1 -10.04190232383238  0.47662907860786 -2.14749084908491
 1  3.97233191969197  2.67479086278628  3.62504727042704
 1  5.98470193839384  1.48417056625663 -2.38774758975898
 1  5.07193789358936  5.54558732293229 -0.74872349224922
 1  4.49214123662366  5.43465023072307 -2.47669021392139
 1  3.36727439703970  5.98021762816282 -0.91860360196020
 1  1.13340064816482 -7.92542369946995  1.47161321622162
 1  7.73601604600460  3.43892943284328 -3.04323159645965
 1  6.40193208070807  4.65467097929793 -2.36228858135814

