%nproc=4
%Mem=3GB
# td=(NStates=1) B3LYP/SVP 

TD

0 1
 8 -3.18386529672967 -1.36107116261626 -2.88493914821482
 8  3.21895235003500  3.12732439093909  3.00345461636164
 8  3.51256556475648  1.38638576687669  4.50990543414341
 8  7.70536913981398 -1.59526564076408 -0.60259102090209
 8  6.63037719411941 -2.94506530143014 -2.17041348944894
 8 -2.54578548504850  1.64543003210321  1.47568762926293
 7 -0.36757250345034 -2.39567588188819  0.84194903570357
 7 -2.65614765276528 -1.19021415641564 -0.58826097069707
 7  1.13158470787079  0.08336924662466 -0.68213315051505
 7 -0.95540468596860  1.47850325822582 -0.22531342924292
 6 -3.38664381408141 -1.32322988538854  0.58934590849085
 6 -2.76266489258926 -2.31029517571757  1.65592089888989
 6 -1.31541718341834 -1.96925473947395  1.87773576217622
 6 -0.64780458275828 -1.20726191789179  2.86408442894289
 6  0.67342845544554 -1.07674267526753  2.37884907950795
 6  0.84221690789079 -1.87830426512651  1.20605540954095
 6 -4.73313826042604 -1.88085373407341  0.20895778307831
 6  1.80679527092709 -0.36793712331233  3.23975613011301
 6 -4.72707906930693 -2.13011171957196 -1.11905224572457
 6  2.04996295269527 -1.84701289348935  0.23266554525453
 6  2.14896091799180 -0.83895580778078 -0.66713061456146
 6 -3.48712338223822 -1.53966593189319 -1.75382266566657
 6  3.02746380958096 -0.64322507080708 -1.81519541844184
 6 -1.25895446764676 -0.53044690169017  4.09038454675468
 6 -5.80562578667867 -2.22283876417642  1.29364036963696
 6  2.52851250815081  0.40479784798480 -2.58348295829583
 6  1.97405683808381  1.09222491449145  2.71545818741874
 6  1.37196056255626  0.92915956455646 -1.86263236923692
 6  4.23912926202620 -1.48236766586659 -2.05550518061806
 6 -5.91033536963696 -2.53591568196820 -1.95989943814381
 6  5.43767931893189 -1.14306605180518 -1.12412582948295
 6  3.23840393579358  1.19211761436144 -3.63896040524052
 6  0.52308473257326  2.00194534143414 -2.06781852695270
 6  2.97595623592359  1.83312289778978  3.50658600380038
 6 -0.54716854845485  2.28130276247625 -1.14659994789479
 6 -6.88095202170217 -3.45243900800080 -1.63096165486549
 6  6.59589915951595 -2.02949120422042 -1.39261995199520
 6 -1.34961361616162  3.50419265246525 -1.29127720242024
 6 -2.21376546594659  3.42500297929793 -0.23430133633363
 6 -2.00114238663866  2.09768070157016  0.45953488548855
 6 -1.22815279367937  4.58996525672567 -2.21802357035704
 6 -3.35102573907391  4.28924940784078  0.42421666136614
 6 -1.94682857405741  5.80915633383338 -2.30916464926493
 1 -3.59562805600560 -0.31732722262226  1.14815902050205
 1 -2.77297892429243 -3.35437056205621  1.33137348644864
 1 -3.38850867066707 -2.21338478287829  2.65440482918292
 1 -0.63837914271427 -2.75304406950695 -0.13807679767977
 1 -2.12925131483148 -0.30210651415141 -0.74622872527253
 1  1.51996995839584 -0.17651910571057  4.44116621572157
 1  2.76542387528753 -1.01190308160816  3.14772970237024
 1  2.69781859575958 -2.71400298319832  0.32902595579558
 1 -1.93947657695770 -1.15240451445145  4.34079114091409
 1 -0.48949871787179 -0.30133433703370  4.76797315381538
 1 -1.85329464326433  0.52224467116712  3.82275104040404
 1 -5.63773456065607 -1.72288041924192  2.24758905190519
 1 -5.96041480218022 -3.37664176877688  1.41946479277928
 1 -6.85777315411541 -1.89784542794279  1.02771913361336
 1  2.28018415781578  1.08078802070207  1.69555716701670
 1  1.19831978347835  1.57851009530953  2.70436841054105
 1  0.21124938253825  0.22447681748175 -0.19358139043904
 1  4.55507122632263 -1.30700375937594 -3.12252785468547
 1  3.89457028682868 -2.48183996319632 -1.92280938893889
 1 -5.78081021942194 -2.12381330593059 -2.96913037683768
 1  5.29874779607961 -1.12211269116912 -0.02380915721572
 1  5.58031947324733 -0.13190018611861 -1.40926540904090
 1  3.89750966246625  0.65976246834683 -4.16272450195019
 1  3.52526827842784  2.35044612331233 -3.34203653905390
 1  2.59236502580258  1.34695919381938 -4.48171132313231
 1  0.65729963996400  2.56586808330833 -2.92702359435944
 1 -6.91741082718272 -3.93793597749775 -0.38453747494749
 1 -7.71637990289029 -3.95321665216522 -2.20787384088409
 1  3.93439716721672  3.51261062206221  3.38991224542454
 1 -0.39991387018702  4.61563284278428 -2.90437833323332
 1 -4.29803839343934  4.57555413721372 -0.29673082458246
 1 -3.79689843954395  3.84403919751975  1.29456026742674
 1 -2.80431874807481  5.28663895499550  0.48501427132713
 1  8.51442713621362 -2.04977813201320 -0.95741637663766
 1 -1.81784470907091  6.44812526962696 -3.04267912011201
 1 -2.91981433433343  6.18008938473847 -1.89544545204520

