%nproc=4
%Mem=3GB
# td=(NStates=1) B3LYP/SVP 

TD

0 1
 8 -3.27173408360836 -1.19688474397440 -2.81176183048305
 8  3.11307176197620  3.05114677317732  3.15533980488049
 8  3.62556686488649  1.44294142244224  4.62892733633363
 8  7.76774537743774 -1.64991110531053 -0.68769953175318
 8  6.68547270367037 -3.03390418531853 -2.16784323242324
 8 -2.61691259775978  1.56336182528253  1.49141920242024
 7 -0.27540328652865 -2.45496181048105  0.95275011581158
 7 -2.64326636463646 -1.16715185018502 -0.57523966856686
 7  1.03207475687569 -0.02838192849285 -0.90694563176318
 7 -1.05845499099910  1.34399980788079 -0.33208410631063
 6 -3.39956510621062 -1.31639920232023  0.69571654555456
 6 -2.65698432453245 -2.35057920412041  1.72888819561956
 6 -1.23449909160916 -2.02167998199820  1.85847383598360
 6 -0.59573937623762 -1.03107429912991  2.84441246174617
 6  0.78644975757576 -0.99937493849385  2.44892608720872
 6  0.91296398259826 -1.78534496919692  1.30859566356636
 6 -4.77283222982298 -1.82593824252425  0.16971385868587
 6  1.88850344174417 -0.33958428802880  3.21650380488049
 6 -4.70267662906291 -1.99091780018002 -1.10466080658066
 6  2.03085104150415 -1.88637682988299  0.23199547824782
 6  2.06585260716072 -0.90092200440044 -0.68770267176718
 6 -3.41100577047705 -1.46258822412241 -1.64484176757676
 6  2.95216627982798 -0.67899864816482 -1.96188008690869
 6 -1.27717628982898 -0.48046190319032  4.04565007330733
 6 -5.84199942404241 -2.25648212851285  1.33729473507351
 6  2.51476113301330  0.54635200340034 -2.55184979497950
 6  1.83523295569557  1.15228092009201  2.97126376797680
 6  1.32219558605861  0.95015166376638 -1.93115922192219
 6  4.19111446054605 -1.46570599969997 -2.04173380348035
 6 -5.74887922402240 -2.63165525592559 -2.05287873607361
 6  5.45086063706371 -1.18669041424142 -1.15188860576058
 6  3.09358945434543  1.19953835643564 -3.77772428162816
 6  0.54631705580558  2.07714286118612 -2.06849859495950
 6  3.00830947124712  1.88642822832283  3.75849119431943
 6 -0.64479831143114  2.25782041424142 -1.29699498739874
 6 -6.84255818231823 -3.27038080218022 -1.71289984868487
 6  6.67047661726173 -2.10005826092609 -1.43160385038504
 6 -1.38832748754875  3.48021025422542 -1.26293436813681
 6 -2.27466155555556  3.33258373737374 -0.22828073427343
 6 -2.09216148854886  1.98715964946495  0.38079701170117
 6 -1.17733771217122  4.59390565076508 -2.18131989999000
 6 -3.31723235973597  4.33173365626563  0.28025226492649
 6 -1.95068896009601  5.65407082528253 -2.27952168496850
 1 -3.42242073527353 -0.41469695959596  1.22451665626563
 1 -2.90073169956996 -3.29733485848585  1.18030837993799
 1 -3.12039185898590 -2.32728617301730  2.61255064376438
 1 -0.45785108990899 -3.02567133223322  0.18112512251225
 1 -1.91178956865687 -0.48000430393039 -0.72280638303830
 1  2.03387134853485 -0.53049450325033  4.23520561966197
 1  2.86122345524552 -0.62285417671767  2.71866679607961
 1  2.77971678557856 -2.49910149304930  0.42934598779878
 1 -2.07510013931393 -1.18916819081908  4.34559162096210
 1 -0.62908267626763 -0.07797200080008  4.80016637313731
 1 -1.72234154795480  0.42443489018902  3.56647541284128
 1 -5.73776456365637 -1.83793192439244  2.29227352035204
 1 -5.67929669036904 -3.38047215181518  1.31415426172617
 1 -6.79520689748975 -1.84224986838684  0.76494285598560
 1  2.20565670507051  1.29358930083008  1.93263087438744
 1  0.80993094459446  1.43268551285128  3.16282425612561
 1  0.33003126072607  0.18626299609961 -0.29471150345035
 1  4.75067078627863 -1.28991205020502 -3.19026462836284
 1  3.94820565036504 -2.54857663686369 -1.82658976697670
 1 -5.48126026442644 -2.35020594519452 -3.15980944474447
 1  5.23323124442444 -1.29642012191219 -0.08829560586059
 1  5.78173961526153 -0.18916591269127 -1.17167164966497
 1  3.93732364386439  0.59502599469947 -4.18314654415442
 1  3.30935668726873  2.22214329302930 -3.85986832223222
 1  2.44023981328133  1.16506100400040 -4.56909006100610
 1  0.56882079207921  2.79502099859986 -2.87804869686969
 1 -7.20445953205320 -3.77406959085909 -0.84261328252825
 1 -7.59456772167217 -3.65337666816682 -2.55428848234823
 1  3.66213994149415  3.59331869286929  3.50295354955496
 1 -0.29425330413041  4.55640692019202 -2.87774566996700
 1 -4.30148873847385  4.35385196699670 -0.68197934943494
 1 -3.68795754545455  3.86708150175018  1.22807361876188
 1 -2.87735605180518  5.42498278937894  0.34887065696570
 1  8.51200689418942 -2.33388654285429 -1.10898153315332
 1 -1.70231315591559  6.56606706380638 -3.04755960816082
 1 -2.90187254015401  5.75047642344234 -1.70916682418242

