%nproc=4
%Mem=3GB
# td=(NStates=1) B3LYP/SVP 

TD

0 1
 8 -3.38066497669767 -1.59195425092509 -2.95252590689069
 8  3.30029048384838  3.02947460596060  2.78185245614561
 8  3.77778208640864  1.36924405270527  4.22551699529953
 8  7.70679928282828 -1.41497761196120 -0.55718648044804
 8  6.62551670807081 -3.00385118001800 -1.83379982808281
 8 -2.76701760826083  1.66767225632563  1.50343040354035
 7 -0.35264101030103 -2.43770008430843  0.92639748054805
 7 -2.71792383038304 -1.27990312531253 -0.68318046264626
 7  1.20863241264126  0.02094300400040 -0.76601153835384
 7 -1.01841098659866  1.42081748964896 -0.19619051695170
 6 -3.39571472117212 -1.31885944834483  0.61110808470847
 6 -2.70553918001800 -2.43401754795480  1.65077038383838
 6 -1.23063870557056 -2.08115592959296  1.81609959855986
 6 -0.61993179547955 -1.24766595829583  2.81076909740974
 6  0.72039315191519 -1.21071607260726  2.44866606120612
 6  0.93027571377138 -1.96394282898290  1.25604040804080
 6 -4.71881682828283 -1.88708435713571  0.19530641794179
 6  1.88891348274827 -0.42568289788979  3.12534468896890
 6 -4.84263062446245 -2.07932664106411 -1.14435477597760
 6  2.03942189858986 -1.93873206540654  0.22200447914791
 6  2.05821184308431 -0.90356226842684 -0.64549845134513
 6 -3.57845251515151 -1.67966993229323 -1.72367965136514
 6  3.03830489368937 -0.62566331463146 -1.72696659555956
 6 -1.31535010721072 -0.49960381738174  3.94749025732573
 6 -5.77357258135814 -1.96459293959396  1.24817582318232
 6  2.54523418031803  0.60122749094910 -2.38042265226523
 6  1.99744917731773  0.97991368336834  2.54117075867587
 6  1.32425579207921  0.96188283688369 -1.68775488148815
 6  4.26111146024602 -1.43807323642364 -1.98755838593859
 6 -5.88575291139114 -2.45871796219622 -1.95859930813081
 6  5.44414996599660 -0.93625537073707 -1.05822923982398
 6  3.10063015841584  1.16102450505051 -3.63405991519152
 6  0.53094551865187  2.03240838773877 -1.98585033013301
 6  3.02394103440344  1.82284186968697  3.30700604580458
 6 -0.65277910951095  2.32157678987899 -1.24868015591559
 6 -6.86842076857686 -3.30224398849885 -1.57914647334733
 6  6.58779834943494 -1.91751000610061 -1.20500119011901
 6 -1.42617127192719  3.48291052425242 -1.23780185488549
 6 -2.30940502990299  3.40236071507151 -0.22903080928093
 6 -2.01505377777778  2.08839977347735  0.45475440744074
 6 -1.26436641504150  4.66433269346935 -2.10074184218422
 6 -3.27160779727973  4.38165864876488  0.28826306600660
 6 -1.83465735693569  5.85240065826583 -2.18991272407241
 1 -3.39417791099110 -0.45403089298930  1.09466367096710
 1 -2.64956658305831 -3.37161228622862  1.11326167526753
 1 -3.39432925272527 -2.34377782218222  2.46550593929393
 1 -0.26008131293129 -3.01348011311131  0.08015502550255
 1 -1.95989437913791 -0.47839414291429 -1.04444854725473
 1  1.85564352575257 -0.30828228202820  4.27338943804380
 1  2.77234456735674 -0.76509840114011  2.98267319671967
 1  2.85610442434243 -2.67528911181118  0.30630368356836
 1 -1.95623825312531 -1.29060833483348  4.60192725452545
 1 -0.58859862786279 -0.19485368896890  4.61598795529553
 1 -2.15615492929293  0.27280972767277  3.58718748404841
 1 -5.77567835503550 -1.35648377957796  2.06347064006401
 1 -6.15868462916292 -3.26253035763576  1.47536038233823
 1 -6.75406278307831 -1.53579922332233  0.99248561026103
 1  2.37443358275828  0.85975591749175  1.38729634093409
 1  1.09937988948895  1.88032027632763  2.38159613331333
 1  0.52127038463846  0.17872224202420 -0.07437947024703
 1  4.71181690089009 -1.27614067306731 -3.12262786468647
 1  3.99458028782878 -2.41034281348135 -1.66256336433643
 1 -6.00630276867687 -1.85113603820382 -2.89009247304730
 1  5.14264218551855 -0.89939041894189 -0.07104388068807
 1  5.92223366466647  0.03559656355636 -1.50819530203020
 1  3.85843575507551  0.68404489658966 -4.07310554005401
 1  3.49674542614261  2.28575965466547 -3.57011934733473
 1  2.35640142944294  1.55103960186019 -4.43644679667967
 1  1.00782469246925  3.00528202470247 -2.61333222522252
 1 -7.19059814591459 -3.82081426532653 -0.61504052525253
 1 -7.48808707360736 -3.54706603710371 -2.24974802830283
 1  4.11221494899490  3.30272963396340  3.23535678987899
 1 -0.38544242304230  4.52817409690969 -2.78427632303230
 1 -4.13579216881688  4.72340892269227 -0.25442659415942
 1 -3.57315606530653  3.87664245784578  1.37542835423542
 1 -2.59564788098810  5.34514480558056  0.77865363526353
 1  8.32533822732273 -2.00488364256426 -0.63470410541054
 1 -1.63738666326633  6.58425888298830 -2.97438229042904
 1 -2.78420077297730  6.19133050885089 -1.69730563806381

