%nproc=4
%Mem=4GB
# td=(NStates=1) B3LYP/SVP 

TD

0 1
 8 -5.12762899289929  0.12781822142214 -3.41093088278828
 8  2.88181818731873  3.06020327502750  3.31518759715972
 8  3.36391474007401  0.84867026602660  3.16344822992299
 8  1.54016165566557 -7.06609287938794  1.46552505880588
 8  0.51600648864886 -7.01467789138914 -0.51229921282128
 8  1.77552460056006  3.81104422722272  0.25062456985699
 7 -2.29023863496350 -0.90802923312331  0.65995301190119
 7 -4.33877875927593  0.59955762226223 -1.24887324212421
 7  1.88557894949495 -0.66812838583858 -0.34442291989199
 7  2.57732327422742  1.78579432493249 -0.42374912161216
 6 -4.67208359955996  1.22915441244124 -0.04198839903990
 6 -4.29864725752575  0.35555572087209  1.25506286398640
 6 -2.91021611721172 -0.03577332063206  1.54800681368137
 6 -1.96957605430543  0.53542850005000  2.32633580318032
 6 -0.71014762506251  0.00259482398240  1.91992266986699
 6 -0.95208939673967 -1.09097215611561  0.96083790319032
 6 -6.16279863596360  1.31876966626663 -0.10648586398640
 6  0.64396300290029  0.18758943544354  2.60566958705871
 6 -6.57885840034003  0.78922817121712 -1.39710543924392
 6 -0.08958521462146 -2.01039977687769  0.28455053655366
 6  1.09567646384638 -1.81240078667867 -0.26926850905091
 6 -5.28365896619662  0.48158637333733 -2.22144945644564
 6  1.93470755595560 -2.90091062946295 -0.93929093839384
 6 -2.04156985788579  1.56112186908691  3.37764215441544
 6 -7.05781327452745  1.99088721792179  0.78282226812681
 6  3.05660199389939 -2.35677562876288 -1.40036128122812
 6  1.11368739603960  1.60990948434843  2.68228186408641
 6  2.98712678797880 -0.97834646024602 -1.07252124032403
 6  1.53531730193019 -4.35241120552055 -0.99248096499650
 6 -7.80935684168417  0.74515615321532 -2.10901928972897
 6  1.74624218981898 -4.98242917751775  0.34648064356436
 6  4.19340494949495 -2.91935040384038 -2.12748197949795
 6  3.96994786538654  0.05382478597860 -1.37299198159816
 6  2.56365698689869  1.75650323852385  3.04101000090009
 6  3.72229660746075  1.41186659815982 -1.19650621792179
 6 -9.09586456985699  0.89644180448045 -1.62249706500650
 6  1.20335540024002 -6.45878252845285  0.36718537753775
 6  4.48269710431043  2.61126788168817 -1.62682976607661
 6  3.91939120752075  3.68599912361236 -0.93980527482748
 6  2.61826339713971  3.15414326542654 -0.28614737743774
 6  5.65678928422842  2.56288112871287 -2.39061101620162
 6  3.97350297009701  5.18597347314731 -1.24977699109911
 6  6.49502956055606  3.53348903370337 -2.78379285618562
 1 -4.33346783288329  2.33894497459746 -0.09202616231623
 1 -5.11281593849385 -0.62753422952295  1.29123386758676
 1 -4.75133197309731  0.85480948064806  2.24168107780778
 1 -2.60643968386839 -1.41668906440644 -0.01840876267627
 1 -3.37658865616562  0.71440335743574 -1.57047459835984
 1  0.56763119781978 -0.03000268826883  3.56514606270627
 1  1.37864187358736 -0.45056972437244  2.02329746254625
 1 -0.57059572047205 -2.93650111511151  0.04225922822282
 1 -3.17506765206521  1.72020328442844  3.64991498119812
 1 -1.48012922802280  1.24023338723872  4.29229761766177
 1 -1.72359874097410  2.73060688048805  2.84359178097810
 1 -6.54085753665367  2.77539634313431  1.47565979897990
 1 -7.33775354235423  1.20592040124012  1.53538054875488
 1 -7.93231916911691  2.60531661476148  0.33879235943594
 1  1.13154586298630  2.11983402000200  1.61742981028103
 1  0.53016612911291  2.31159798179818  3.27991381558156
 1  1.54397872427243  0.27756840184018 -0.30771613691369
 1  2.29565735793579 -4.98658248864886 -1.73480809050905
 1  0.41299309680968 -4.38722857035703 -1.16599508290829
 1 -7.60139120092009  0.32616284688469 -3.13518945714571
 1  1.19178136703670 -4.53821500120012  1.15946352295230
 1  2.65738200830083 -5.16262346684668  0.44971278617862
 1  3.88657371967197 -4.06411386358636 -2.38361182228223
 1  5.11476257465747 -2.80904975517552 -1.51101471907191
 1  4.34266569966997 -2.22907514011401 -3.13657273087309
 1  4.82275189468947 -0.38650074457446 -2.02673884958496
 1 -9.30587418791879  0.74430188568857 -0.57046973677368
 1 -9.89856799039904  0.82556397209721 -2.14182028202820
 1  3.75606029252925  2.85892927662766  3.66935170087009
 1  5.98870233843384  1.52964511371137 -2.66018483348335
 1  4.80458115791579  5.79788255245525 -0.77311593149315
 1  3.90320234273427  5.27120388608861 -2.36353889878988
 1  3.04099176877688  5.90628023442344 -0.78509025062506
 1  1.35789309740974 -8.10425158225823  1.23342939783978
 1  7.38263070747075  3.35859139903990 -3.38933620692069
 1  6.57724961246125  4.57472298449845 -2.55257761026103

