%nproc=4
%Mem=4GB
# td=(NStates=1) B3LYP/SVP 

TD

0 1
 8 -5.59650588058806  0.04917035663566 -3.30904069376938
 8  3.08833883938394  2.87447470217022  3.12768884728473
 8  3.39305765436544  0.72171757075708  2.79512139723972
 8  1.46712435193519 -6.98510478057806  1.68280678697870
 8  0.92778766676668 -7.09782620622062 -0.55444342724272
 8  1.72226927502750  3.94593771657166  0.05752525992599
 7 -2.26936654775478 -0.98654708490849  0.46237325392539
 7 -4.50632551395140  0.47937560406041 -1.32748110291029
 7  1.89872026362636 -0.70747232023202 -0.42497097469747
 7  2.62349789168917  1.89893563906391 -0.42185893259326
 6 -4.80475686688669  1.07995949294929 -0.04078827902790
 6 -4.41929932273227  0.24696486178618  1.16211356905691
 6 -2.92470756635664 -0.04064380768077  1.27802981598160
 6 -1.97387648434843  0.61476643384338  2.04166733633363
 6 -0.68980559085909 -0.00724616011601  1.75599627722772
 6 -0.94438862666267 -0.92530558945895  0.76878869826983
 6 -6.33130548664866  1.25444323362336 -0.10282549794979
 6  0.63923252985299  0.23919459595960  2.41896091619162
 6 -6.82760327482748  0.84151339973997 -1.31740746944694
 6 -0.14053030913091 -2.04597333423342  0.13920600210021
 6  1.17377427362736 -1.85873542014201 -0.31624320652065
 6 -5.69979057935794  0.45980419511951 -2.13031034253425
 6  2.02754683988399 -2.93177371577158 -0.88919592889289
 6 -2.09844554545455  1.72751850875088  3.07861225142514
 6 -7.08840633383338  1.97686581578158  1.04490847674767
 6  3.18737507120712 -2.37250720192019 -1.28075932103210
 6  1.10396642394239  1.65084357775778  2.52126576247625
 6  3.08701677697770 -0.92268089368937 -1.11908589678968
 6  1.57883165336534 -4.39782574697470 -0.94042575947595
 6 -8.13274918091809  0.98890052765277 -1.91858024582458
 6  1.82792035763576 -5.08802973757376  0.44814080958096
 6  4.31899750875088 -2.98118658745875 -1.98452768406841
 6  4.00925179577958  0.08855825932593 -1.33889857225723
 6  2.64110473167317  1.66071365956596  2.85092099199920
 6  3.77214159195920  1.48716412791279 -0.99840640794079
 6 -9.34400938433843  1.03238539883988 -1.31651646694669
 6  1.21985705040504 -6.43048969916992  0.42752141114111
 6  4.65500433503350  2.66829358425843 -1.39821690479048
 6  3.93997326572657  3.73435395909591 -0.92206350065006
 6  2.61952352315232  3.24112196329633 -0.36716547924792
 6  5.92621622692269  2.54707954855486 -1.89111106620662
 6  4.15836145594559  5.22449732553255 -1.18709072247225
 6  6.72739279687969  3.47536322112211 -2.28369284618462
 1 -4.23149763586359  2.11044212431243 -0.18980594029403
 1 -4.95469012591259 -0.67871934803480  1.20345508970897
 1 -4.76446328622862  0.69089308900890  2.19529643934393
 1 -2.76098513841384 -1.53593098859886 -0.15169209100910
 1 -3.69753075037504  0.74670658775878 -1.85453300420042
 1  0.38059249394940 -0.01712140014001  3.68568811691169
 1  1.51395540494049 -0.48826349374937  2.30984611741174
 1 -0.61940060096010 -3.14437190219022  0.04079908220822
 1 -3.13774391969197  1.79062032613261  3.29094908460846
 1 -1.49355057015702  1.60354971887189  4.07286567446745
 1 -1.54308068916892  2.60537435723572  2.61695911771177
 1 -6.25816926782678  2.66896570007001  1.55854808780878
 1 -7.17866763376338  1.17642745194519  1.67464447514751
 1 -7.88096403360336  2.47449353245325  0.54278275847585
 1  1.09662237063706  1.83017505410541  1.41828989628963
 1  0.30291340384038  2.34069089108911  3.25146097029703
 1  1.57251157755776  0.29903054805481 -0.33468883418342
 1  2.22453024522452 -5.02669650005000 -1.65808041774177
 1  0.42711450895090 -4.57710755825583 -1.19606809020902
 1 -8.28713977577758  1.11462169276928 -2.99132507070707
 1  1.24646683558356 -4.60842202190219  1.25711328792879
 1  2.93081935203520 -5.33900110461046  0.63138095299530
 1  4.02341740404040 -4.03654110631063 -2.34255771687169
 1  5.07619871827183 -2.93211206140614 -1.34123774137414
 1  4.69286071917192 -2.47195942854285 -2.88277735133513
 1  4.95676529602960 -0.04418651315132 -2.14743091879188
 1 -9.39173277377738  0.72449990549055 -0.37744043384338
 1 -10.29264739833983  1.10632204790479 -1.83932003200320
 1  3.99213389988999  2.80868425212521  3.51232599829983
 1  6.23699716791679  1.49545169436944 -2.25374418941894
 1  4.83331403120312  5.75433819801980 -0.31475009490949
 1  4.66695871837184  5.55881264696470 -2.16224876977698
 1  3.22042971257126  5.66847645404540 -0.80158189978998
 1  1.54198150625063 -8.03920507760776  1.33298935383538
 1  7.78247069146915  3.12986852675267 -2.38594586788679
 1  6.66788867636764  4.72324783698370 -2.47459981248125

