%nproc=4
%Mem=3GB
# td=(NStates=1) B3LYP/SVP 

TD

0 1
 8 -3.36197310751075 -1.23157821332133 -2.87622827712771
 8  2.99448990379038  3.16860851935194  3.19417368826883
 8  3.62509681788179  1.39901703000300  4.40992543614361
 8  7.71582018491849 -1.71114722892289 -0.41651241304130
 8  6.80516467286729 -2.77475827072707 -2.24906135423542
 8 -2.61581248774877  1.70041553065307  1.44235429592959
 7 -0.25207095329533 -2.49363567786779  0.87668250905091
 7 -2.69344138213821 -1.30614574957496 -0.61764390899090
 7  1.18355990539054  0.05191610131013 -0.72008694589459
 7 -0.99294844034403  1.43581898979898 -0.27596849474947
 6 -3.34805995569557 -1.35487304970497  0.64409138303830
 6 -2.63945257135714 -2.41750589678968  1.61800710751075
 6 -1.16830247194719 -2.08721653565357  1.72703069166917
 6 -0.61862166446645 -1.19930112181218  2.74600262076208
 6  0.75980709330933 -1.15923092409241  2.42931412601260
 6  0.96158884508451 -1.91341777647765  1.22038684268427
 6 -4.75428037463746 -1.88865451415142  0.23246013331333
 6  1.84023861526153 -0.37178750835084  3.11465361986199
 6 -4.92354871627163 -2.10938964736474 -1.07004734523452
 6  2.16088404480448 -1.93168136033603  0.33872615131513
 6  2.18337435933593 -0.96859877207721 -0.70674457595760
 6 -3.60120479037904 -1.48215018031803 -1.68269555295530
 6  3.08202926612661 -0.61838258655866 -1.80575447434743
 6 -1.30558913111311 -0.51447530453045  3.86161166946695
 6 -5.65215043914391 -2.14901138143814  1.37878888448845
 6  2.68658831573157  0.50214758295830 -2.42370698069807
 6  1.95555498789879  1.03825951795180  2.73944058565857
 6  1.43164653115312  0.92277892649265 -1.70424653065307
 6  4.25556090519052 -1.52395182428243 -2.08581821192119
 6 -6.03040737683768 -2.43527561796180 -1.94260770897090
 6  5.46417196819682 -1.10027177237724 -1.18760217711771
 6  3.19484958035804  1.17697610021002 -3.59640614981498
 6  0.56757918201820  2.00541568846885 -2.09448119321932
 6  2.87673631393139  1.82744232973297  3.55275062026203
 6 -0.63459729132913  2.22468710091009 -1.22692798069807
 6 -7.14846877337734 -3.08878264236424 -1.52026058475848
 6  6.70352992259226 -1.91609986508651 -1.37866855685569
 6 -1.48877753255326  3.48233046624662 -1.33749182388239
 6 -2.26484057345735  3.40489096809681 -0.15468337453745
 6 -2.08693096549655  2.16561749524953  0.42495142714271
 6 -1.31943192159216  4.46342260246025 -2.30870263826383
 6 -3.29227986448645  4.34121460436044  0.36694093379338
 6 -2.01106499769977  5.66738215641564 -2.40621435423542
 1 -3.31770026322632 -0.44799028892889  1.23676788138814
 1 -2.87083871027103 -3.35167029202920  1.10520086918692
 1 -3.17506732653265 -2.27382082648265  2.57934732343234
 1 -0.45610091489149 -2.83222198729873 -0.07162015201520
 1 -1.93703209290929 -0.43641994549455 -0.78705280768077
 1  1.74527248864887 -0.44209566336634  4.22865496459646
 1  2.67039437233723 -1.03409530083008  3.00935586498650
 1  2.96000481438144 -2.75147673057306  0.29083213641364
 1 -1.71707433673367 -1.30715998999900  4.40359742154215
 1 -0.71384115211521  0.16973276967697  4.56260261676168
 1 -1.96827614141414  0.12766521322132  3.33201196649665
 1 -5.40563135033503 -1.44629276047605  2.39143343634363
 1 -5.61072983368337 -3.14650875547555  1.78703154945495
 1 -6.80023740054005 -1.83149879327933  1.19265562726273
 1  2.13102924232423  1.30134007590759  1.77613522482248
 1  1.04185413691369  1.48041028532853  2.85209318301830
 1  0.33210146774677  0.13192756255626 -0.20148218051805
 1  4.68656437563756 -1.50703376237624 -2.99900550245025
 1  4.23734456425642 -2.72849462866287 -1.64991209920992
 1 -5.73875601400140 -2.20451137573757 -2.97819128292829
 1  5.15932385368537 -0.83736421632163 -0.04480125642564
 1  5.85472691399140 -0.03739073517352 -1.45722020452045
 1  4.02942285378538  0.50308680078008 -3.83136136563656
 1  3.44534028562856  2.20490156885689 -3.90278261366137
 1  2.55429121842184  0.91043554145415 -4.61275442744274
 1  0.89077298729873  2.50380187668767 -2.91805269726973
 1 -7.24965405150515 -3.55217740164016 -0.54549357055706
 1 -7.88824708960896 -3.55565689618962 -2.25084813831383
 1  3.80766449394940  3.43275263626363  3.63034628882888
 1 -0.56856073487349  4.36571785128513 -3.07131502690269
 1 -3.92892148174818  4.85105168696870 -0.41510266176618
 1 -3.77307605730573  4.03969876347635  1.32932374377438
 1 -2.69688800500050  5.32978326942694  0.55579134903490
 1  8.50788648214822 -2.25507866206621 -0.55907654265426
 1 -1.94993791839184  6.14663512061206 -3.51025587778778
 1 -2.89621197409741  5.77552892869287 -1.94197010451045

