%nproc=4
%Mem=3GB
# td=(NStates=1) B3LYP/SVP 

TD

0 1
 8 -3.19000591079108 -1.40680573607361 -2.84082473677368
 8  3.04894534933493  3.10850250875087  3.05655992689269
 8  3.82902721092109  1.48467559585959  4.34470891449145
 8  7.77936653955395 -1.56301241544154 -0.81357211901190
 8  6.51356551295130 -3.17185798069807 -1.89534598269827
 8 -2.75224613111311  1.61733722282228  1.39129919041904
 7 -0.22083782998300 -2.28100441474147  0.87723256405641
 7 -2.70920295829583 -1.12980811581158 -0.55387753235324
 7  1.18507005640564  0.13516442614261 -0.64009894709471
 7 -1.04984412991299  1.39481488938894 -0.22411330923092
 6 -3.47944309400940 -1.45780334273427  0.65455242914291
 6 -2.57730635673567 -2.36557070327033  1.48497380418042
 6 -1.17958360006001 -2.09859767376738  1.82119010761076
 6 -0.59719952225223 -1.25643683538354  2.79425744624462
 6  0.82146325892589 -1.14776977797780  2.54824601920192
 6  1.05536822302230 -1.83873030773077  1.24247905190519
 6 -4.67142208880888 -1.95457110581058  0.32803969126913
 6  1.98330292169217 -0.48735906550655  3.21218337283728
 6 -4.75299166056606 -2.07598630703070 -1.01941228172817
 6  2.16586454285429 -1.79919811201120  0.31075335403540
 6  2.12130815271527 -0.80765267746775 -0.58600250175018
 6 -3.52266693659366 -1.50481244654465 -1.65208249164916
 6  3.04617568076808 -0.59501024932493 -1.79224312321232
 6 -1.34562313451345 -0.53259711671167  3.88852436073607
 6 -5.79119434353435 -2.27045352565256  1.27678868446845
 6  2.56979663656366  0.49103647184718 -2.42924753475348
 6  2.00531996439644  1.03758945094509  2.76662330393039
 6  1.37741110761076  0.93738038663866 -1.70349645564556
 6  4.21519686878688 -1.51790121922192 -1.97292692279228
 6 -5.77092142824282 -2.33341543194319 -2.04822827102710
 6  5.46356190719072 -1.14809655485549 -1.20869428632863
 6  3.07350744614461  1.15029343194319 -3.70491700090009
 6  0.53052547664766  2.12364751165117 -1.94965671077108
 6  3.02078071837184  1.83470305580558  3.44831017621762
 6 -0.60416424802480  2.34197883008301 -1.19606489438944
 6 -7.02518644514451 -3.04024778887889 -1.91519007770777
 6  6.59379894949495 -2.06555481058106 -1.30277096709671
 6 -1.41703035783578  3.59716194939494 -1.21273934863486
 6 -2.34028811821182  3.42482296129613 -0.12344025022502
 6 -2.03744601700170  2.05278621212121  0.46324525652565
 6 -1.23778375677568  4.65329158935894 -2.17168893689369
 6 -3.47524816131613  4.27831831473147  0.35533977367737
 6 -2.16050994219422  5.55911132933293 -2.67406113891389
 1 -3.71442993619362 -0.33807929782978  1.21182538713871
 1 -2.62915454185419 -3.34234935993599  1.11923227232723
 1 -3.13098291809181 -2.51070451485149  2.38605799449945
 1 -0.32521782658266 -2.90385915101510  0.04860187018702
 1 -1.98322671237124 -0.40801710521052 -0.73829793219322
 1  1.76979494089409 -0.75956741054105  4.27651975107511
 1  2.77284461736174 -0.90466235753575  2.84647957735774
 1  2.77428624252425 -2.81552313521352  0.26786984018402
 1 -2.00749337863786 -1.16084535853585  4.46729379117912
 1 -0.55697546554655 -0.19292349594959  4.62666902340234
 1 -1.90969028282828  0.22599504620462  3.54445321062106
 1 -5.81450223742374 -1.55739387058706  2.23170746374638
 1 -5.87345610631063 -3.32213631823182  1.61032387868787
 1 -6.74333170997100 -2.02786843024302  0.80292665436544
 1  1.87961410081008  1.12091203310331  1.58841645294529
 1  1.01817176867687  1.42821506580658  3.04658263196320
 1  0.29879813741374  0.39997436723672  0.05150311801180
 1  4.46133185238524 -1.47711077007701 -3.00671627352735
 1  3.88862969276928 -2.55412719191919 -1.36639374737474
 1 -5.64899703810381 -2.09418034263426 -3.14237770157016
 1  5.26606452775277 -1.15498597849785 -0.11666844314431
 1  5.73030447174717 -0.12785978207821 -1.47372185468547
 1  3.60832074357436  0.28244473657366 -4.57308553805380
 1  3.75792154375438  2.22013309200920 -3.64929726512651
 1  2.22262805210521  1.41054555245525 -4.35541869386939
 1  0.86159006900690  2.82480397689769 -2.81120201220122
 1 -7.19359844594459 -3.25034721862186 -0.87575659685969
 1 -7.78560682558256 -2.98086941744174 -2.56537959145915
 1  3.72205593309331  3.50299966096610  3.62590584478448
 1 -0.15726960576058  4.58796007550755 -2.65776367176718
 1 -4.27174576417642  4.34541112291229 -0.34408556005601
 1 -3.78820757045705  3.63273806740674  1.42176298769877
 1 -3.01047936413641  5.34027431853185  0.63332910281028
 1  8.47985367886789 -2.21416457065707 -0.87058769376938
 1 -1.68844176877688  6.26295675277528 -3.33081793399340
 1 -3.19001135403540  5.87560893669367 -2.27659356685669

