%nproc=4
%Mem=4GB
# td=(NStates=1) B3LYP/SVP 

TD

0 1
 8 -5.47416364636464 -0.12057661806181 -3.24701449114912
 8  3.21036104160416  2.89480673537354  3.13369944834483
 8  3.41423977257726  0.61403680268027  2.88077996309631
 8  1.57980562006201 -7.12398866896690  1.44730323662366
 8  0.87846273427343 -7.05199162276228 -0.75093307620762
 8  1.69399644774477  4.06569969276928 -0.01376186878688
 7 -2.37053666476648 -0.86445487568757  0.63556057265727
 7 -4.51715659705971  0.31522918941894 -1.18530688548855
 7  1.86556694829483 -0.70018159115912 -0.29873835143514
 7  2.60730627252725  1.91097684318432 -0.41005775247525
 6 -4.84855124632463  1.16059755675568 -0.03995819601960
 6 -4.42744013681368  0.30184034933493  1.20959831753175
 6 -2.95781087668767  0.10720097679768  1.37666967996800
 6 -1.91155025172517  0.68449340654065  2.10397356695670
 6 -0.70151676197620  0.09478404290429  1.81724240184018
 6 -0.96930111791179 -0.93486654555456  0.93164498389839
 6 -6.34576693279328  1.31433922322232 -0.20085530093009
 6  0.62700130673067  0.29180985748575  2.62178119821982
 6 -6.83885439993999  0.85162441084108 -1.36027175587559
 6 -0.17818407450745 -1.89834857175718  0.19097117861786
 6  1.09179607580758 -1.81417096369637 -0.27701928412841
 6 -5.55848644894489  0.32130034473447 -2.13716102760276
 6  1.92398648384838 -2.83382392079208 -0.90242725202520
 6 -2.25990169106911  1.68797455435544  3.25099949014901
 6 -7.24535202840284  1.99562769196920  0.82281626752675
 6  3.03436977067707 -2.30020997219722 -1.35000624572457
 6  1.25703173047305  1.71970046344634  2.50837447334733
 6  3.07001507680768 -0.90246887248725 -1.00974496269627
 6  1.54300807100710 -4.34090005440544 -0.89141085798580
 6 -8.09678558455846  0.83250488808881 -2.03272165996600
 6  1.77473503910391 -5.08634956955696  0.42052804830483
 6  4.22087769676968 -3.03630209900990 -2.02191142244224
 6  3.97235810641064  0.11319072257226 -1.26885156755676
 6  2.71625224642464  1.69584717291729  2.93785968586859
 6  3.71837621542154  1.47292270377038 -1.02855942324232
 6 -9.24475945934594  0.83889604990499 -1.40862567786779
 6  1.35120018471847 -6.52750940114011  0.20230888988899
 6  4.50167900250025  2.63377013191319 -1.51242832593259
 6  4.00852012041204  3.72400292399240 -0.99048034233423
 6  2.67233880468047  3.29251710281028 -0.45065382808281
 6  5.99001260656066  2.42561740234023 -1.94992694779478
 6  4.45354097389739  5.22952782858286 -1.19680169356936
 6  6.77138719631963  3.39235492029203 -2.28439291619162
 1 -4.29982446854685  2.05253633373337 -0.13522048174818
 1 -4.82914757165717 -0.73416489258926  0.95258000220022
 1 -4.89650649054905  0.95320932063206  2.01045795549555
 1 -2.77478651855186 -1.68650604610461  0.01341441964196
 1 -3.54553555085509  0.29065098219822 -1.42502005290529
 1  0.38432286698670  0.32539285128513  3.66365591369137
 1  1.38316232563256 -0.40733540094009  2.39646477927793
 1 -0.78001666256626 -2.75984344934493 -0.04853985168517
 1 -3.22080222552255  1.52685394949495  3.79296928662866
 1 -1.46217743284328  1.63182254615461  4.06937532543254
 1 -2.20218659975998  2.99216303610361  2.98015543734373
 1 -6.72477592849285  2.62596139963996  1.42509474247425
 1 -7.64480424742474  1.32549235843584  1.69701671237124
 1 -8.10061599879988  2.65313139623962  0.29714819501950
 1  1.32240494889489  2.51799383598360  1.44102216951695
 1  0.88239135163516  2.50385720772077  3.21218704290429
 1  1.66447077347735  0.42612325732573 -0.27456282158216
 1  2.19123691589159 -4.72781661206121 -1.94143875357536
 1  0.44099589708971 -4.63281312881288 -1.18930741414141
 1 -8.04219528132813  0.65495572617262 -3.05672161036104
 1  0.95224741364136 -4.55247642734273  1.25219279587959
 1  2.85960223032303 -5.13031023552355  0.63924173907391
 1  3.82137720002000 -4.11607906010601 -2.23562702380238
 1  5.05815691409141 -2.86837568776878 -1.33989760736074
 1  4.57030846394639 -2.57256948954895 -3.03326239983998
 1  4.62077169666967 -0.20779287378738 -1.84136031173117
 1 -9.43734733523352  0.97012446794679 -0.40183287308731
 1 -10.25654378797880  0.64692610831083 -2.01350745074507
 1  4.12837752425243  2.81504488818882  3.34939970567057
 1  6.31385485368537  1.54773692289229 -2.28655747074708
 1  5.25612631243124  5.52510527472747 -0.46810543044304
 1  4.81872389488949  5.35026179187919 -2.24736728162816
 1  3.48407607720772  5.94718432483248 -1.03514525612561
 1  1.54006131423142 -8.11661281838184  1.58742479737974
 1  7.80635307970797  3.01452699259926 -2.81545881918192
 1  6.32803469096910  4.45111062326233 -2.37430978347835

