%nproc=4
%Mem=4GB
# td=(NStates=1) B3LYP/SVP 

TD

0 1
 8 -5.33049927992799 -0.25662022242224 -3.18681847154715
 8  3.27090709620962  2.83860111481148  3.08159423782378
 8  3.35174352295230  0.53141854085409  3.13829571467147
 8  1.69086672617262 -7.14507077717772  1.42574108040804
 8  0.66682157015702 -6.95162158575858 -0.45026300920092
 8  1.77351439953995  4.10317344014401  0.00933044044404
 7 -2.42423203430343 -0.92366079627963  0.58956597319732
 7 -4.43207808920892  0.37129479597960 -1.22883123792379
 7  1.76076646824682 -0.62878445144514 -0.35738421602160
 7  2.48207374927493  1.91245699119912 -0.59219596629663
 6 -4.64089048024803  1.18319981698170 -0.03625782598260
 6 -4.34815220802080  0.38733889918992  1.31408876657666
 6 -2.93754885048505  0.02581283798380  1.42797481048105
 6 -1.95213431013101  0.59528448564856  2.28343151275127
 6 -0.72834944524452 -0.00933636913691  1.88573925152515
 6 -1.05817000480048 -0.93158621752175  0.78432025142514
 6 -6.17681003710371  1.45007279657966 -0.18521373677368
 6  0.55341394799480  0.12540321682168  2.62829184928493
 6 -6.59393990849085  0.89916916531653 -1.38783451215122
 6 -0.29988624472447 -1.94259299619962  0.18951103260326
 6  1.01337823402340 -1.81300084668467 -0.27829941214121
 6 -5.47804840514051  0.21856007070707 -2.06910422192219
 6  1.87578166336634 -2.80819135753575 -0.86969397869787
 6 -2.17315301620162  1.62511826872687  3.30938532873287
 6 -7.08417591079108  2.21297942714271  0.69361334723472
 6  3.06303263696370 -2.30380033123312 -1.35391663676368
 6  1.15898192549255  1.56996548994899  2.64569820572057
 6  2.98163623892389 -0.77774640024002 -1.04376836503650
 6  1.45345911611161 -4.29347531193119 -1.00710242714271
 6 -7.98319422542254  0.70339197679768 -2.11637002480248
 6  1.76098366396640 -5.00233116771677  0.30424642014201
 6  4.22842845184519 -2.84389285808581 -2.08006723802380
 6  3.89431030163016  0.11576097959796 -1.43516819921992
 6  2.70796141734173  1.53230081828183  3.08358425832583
 6  3.70993537133713  1.53591900340034 -1.11792836013601
 6 -9.17071205460546  0.78959111941194 -1.56054086938694
 6  1.28319338403840 -6.44934158435844  0.39329798879888
 6  4.55935477007701  2.66980373527353 -1.44875195829583
 6  3.90671994039404  3.79004952865287 -0.95695698999900
 6  2.65575714651465  3.35038288938894 -0.50277904060406
 6  5.90895450075008  2.47834267486749 -2.03124507960796
 6  4.28877449724973  5.19190406620662 -1.18395040844084
 6  6.69992004960496  3.47754343914391 -2.52474695159516
 1 -4.16469095519552  1.94728580868087  0.05293833413341
 1 -4.92302695959596 -0.40899237533753  1.20160490469047
 1 -4.82818965886589  0.88993299299930  2.12997990769077
 1 -2.94685372527253 -1.43711110661066 -0.07702462426243
 1 -3.50073107040704  0.25508742584258 -1.67429498039804
 1  0.51546598129813 -0.61601128912891  3.54942449054905
 1  1.24624863426343 -0.51288595599560  1.90954608740874
 1 -1.05855451635164 -2.80221768676868 -0.24602960066007
 1 -3.19680982628263  1.75616688078808  3.43205319501950
 1 -1.69774098919892  1.51526088998900  4.45051343924392
 1 -1.60524690579058  2.65779959975998  2.90775819761976
 1 -6.68877232813281  2.91413021652165  1.30291252425242
 1 -7.43317308430843  1.71455126432643  1.72718972967297
 1 -7.91924786198620  2.68530461356136  0.16942542274227
 1  0.88680138853885  2.26836887348735  1.74256232353235
 1  0.49259237173717  1.99129595159516  3.37674349854986
 1  1.41722604900490  0.33641428642864 -0.10538590389039
 1  2.12456024822482 -4.71441527192719 -1.71369597929793
 1  0.46495829332933 -4.38423827132713 -1.19430791419142
 1 -7.87460852265226  0.25318554915492 -3.26619255745575
 1  1.34381657055706 -4.58856003570357  1.29072664926493
 1  2.82400867096710 -5.15673287778778  0.72602041694169
 1  4.21604666696670 -4.03096054825482 -2.03284674577458
 1  5.30723182158216 -2.40771962216222 -1.75134875247525
 1  4.05557699079908 -2.49748198079808 -3.35937501110111
 1  4.73033265276528 -0.25467756225623 -1.95947212291229
 1 -9.06115971647165  1.01470892639264 -0.40273296309631
 1 -10.14720285388539  0.65813722942294 -1.91344744474447
 1  4.31480616711671  2.79358274197420  2.98479324502450
 1  6.24676814501450  1.41962411161116 -2.10512932793279
 1  5.18231893169317  5.25419818401840 -0.70541916181618
 1  4.45615763826383  5.49642640834083 -2.33373591849185
 1  3.69844751435144  5.97499710611061 -0.75646738833883
 1  1.60533784188419 -8.09421057815782  1.19755581048105
 1  7.72906535093509  3.29221476137614 -2.99058633193319
 1  6.69989187668767  4.57598311051105 -2.18786113861386

