%nproc=4
%Mem=4GB
# td=(NStates=1) B3LYP/SVP 

TD

0 1
 8 -5.13240947094709  0.01006644624462 -3.20369015871587
 8  3.11432143764376  2.99286654135414  3.03831991039104
 8  3.29100744934493  0.71717711671167  3.11631351645164
 8  1.81200884038404 -7.29651592169217  1.40889939623962
 8  0.48419330733073 -7.06873329692969 -0.39894787768777
 8  1.63989103720372  3.98469159195920 -0.09407990059006
 7 -2.35044465556556 -1.03030146034603  0.68756577317732
 7 -4.30863574497450  0.66561422792279 -1.18274662946295
 7  1.84425481708171 -0.74336590959096 -0.41347982558256
 7  2.47914345624562  1.93341908740874 -0.62601934863486
 6 -4.73293968516852  1.16255775277528  0.12348814861486
 6 -4.42451984478448  0.23303346864686  1.33651100880088
 6 -3.03655875147515 -0.09645938923892  1.47548956195620
 6 -2.02063115981598  0.53948890609061  2.19507267686769
 6 -0.77916452675268  0.02462702720272  1.82368304590459
 6 -0.96076026382638 -1.03238629752975  0.83966578597860
 6 -6.18305066116612  1.30534832413241 -0.05362057745775
 6  0.50235884248425  0.21469214571457  2.59039805990599
 6 -6.54996551105110  1.00018926732673 -1.34589031773177
 6 -0.20476673277328 -1.95552428932893  0.23827590909091
 6  1.11129802600260 -1.84252379897990 -0.27364894709471
 6 -5.26359695999600  0.50379859455946 -2.10235754725473
 6  1.94270835603560 -2.94298483688369 -0.81867887718772
 6 -2.23567926882688  1.69088484538454  3.12853724392439
 6 -7.15239273247325  1.83497162636264  1.07422140804080
 6  3.06415274897490 -2.32497244844484 -1.35190643574357
 6  1.18197422472247  1.64640313371337  2.53103673957396
 6  3.02396047134713 -0.89504813041304 -1.07576156435644
 6  1.57615138533853 -4.32588855325533 -0.96070778767877
 6 -7.81161706770677  0.95333697129713 -2.14580296809681
 6  1.88581614721472 -5.16056699129913  0.27279327482748
 6  4.32011762076208 -3.03127159595960 -1.91145037633763
 6  3.82564343494349  0.12552195569557 -1.40812549494950
 6  2.60722134333433  1.68593618181818  2.89869576947695
 6  3.63611798959896  1.49197460896090 -1.18108467576758
 6 -9.09881486488649  1.02833499379938 -1.67604241954195
 6  1.34128919361936 -6.57841449164917  0.38943760276028
 6  4.48366720132013  2.59372612751275 -1.51870895399540
 6  3.84295356375638  3.79446997069707 -1.13190448474848
 6  2.57348891969197  3.34269212031203 -0.54281304400440
 6  5.83423702900290  2.49038387898790 -2.06330828592859
 6  4.25013063286329  5.23797867366737 -1.08636064946495
 6  6.58134819241924  3.56357204200420 -2.38624310121012
 1 -4.12476696279628  2.19483056315632  0.15192823312331
 1 -5.11588624552455 -0.64022549864987  1.05968071227123
 1 -4.84559139903990  0.59581358105811  2.22739964966497
 1 -2.84551359125913 -1.78111550705070  0.05873895209521
 1 -3.15390638793879  0.57822974007401 -1.36342389328933
 1  0.15730016471647  0.16086639863986  3.75117466556656
 1  1.24453846324632 -0.51013568096810  2.09136426922692
 1 -0.69489815071507 -2.99923738873887  0.00704570687069
 1 -3.35859600490049  1.92829409350935  3.11604159385939
 1 -1.50487170227023  1.59975933983398  3.98835722362236
 1 -2.06142252335234  2.54337815761576  2.69789721152115
 1 -6.41281473237324  2.40487929142914  1.86978921192119
 1 -8.16193596059606  1.12983279247925  1.45947295799580
 1 -7.73563950115012  2.80983706680668  0.60034851505151
 1  1.17159986838684  2.35072710931093  1.45338340564056
 1  0.54158727122712  1.99973679567957  3.49533535773577
 1  1.51666599299930  0.28506915191519 -0.27418278357836
 1  2.13672146434644 -4.65948977937794 -1.90787539723972
 1  0.59434123162316 -4.60473032053205 -1.29113759715972
 1 -7.89383044484448  0.90632086268627 -3.14276021422142
 1  1.64658684758476 -4.52918409810981  1.20201777837784
 1  2.97736400650065 -5.20670787528753  0.45882369726973
 1  4.13408847114712 -3.90597805000500 -2.51293475457546
 1  5.08745984438444 -3.50517936813681 -1.02478609620962
 1  4.51366279937994 -2.28541077367737 -2.76516559015902
 1  4.76434605410541 -0.02510460496050 -2.02116829252925
 1 -9.31934553505351  1.23764121962196 -0.49304199399940
 1 -9.88947708130813  1.28653006870687 -2.42960906090609
 1  3.95117980448045  2.82054543824382  3.49880464616462
 1  6.27497096529653  1.61782393159316 -2.35184399939994
 1  5.16833753355336  5.31418418261826 -0.34958357825783
 1  4.53791581408141  5.66020278597860 -2.13954649954995
 1  3.28543621322132  5.73749335573557 -0.67224896649665
 1  1.36881418951895 -8.24717587468747  1.31338739363936
 1  7.55946839123912  3.33337887778778 -2.86788406170617
 1  6.60717260476047  4.70903641584158 -2.34409676217622

