%nproc=4
%Mem=3GB
# td=(NStates=1) B3LYP/SVP 

TD

0 1
 8 -3.29849675987599 -1.17424247974798 -2.90181083538354
 8  3.13514396919692  3.03221487998800  3.03158742964296
 8  3.76828113631363  1.29427655595560  4.42863730733073
 8  7.94535313821382 -1.47694380858086 -0.88551931373137
 8  6.58549270567057 -3.18435923082308 -1.90357680578058
 8 -2.65725663216322  1.57930341944194  1.45841590209021
 7 -0.24758050425043 -2.37107342164216  0.93207804860486
 7 -2.69936197419742 -1.19841497649765 -0.67174931953195
 7  1.15235678507851  0.12789369906991 -0.62268720592059
 7 -0.90800994649465  1.57739314721472 -0.15334623252325
 6 -3.39351450115011 -1.39744730713071  0.61970894479448
 6 -2.63784241034103 -2.39215336153615  1.63257856465647
 6 -1.26552219391939 -1.96220403440344  1.78677666626663
 6 -0.58543834613461 -1.22585377707771  2.75819383988399
 6  0.84817593019302 -1.17522252325233  2.56678787338734
 6  1.01287397359736 -1.84127056175618  1.30167497149715
 6 -4.76288123472347 -1.95298094679468  0.19688657595760
 6  1.84609920132013 -0.51238156775678  3.25492764726473
 6 -4.89295565696570 -2.01567027542754 -1.14505484598460
 6  2.10929888628863 -1.91283947614761  0.37254953365337
 6  2.12859888178818 -0.89266117831783 -0.58069197069707
 6 -3.61126579647965 -1.43404536983698 -1.73993127652765
 6  3.12720378357836 -0.57548829712971 -1.59712361126113
 6 -1.38402697489749 -0.48479233623362  3.80877638593859
 6 -5.78026325042504 -2.08732521282128  1.23924493009301
 6  2.57783744064406  0.48852622082208 -2.33850846084608
 6  2.00742017441744  0.93376906890689  2.82611925352535
 6  1.37231059755976  0.87828447704770 -1.68001410741074
 6  4.24209955905591 -1.45847527662766 -2.05171480158016
 6 -5.89065340144014 -2.35027711811181 -1.91630507870787
 6  5.52752830383038 -1.00517226242624 -1.25189860676068
 6  3.12646274167417  1.09876827942794 -3.70726723592359
 6  0.63916634073407  2.04751989888989 -1.99841158625863
 6  3.15861450175018  1.76317590309031  3.51744708990899
 6 -0.64469830143014  2.31929656185619 -1.21336662456246
 6 -6.97903182968297 -3.12013577767777 -1.62977153585359
 6  6.73617318691869 -1.94628288338834 -1.37014770477048
 6 -1.45961461626163  3.55440767396740 -1.26922499719972
 6 -2.46977106650665  3.30482096109611 -0.28376628282828
 6 -2.21168344074407  2.07676861036104  0.43719265126513
 6 -1.29470944934493  4.59239549974998 -2.25029679767977
 6 -3.45187582408241  4.21357184008401  0.20039427912791
 6 -2.19160305150515  5.53014843304330 -2.60043377617762
 1 -3.37660615381538 -0.42378786868687  1.11718592319232
 1 -2.51936356275628 -3.45656078107811  1.19072942204220
 1 -3.24692451225123 -2.43430687508751  2.59990937963796
 1 -0.44834013881388 -2.79364812991299  0.04762177217722
 1 -1.92951134083408 -0.52016832033203 -0.91676577897790
 1  1.82560052145215 -0.56692814661466  4.35533763286329
 1  2.73297062996300 -1.03406529782978  3.04880981038104
 1  3.12075088898890 -2.60622220512051  0.20299335253525
 1 -1.97047967726773 -1.12860213421342  4.39319638143814
 1 -0.67775754375438 -0.04633883748375  4.58644500100010
 1 -2.06899621342134  0.45433788048805  3.40216898219822
 1 -5.55963675087509 -1.36562469366937  2.03185747874787
 1 -5.77617637833783 -3.22632673727373  1.66672951925193
 1 -6.63055043184318 -1.84610025342534  0.83566992869287
 1  2.02015815521552  1.29857979987999  1.78744635593559
 1  1.08647859935994  1.40481272557256  3.12645061876188
 1  0.53781203880388  0.31587595739574  0.04670263796380
 1  4.36339205840584 -1.51906496549655 -3.06460206210621
 1  4.01582241204120 -2.59304108330833 -1.73797090509051
 1 -5.86880901930193 -2.25732665726573 -3.12415587938794
 1  5.20240816211621 -0.96125660556056 -0.21384816111611
 1  5.81944338563856 -0.10570756685669 -1.73934841734173
 1  4.30542045354535  0.99685617771777 -3.85277350685069
 1  2.88976472807281  2.24028510721072 -3.45705804120412
 1  2.44543033233323  0.69061355925593 -4.54097724972497
 1  0.83087699769977  2.68526002250225 -2.79794068606861
 1 -7.18409749584958 -3.32728491239124 -0.52428144934493
 1 -7.60346861176118 -3.41368269876988 -2.56657971147115
 1  3.62302603010301  3.47469683068307  3.89670292449245
 1 -0.37619149794980  4.61668294779478 -2.81887978337834
 1 -4.63800238983898  4.29221580338034 -0.22996414791479
 1 -3.80755950565057  3.90571536513651  1.24901571297130
 1 -3.33899221542154  5.40014030513051  0.14323009290929
 1  8.64350004350435 -2.14486764096410 -1.10212084708471
 1 -1.74583750835084  6.21589204630463 -3.25085993819382
 1 -3.54217657055706  5.63705508130813 -2.28649455695569

