%nproc=4
%Mem=3GB
# td=(NStates=1) B3LYP/SVP 

TD

0 1
 8 -3.13405031523152 -1.26676173167317 -2.72530318461846
 8  3.08427888268827  3.09220087858786  3.15370964186419
 8  3.89949425762576  1.39696682498250  4.34037848144814
 8  7.73512211511151 -1.30335644984498 -0.73664442624262
 8  6.79552370877088 -2.93151394629463 -2.14065051315132
 8 -2.77776868336834  1.64033952305231  1.36994705520552
 7 -0.31085683188319 -2.39194550885089  0.95468030883088
 7 -2.70527256525653 -1.23324845984598 -0.51165330993099
 7  1.21628317771777  0.13530444014401 -0.65501043824382
 7 -0.95373451895190  1.42121752965297 -0.10212111001100
 6 -3.47883303300330 -1.30454801720172  0.75784275817582
 6 -2.69333795989599 -2.41945609180918  1.65820112691269
 6 -1.32164780648065 -2.08988680268027  1.84659264786479
 6 -0.57827763006301 -1.23032422412241  2.86387440794079
 6  0.70735184778478 -1.17587258825883  2.46757795239524
 6  0.88510119631963 -1.93156959165917  1.21278608260826
 6 -4.82941788838884 -1.80271592029203  0.29305619291929
 6  1.84257884928493 -0.37595792539254  3.29277143164316
 6 -4.80332669406941 -1.87362607100710 -1.07847818831883
 6  2.04670262666267 -1.87861605380538  0.42755503420342
 6  2.07424344624462 -0.92833474567457 -0.62769667116712
 6 -3.53256792669267 -1.35365733103310 -1.58741602500250
 6  2.97336840004000 -0.75514626292629 -1.68849274817482
 6 -1.37083565576558 -0.55483934093409  3.99064457275728
 6 -5.94533975807581 -2.20711719201920  1.20390139573957
 6  2.52237189408941  0.39768713691369 -2.45848045804580
 6  2.12751218361836  1.06434212621262  2.75172181378138
 6  1.33475684218422  0.87141378997900 -1.88589469546955
 6  4.17777312641264 -1.59057848694869 -2.04235386548655
 6 -5.78344268036804 -2.26248833923392 -2.03079652785279
 6  5.41369692069207 -1.00384212941294 -1.44899831673167
 6  3.26257635303530  1.02487088968897 -3.63697020622062
 6  0.50758318241824  1.99376452335234 -2.03192493759376
 6  3.07083572387239  1.85616520202020  3.57793313851385
 6 -0.55347917951795  2.26788142034203 -1.11182647054705
 6 -6.86288021452145 -3.06564032813281 -1.92413097179718
 6  6.69465903550355 -1.90087834293429 -1.43587427742774
 6 -1.43122177697770  3.41220345354535 -1.19034710941094
 6 -2.44887897729773  3.30749122812281 -0.24573247944794
 6 -2.01885415781578  2.06756769026903  0.43270220222022
 6 -1.24229420782078  4.43874013421342 -2.30417218521852
 6 -3.53695433193319  4.10322080498050  0.17807204690469
 6 -1.88073196439644  5.64318973717372 -2.49468320112011
 1 -3.33457195039504 -0.28186367626763  1.25449965456546
 1 -2.83964559095910 -3.42671779677968  1.39885023412341
 1 -3.18964878467847 -2.43716716111611  2.71919130783078
 1 -0.19738504330433 -3.01620038513851 -0.02270526052605
 1 -1.92271066076608 -0.65813211671167 -0.35509961236124
 1  1.62275023642364 -0.58256971077108  4.33566566566657
 1  2.71528886178618 -1.09540143144314  3.22164709410941
 1  2.71183999789979 -2.74111569446945  0.54381743494349
 1 -1.86061869116912 -1.11430070407041  4.76624368616862
 1 -0.74476424442444 -0.06633083668367  4.51378773527353
 1 -2.19306862066207  0.21153360006001  3.63947271257126
 1 -5.75638642584258 -1.71409954115412  2.25311960496050
 1 -6.04008276897690 -3.42483658825883  1.30176302260226
 1 -6.91210858765877 -1.70265590899090  0.90889725142514
 1  2.51930807020702  0.88780872277228  1.66061367266727
 1  1.07885783728373  1.64161640594059  2.74368234193419
 1  0.38510676827683  0.35203957375738 -0.09671170347035
 1  4.33552927212721 -1.63885694469447 -3.12752835473547
 1  3.88703953375338 -2.61417319651965 -1.55887299529953
 1 -5.42672481088109 -1.88270919551955 -2.92769623342334
 1  5.29657757905791 -0.52153263316332 -0.38831560786079
 1  5.81506294759476  0.00635363926393 -1.85847032953295
 1  3.85192510401040 -0.01906541444144 -4.14818304780478
 1  4.32793854545455  1.77908898759876 -3.41879421482148
 1  2.53414920422042  1.77317181508151 -4.32179533153315
 1  0.78454236423642  2.49728122462246 -2.94609550155016
 1 -7.18182726882688 -3.44384656855686 -0.97536655785579
 1 -7.61974023892389 -3.72119344984498 -2.68886193969397
 1  3.89373310081008  3.51637099809981  3.71852510671067
 1 -0.48682256105611  4.35703698319832 -2.85083297869787
 1 -4.35005359495950  4.12636921872187 -0.63117426892689
 1 -3.81916066576658  3.80541533513351  1.31098190959096
 1 -3.35934425062506  5.22960325142514  0.47558332823282
 1  8.46437213071307 -1.86851000520052 -1.01225186018602
 1 -1.34127705230523  6.25939639673967 -3.36748160036004
 1 -2.92506485938594  6.11728310411041 -2.13703961146115

