%nproc=4
%Mem=4GB
# td=(NStates=1) B3LYP/SVP 

TD

0 1
 8 -5.10199642964296  0.68628406800680 -3.33064285398540
 8  2.98552855835584  2.88761601630163  3.19450552895290
 8  3.32122047064706  0.70860625962596  3.13918580368037
 8  1.56771441094109 -7.35419168926893  1.53480198649865
 8  0.60464535253525 -7.01694811841184 -0.45402338523852
 8  1.56921396949695  3.91055417821782 -0.06983747634763
 7 -2.40716032713271 -1.10816924712471  0.66634365096510
 7 -4.28859374077408  0.77063472997300 -1.14834318911891
 7  1.88121851345135 -0.74091566456646 -0.38793727132713
 7  2.49354489638964  1.89124486998700 -0.63411015771577
 6 -4.75386177737774  1.20623212021202  0.14324012381238
 6 -4.40521791459146  0.24218438373837  1.36234359205921
 6 -2.94563965956596 -0.12092183548355  1.43583559655966
 6 -1.90954005070507  0.48592354955496  2.19529269886989
 6 -0.64133074337434 -0.03787922342234  1.78312899049905
 6 -0.86746093389339 -0.98939199809981  0.85020684008401
 6 -6.23137549364936  1.27480526982698 -0.03576879227923
 6  0.64170277687769  0.08689936643664  2.61917093719372
 6 -6.47913842834283  0.96921617001700 -1.40619634833483
 6 -0.22673892999300 -1.91900063696370  0.02410449194919
 6  1.15020191639164 -1.88642818941894 -0.40780236243624
 6 -5.32442304260426  0.83037125182518 -2.18679599109911
 6  1.94297838303830 -3.06117665606561 -0.79140614991499
 6 -2.12084778567857  1.52758851575158  3.19464385458546
 6 -7.12767026022602  1.70181831103110  1.14208819471947
 6  3.10780711441144 -2.43404335553555 -1.24450569566957
 6  1.16531255855586  1.57599609300930  2.55515915181518
 6  2.99820789608961 -0.98182680828083 -1.08546253445345
 6  1.72637640784078 -4.46218218261826 -0.82089380628063
 6 -7.81136704270427  0.97432907050705 -2.19920830863086
 6  1.92462002760276 -5.20328126272627  0.52085808130813
 6  4.49878548754875 -3.00900936973697 -1.74304353565357
 6  3.83538440904090  0.15872527602760 -1.46706138853885
 6  2.57712833403340  1.61612920112011  3.08872477237724
 6  3.59237361516152  1.43482889438944 -1.22470903820382
 6 -9.07250223362336  0.98317047734773 -1.72133694899490
 6  1.25995105980598 -6.57241389158916  0.55427408640864
 6  4.51711054565457  2.75586234113411 -1.51609869296930
 6  3.73574284268427  3.78566909060906 -1.14103539783978
 6  2.50431200200020  3.27346519761976 -0.51445020772077
 6  5.69961356665667  2.63374821542154 -2.32480443554355
 6  3.91377699749975  5.24984986078608 -1.37099911331133
 6  6.56274633223322  3.65521120592059 -2.58266274317432
 1 -4.33882836893689  2.20728180828083  0.43454649494950
 1 -4.94125878277828 -0.64834631073107  1.34026877107711
 1 -4.61460830073007  0.92503650335033  2.20014692439244
 1 -2.65500454035404 -1.65557295279528 -0.29302622442244
 1 -3.23499449674967  1.08237015411541 -1.53374092499250
 1  0.42359679437944 -0.04596428442844  3.59338888698870
 1  1.50735474487449 -0.55915058245825  2.31144627742774
 1 -0.84648330923092 -2.74723218821882 -0.28186318401840
 1 -3.18068821412141  1.67921918601860  3.46862685238524
 1 -1.74300551565157  1.10973033693369  3.97795618351835
 1 -1.66664304540454  2.59673349314932  2.89660708250825
 1 -6.86936038693869  2.39239804330433  1.92436466946695
 1 -7.38112787978798  0.80350015921592  1.72932994369437
 1 -7.92786872407241  2.04127021012101  0.69778825902590
 1  1.08753146154616  2.18415045164516  1.58934700200020
 1  0.29574268676868  2.25487230923092  3.13726955115512
 1  1.60854518091809  0.33335398039804 -0.38069343464346
 1  2.36996478867887 -5.08302213261326 -1.62812742244224
 1  0.77760955845585 -4.62697254475448 -1.32424090749075
 1 -7.62680374217422  1.03646387698770 -3.21862780098010
 1  1.14804699359936 -4.66180736043604  1.28315589218922
 1  2.91379764986499 -4.99163636813681  1.05145296019602
 1  4.64198926122612 -4.12046949914992 -1.73004646574657
 1  5.34453555195520 -2.73848269846985 -1.04029764736474
 1  4.62333376647665 -2.91051328392839 -2.96063513711371
 1  4.79545916541654 -0.08871096559656 -1.88901507720772
 1 -9.51232483298330  0.96197365286529 -0.73004569436944
 1 -9.73486161976198  0.77322873857386 -2.35373147314731
 1  3.87414210071007  2.90923430713071  3.19775454115412
 1  6.07126059425943  1.61652380158016 -2.74453326832683
 1  4.65649634943494  5.67352011621162 -0.57811643154315
 1  3.91781380388039  5.61566833253325 -2.44350689558956
 1  2.83984165376538  5.54159376577658 -1.07324906650665
 1  1.18812612071207 -8.24788594569457  1.25062111701170
 1  7.28166061046105  3.41604714461446 -3.20423769706971
 1  6.39235112261226  4.62244775697570 -2.20173252575258

