%nproc=4
%Mem=4GB
# td=(NStates=1) B3LYP/SVP 

TD

0 1
 8 -5.35834206420642  0.27408284788479 -3.36287607730773
 8  2.94648465396540  2.86123337803780  3.42159823822382
 8  3.39640798939894  0.62325772477248  2.79731161626163
 8  1.79952759225923 -7.29705597569757  1.56535504180418
 8  0.83556844484448 -7.04382080568057 -0.51362934583458
 8  1.66481352945295  4.03720684348435 -0.10112060466047
 7 -2.34508411951195 -0.96907533773377  0.61350836743674
 7 -4.38442332373237  0.55255292179218 -1.20136849164916
 7  1.73274366596660 -0.65927750075008 -0.45840431803180
 7  2.53545908780878  1.92866861236124 -0.56003274997500
 6 -4.78160455165516  1.17668916591659 -0.00621482168217
 6 -4.43361075387539  0.31775194049405  1.28105546324632
 6 -3.01327642324232 -0.04560430373037  1.35589760276028
 6 -1.96476557325733  0.54979993719372  2.28897206680668
 6 -0.70954756505651 -0.10501593709371  1.82232290989099
 6 -0.97217140494049 -1.09714277317732  0.89987180658066
 6 -6.21603395949595  1.39551734103410 -0.14362957835784
 6  0.60699930653065  0.12601327782778  2.57669668976898
 6 -6.65259577407741  0.92999224762476 -1.37441317001700
 6 -0.19006526262626 -1.98796753365337  0.16254833633363
 6  1.06778367456746 -1.91742128872887 -0.26237781998200
 6 -5.42034263456346  0.59053726842684 -2.18503581508151
 6  1.94645873107311 -2.92268280668067 -0.77161417071707
 6 -2.16960266116612  1.55838159505951  3.25914030423042
 6 -7.06752424562456  1.97275540474047  1.01805579147915
 6  3.15423175687569 -2.32998294949495 -1.21132237733773
 6  1.15684171147115  1.58300679407941  2.53527716361636
 6  2.98128620392039 -0.81937056265627 -0.94298828702870
 6  1.54666843704370 -4.31558752315232 -0.81284300120012
 6 -7.98812471847185  1.01810344794479 -2.08397678547855
 6  1.88108567416742 -5.21187212181218  0.44533052855286
 6  4.45235084408441 -2.91047951675168 -1.88519775107511
 6  3.86073694429443  0.12450185368537 -1.27355203760376
 6  2.61071169236924  1.57104469266927  2.88193409330933
 6  3.63242762056206  1.57019243074307 -1.14626119341934
 6 -9.23602858625863  1.02125428572857 -1.61517633293329
 6  1.38527359205921 -6.62381903210321  0.42030068906891
 6  4.52836167076708  2.64746150105010 -1.55055213831383
 6  3.81913118151815  3.74886541024102 -1.12556385068507
 6  2.63908547934793  3.34284213531353 -0.57736649934993
 6  5.75764937023702  2.51359620022002 -2.17766972207221
 6  4.16078169796980  5.20324520032003 -1.10277229062906
 6  6.65065512311231  3.43610929572957 -2.57919239613961
 1 -4.09223370947095  2.14815589568957  0.21399443974398
 1 -5.09362401930193 -0.42211368746875  1.18750349454945
 1 -4.77707454735474  0.95986998669867  2.26280319001900
 1 -2.90758979887989 -1.54129152465246  0.00530360856086
 1 -3.34576557385739  0.59153107020702 -1.64252180308031
 1  0.63680811551155 -0.40095978397840  3.57555710381038
 1  1.53503751315132 -0.42596726412641  2.03026815961596
 1 -0.83170183108311 -2.78072553755375 -0.08077307500750
 1 -3.18703884918492  1.63579484358436  3.87331732143214
 1 -1.31910312541254  1.34469383328333  3.90265865376538
 1 -1.86633301440144  2.67494131393139  2.93900132193219
 1 -6.45920937183718  2.47292609610961  1.60153238623862
 1 -7.59827959495950  1.14196400560056  1.66873388408841
 1 -7.73611954915491  2.65523160626063  0.52676115631563
 1  0.96563927232723  1.93180521712171  1.49720778807881
 1  0.70545365786579  2.39860668266827  3.24801062526253
 1  1.38080240664066  0.01852249724973 -0.13119848514852
 1  2.10825861806181 -4.86940077047705 -1.65215982568257
 1  0.59301109860986 -4.62152199969997 -1.37560604400440
 1 -7.88879994179418  0.68291852245225 -3.17943388158816
 1  1.30404259315932 -4.58783996369637  1.20148772537254
 1  3.06948321842184 -4.94412161666167  0.72087990289029
 1  4.30989605190519 -3.89250670287029 -2.07226068716872
 1  5.16125722412241 -2.75317416761676 -1.09196281388139
 1  4.78172960606061 -2.48703093569357 -2.80698977257726
 1  4.67365698519852 -0.13487558205821 -1.82090826652665
 1 -9.40501410191019  1.31101855735574 -0.52456514631463
 1 -10.05205333893389  0.99090050575057 -2.13770987098710
 1  3.92432711921192  3.00494387808781  3.46751151685169
 1  5.97135060326033  1.47271942114211 -2.52822163716372
 1  5.03282398219822  5.38924168836884 -0.38138675857586
 1  4.84038606110611  5.62699946564657 -2.13432597749775
 1  3.22180985058506  5.95016462286229 -0.91695343694369
 1  1.52449975807581 -8.28769992709271  1.22420847574757
 1  7.59341178557856  2.87519305920592 -3.08492576587659
 1  6.32360424792479  4.66391190339034 -2.81446379887989

