%nproc=4
%Mem=4GB
# td=(NStates=1) B3LYP/SVP 

TD

0 1
 8 -5.26366259625963 -0.01781634203420 -3.22925271497150
 8  3.15784579007901  2.95066232093209  3.28844492289229
 8  3.26185453405341  0.76053145214521  3.35773765886589
 8  1.66523416291629 -7.19285555565556  1.43495200150015
 8  0.70354524252425 -6.96744316791679 -0.60149813271327
 8  1.59076612471247  3.95111823462346 -0.01690218281828
 7 -2.28715832693269 -0.96904533473347  0.68966598319832
 7 -4.34306918831883  0.55294296079608 -1.18057641244124
 7  1.80383077467747 -0.66366793979398 -0.38725720332033
 7  2.43120866276628  1.83484923042304 -0.63021976867687
 6 -4.73466985818582  1.22471396839684  0.01321712151215
 6 -4.28817621042104  0.30492065736574  1.22242960066007
 6 -2.83887898349835  0.09533979067907  1.36179819281928
 6 -1.92287138383838  0.69692464966497  2.19632280188019
 6 -0.70380699099910  0.02343690819082  1.87899857745775
 6 -0.94955914371437 -0.94839789868987  0.88775059445945
 6 -6.27538989508951  1.31016880618062 -0.15542075747575
 6  0.65320392699270  0.17071774827483  2.58443746384638
 6 -6.62493300780078  0.91710095849585 -1.44729045774577
 6 -0.26483273937394 -2.00517925482548  0.14775685718572
 6  0.96853374957496 -1.90409995659566 -0.48890047224722
 6 -5.34221482178218  0.43863207790779 -2.09035634713471
 6  1.89319340454045 -2.87392793119312 -0.88503551285129
 6 -2.15061076197620  1.65159091599160  3.24044843504350
 6 -7.05019251245125  1.94536266546655  0.98333231913191
 6  3.02305863956396 -2.30244019521952 -1.42303354845485
 6  1.26317234453445  1.62987148054805  2.59203283918392
 6  2.94506258155816 -0.89103772937294 -0.99518350655066
 6  1.55534930513051 -4.36101206560656 -0.93853557045705
 6 -7.85112101810181  0.85726736433643 -2.12816120392039
 6  1.87365493109311 -5.03609454405441  0.35079107460746
 6  4.37882349134914 -2.97391586038604 -1.97428665996600
 6  3.90587145774577  0.14664406790679 -1.49038372077208
 6  2.63454407560756  1.68774636283628  3.08589448934894
 6  3.56318069586959  1.47848325982598 -1.19170573787379
 6 -9.10258524192419  0.88529068936894 -1.62169698499850
 6  1.21859692439244 -6.46190284048405  0.33866252525252
 6  4.51767060166017  2.60785754065407 -1.50062714581458
 6  3.77679694809481  3.73670419411941 -1.07139843414341
 6  2.51855342614261  3.21432928402840 -0.44174293699370
 6  5.81202480778078  2.37062190279028 -2.10858281338134
 6  4.05987160696070  5.18453332913291 -1.23293530693069
 6  6.72746280388039  3.31572725752575 -2.43866834373437
 1 -4.33694818091809  2.10063114321432  0.14766780708071
 1 -4.83567822472247 -0.71379285538554  1.10481522572257
 1 -4.49290613051305  1.03690769046905  2.11909881958196
 1 -2.69589862976298 -1.50507790329033 -0.15758268006801
 1 -3.33700469776978  0.48008992609261 -1.46687423832383
 1  0.57226166086609 -0.10989067706771  3.66100564866487
 1  1.39147315671567 -0.22297696509651  2.11216634943494
 1 -0.79350801170117 -2.67869533453345 -0.02954795249525
 1 -3.11503164846485  1.47213847794780  3.90385037473747
 1 -1.45759697479748  1.33170253415342  3.92934132203220
 1 -1.98102448354835  2.70339415921592  3.03963138493849
 1 -6.55507895879588  3.10112891639164  1.18881111411141
 1 -6.98618838583858  1.19967977717772  1.88290530123012
 1 -8.01785772297230  2.37168325142514  0.49709819001900
 1  1.06348905730573  2.11458349494949  1.55565363266327
 1  0.80615372787279  2.55634245624562  3.12073789798980
 1  1.31099542594259  0.23239388438844 -0.16348171347135
 1  2.18158595079508 -4.87364119451945 -1.63170778047805
 1  0.39594139163916 -4.42635248274828 -1.09467795119512
 1 -7.77644870667067  0.65345557615762 -3.11473741194119
 1  1.51434362326233 -4.42673385308531  1.19726730333033
 1  2.97790406050605 -5.08735594009401  0.67851566646665
 1  4.28681374367437 -4.03884133633363 -1.98548200930093
 1  5.22922402080208 -2.75134398459846 -1.20286390399040
 1  4.53343477657766 -2.43174540714071 -2.94345341894189
 1  4.76136575607561 -0.04982707720772 -2.19866604230423
 1 -9.31042464296430  1.09822727822782 -0.63886657645765
 1 -10.17895602920292  0.63975539123912 -2.05235133513351
 1  4.10526521302130  2.68140152385239  3.58155292099210
 1  5.83028649684969  1.41000314951495 -2.15071388638864
 1  5.09821052085208  5.36673943814381 -0.66182480238024
 1  4.22184420692069  5.46088285398540 -2.19034157905791
 1  3.24024169376938  5.67071667806781 -0.75567730933093
 1  1.43278058615862 -8.07042819991999  1.35742179707971
 1  7.58370081448145  3.15148068796880 -3.04503177647765
 1  6.54134602210221  4.40010552275228 -2.55055740824082

