%nproc=4
%Mem=3GB
# td=(NStates=1) B3LYP/SVP 

TD

0 1
 8 -3.30877778797880 -1.20906596209621 -2.90809146344634
 8  2.88363881868187  3.23133479197920  3.21665593649365
 8  3.63590789898990  1.45722285058506  4.34967941154115
 8  7.61472007490749 -1.63329944414441 -0.68414917671767
 8  6.60049420582058 -3.12769356425643 -1.91942839093909
 8 -2.53350425692569  1.58462395149515  1.44908496899690
 7 -0.27539328552855 -2.46976329062906  0.90772561336134
 7 -2.52039407740774 -1.43877901290129 -0.64095624022402
 7  1.21068261766177  0.11118202790279 -0.71078601580158
 7 -0.99404855035504  1.51305671357136 -0.21037193509351
 6 -3.26448159785979 -1.42473003540354  0.61650862476248
 6 -2.67884651075107 -2.42365651185118  1.67183249004901
 6 -1.11748739043904 -2.05851366536654  1.82677066566657
 6 -0.44521432373237 -1.27590878257826  2.78554657515752
 6  0.84860597319732 -1.22320732173217  2.44893608820882
 6  0.94221690789079 -1.94391082578258  1.20811561556156
 6 -4.70566551315131 -1.86908255695570  0.30290717801780
 6  1.94029862126213 -0.41727205680568  3.08860101460146
 6 -4.80046640804080 -1.92970167856786 -1.13551389188919
 6  2.08400635703570 -1.93187137933793  0.29960223892389
 6  2.12508853075308 -0.81844375657566 -0.62998690019002
 6 -3.52061673157316 -1.43822578787879 -1.73987127052705
 6  3.02024308750875 -0.62112286058606 -1.80774467336734
 6 -1.13707227942794 -0.50018387538754  3.85810131843184
 6 -5.65793101720172 -2.01677815811581  1.32256326192619
 6  2.52835249214922  0.53705107330733 -2.45269987998800
 6  1.87118655105511  1.08615430743074  2.71899854145415
 6  1.34445781228123  0.95734238283828 -1.79258536453645
 6  4.22212756185619 -1.44712414151415 -2.15229485958596
 6 -5.87225156125613 -2.40448253865387 -1.98957240544054
 6  5.37841339233923 -1.12591433663366 -1.10690410731073
 6  3.10222031743174  1.13269167176718 -3.65352186138614
 6  0.52363478757876  2.03321846874687 -2.06332807790779
 6  2.90352899319932  1.91372095759576  3.52958830403040
 6 -0.58242207380738  2.30284491669167 -1.18925421332133
 6 -6.88926285278528 -3.27260102420242 -1.64005256395640
 6  6.55860543014301 -2.13975223032303 -1.24413510351035
 6 -1.46654530933093  3.57983021622162 -1.34001207590759
 6 -2.38572266166617  3.27996847584758 -0.22751065726573
 6 -2.02511478387839  2.10017095059506  0.43772270427043
 6 -1.34140411881188  4.60840710091009 -2.29619138713871
 6 -3.44774541104110  4.27222770567057  0.33152739243924
 6 -1.98775266646665  5.77235265346535 -2.29984371717172
 1 -3.07265575877588 -0.35621111101110  1.04933913851385
 1 -2.80464209060906 -3.40340546554655  1.30172052115212
 1 -3.11757157695770 -2.37980142454245  2.78779816851685
 1 -0.42657796259626 -2.80790955605561 -0.05513850385038
 1 -1.98028641834183 -0.38289459295930 -0.68730283268327
 1  1.81951991339134 -0.38061951575158  3.95972807190719
 1  2.97810514341434 -0.70793268456846  3.01372630203020
 1  2.84156297019702 -2.67270885378538  0.50955400860086
 1 -2.02033466276628 -1.17341661566157  4.18156521832183
 1 -0.47662743074307 -0.47590179377938  4.70880723722372
 1 -1.62759207300730  0.44766721342134  3.59072783808381
 1 -5.50125091229123 -1.22365049624962  2.05254954795480
 1 -5.83583234393439 -3.07623172777278  1.78801164746475
 1 -6.73333070987099 -1.83584922832283  0.89299566126613
 1  2.23405954535454  1.35278522042204  1.65361297259726
 1  0.82845279677968  1.62461470577058  2.88754672837284
 1  0.13556181378138  0.07545191499150 -0.23171520382038
 1  4.69299501870187 -1.38155121412141 -3.20038564046405
 1  3.95982681248125 -2.54901668086809 -1.98395550355036
 1 -5.84250638903890 -2.12452337693769 -3.17989145294529
 1  5.02814073537354 -1.16923740364036 -0.18644542084208
 1  5.81758319961996 -0.26017301340134 -1.37955243774377
 1  3.92524243574357  0.40485697779778 -4.06551478097810
 1  3.92362811441144  2.04251533023302 -3.29884221962196
 1  2.39960574987499  1.31899639753975 -4.54777792979298
 1  0.82776668666867  2.60008150465047 -2.95612650465046
 1 -6.99802888898890 -3.63649583348335 -0.68206722792279
 1 -7.41795005990599 -3.62096342684268 -2.49578263176318
 1  3.45296902440244  3.64869423042304  3.87680093429343
 1 -0.67763164196420  4.25232651215121 -3.22451034643464
 1 -4.27746633623362  4.35300188198820 -0.35418657015702
 1 -3.71106985668567  4.00525531913191  1.49061987338734
 1 -2.98033634983498  5.30474076517652  0.59227499739974
 1  8.33345903940394 -2.12593574777478 -0.85438607360736
 1 -1.78136106070607  6.49278973607361 -2.87832268446845
 1 -2.73832618551855  6.10121149694969 -1.64406031353135

