%nproc=4
%Mem=3GB
# td=(NStates=1) B3LYP/SVP 

TD

0 1
 8 -3.22642955315532 -1.37824287978798 -2.77198785308531
 8  3.23270372517252  3.03266492499250  3.11896616751675
 8  3.47990229842984  1.38797592589259  4.64647909150915
 8  7.70142874577458 -1.63299941414141 -0.74905566736674
 8  6.56018017441744 -2.96872766766677 -2.05260170827083
 8 -2.58609951645164  1.75552104120412  1.47541760226023
 7 -0.39754550075007 -2.32465878017802  0.86977181798180
 7 -2.67190922892289 -1.27650278527853 -0.53370551515152
 7  1.09934148354835  0.07829873957396 -0.86029096629663
 7 -1.04880402590259  1.45835124302430 -0.25793669156916
 6 -3.44186933663366 -1.37046460886089  0.73368034193419
 6 -2.65304393049305 -2.31660580678068  1.77446275307531
 6 -1.26027166886689 -1.95720353435344  1.83468145674567
 6 -0.62527232953295 -1.23668486018602  2.91692971347135
 6  0.71137224982498 -1.13333833483348  2.41270246484648
 6  0.90225291149115 -1.74331076577658  1.20017482148215
 6 -4.75149009560956 -1.92709835853585  0.27157404470447
 6  1.85547013841384 -0.42048237783778  3.16418857335734
 6 -4.76919328072807 -2.10855956435644 -1.04664500500050
 6  2.06351430783078 -1.84577276947695  0.20112239093909
 6  2.15991201310131 -0.83696560876088 -0.74901880338034
 6 -3.48260293019302 -1.53638560386039 -1.59555683908391
 6  3.02840390359036 -0.68851960026003 -1.77144104300430
 6 -1.33186175837584 -0.52185604260426  3.98098360666067
 6 -5.79779500360036 -2.39687616791679  1.22489349494949
 6  2.59418907580758  0.47828519671967 -2.53641825182518
 6  1.94280371277128  1.09610530253025  2.83979062066207
 6  1.42788615511551  0.96628327692769 -1.86618272427243
 6  4.22001735083508 -1.53087251635164 -2.07272690279028
 6 -5.83674801090109 -2.48487057745775 -2.00258370657066
 6  5.48614416541654 -1.03717546274627 -1.23762717961796
 6  3.17616771217122  1.04981338393839 -3.70564707390739
 6  0.48913133723372  2.02040718761876 -2.07522926802680
 6  2.97737637793779  1.81640122562256  3.63662900810081
 6 -0.65132896449645  2.30318495069507 -1.23420870877088
 6 -6.87127105360536 -3.40784454855486 -1.77755631433143
 6  6.66232580218022 -1.95845410051005 -1.41792248224822
 6 -1.37112576737674  3.57042927612761 -1.29725780048005
 6 -2.17904199359936  3.50160063906391 -0.24978288448845
 6 -2.02872514491449  2.21257219071907  0.47463639563956
 6 -1.17484746314631  4.62222848304831 -2.30423219121912
 6 -3.28727936443644  4.35755623852385  0.34580882058206
 6 -1.97952184338434  5.77069248744874 -2.41118485128513
 1 -3.58750724392439 -0.38669415931593  1.05229943454345
 1 -2.73004463086309 -3.31320644564456  1.28027837693769
 1 -3.11750156995700 -2.07733117751775  2.66177556625663
 1 -0.74545985078508 -2.79337810291029  0.00351736173617
 1 -2.13566195589559 -0.53284958845885 -0.75864996739674
 1  1.82644060546055 -0.45257671147115  4.34676677577758
 1  2.63119045194519 -0.91852374367437  2.85972090149015
 1  2.87374618851885 -2.70042162506251  0.33534658785879
 1 -1.96383901320132 -1.28943821782178  4.50397745954595
 1 -0.58845861386139 -0.10453465706571  4.51595795229523
 1 -1.82342165596560  0.23265571227123  3.53629239453945
 1 -5.74767555475548 -1.94723285448545  2.23101739473947
 1 -5.52103086378638 -3.45277938253825  1.53183602990299
 1 -6.81382875967597 -1.96659230263026  0.88691505320532
 1  2.14542068146815  1.09041898379838  1.83045065636564
 1  0.97687763926393  1.68957120142014  3.00052802650265
 1  0.31872012961296  0.36926129592959 -0.33834586688669
 1  4.55662138133813 -1.38341140014001 -3.15841144304430
 1  3.96971780158016 -2.55630740994099 -1.86331343934393
 1 -5.75670780918092 -2.17553847844784 -3.06051951575158
 1  5.23763168446845 -0.92704318421842 -0.15495227152715
 1  5.82793423472347 -0.05097209330933 -1.54980946344634
 1  4.20402031353135  0.53297979007901 -3.76350457995800
 1  3.46229198079808  2.08749982868287 -3.41127346274627
 1  2.71889767906791  0.93845834373437 -4.67296044804480
 1  0.71100501050105  2.94168566506651 -2.75352624462446
 1 -7.07356644274427 -3.56612879677968 -0.84744376557656
 1 -7.51306957185719 -3.72671400190019 -2.56228928242824
 1  4.07693142064206  3.20563992499250  3.66795004920492
 1 -0.58518239703970  4.28071935143514 -3.13162105750575
 1 -4.24717330693069  4.36605318711871 -0.23046419791979
 1 -3.59926867656766  3.70922571617162  1.18858967036704
 1 -3.06809512571257  5.34285457655766  0.64295006490649
 1  8.42305799929993 -2.16502965716572 -1.00484111911191
 1 -1.82223514811481  6.58271872897290 -3.11947679987999
 1 -2.97359971287129  6.04928630443044 -1.93359926742674

