%nproc=4
%Mem=3GB
# td=(NStates=1) B3LYP/SVP 

TD

0 1
 8 -3.14694160436044 -1.31246630213021 -2.82899355365537
 8  3.01033148794879  3.14609626812681  3.10312458335834
 8  3.60902521072107  1.49891702000200  4.34343878747875
 8  7.69940854375437 -1.64654076827683 -0.71606236803680
 8  6.57659181558156 -3.00875167006701 -2.04886133423342
 8 -2.62671357785779  1.57228271737174  1.40770083058306
 7 -0.30756650285029 -2.41169748404840  0.97042188298830
 7 -2.68004004200420 -1.09238437343734 -0.57734987958796
 7  1.14803635303530  0.06598750845085 -0.67816275347535
 7 -0.99555870137014  1.45815122302230 -0.27598849674967
 6 -3.37356250595059 -1.21397896029603  0.60650762466247
 6 -2.59036766286629 -2.27571171737174  1.66968227502750
 6 -1.25621126282628 -2.01275908990899  1.88350633923392
 6 -0.54021382368237 -1.16984817651765  2.84349236973697
 6  0.80625173777378 -1.25151015201520  2.46279747434743
 6  0.99658234443444 -2.04153058775878  1.20012481648165
 6 -4.62697764436444 -1.90073572227223  0.23817070437044
 6  1.80744533593359 -0.49651998159816  3.10238239273927
 6 -4.72680904230423 -2.14833354175418 -1.09735007550755
 6  2.04683263966397 -1.99427761996200  0.33381566026603
 6  2.03591961386139 -1.01046295849585 -0.68239214071407
 6 -3.46230089999000 -1.43339530483048 -1.63546082948295
 6  3.04771583478348 -0.68754950325032 -1.85471937083708
 6 -1.22404097629763 -0.54573843084308  3.88452396069607
 6 -5.67030225432543 -2.22495897619762  1.20120112571257
 6  2.50660031693169  0.50950831903190 -2.41377598759876
 6  1.88120755315532  1.07437312931293  2.69247588918892
 6  1.34687805430543  0.93276992559256 -1.74136024202420
 6  4.19867521662166 -1.45587501660166 -2.10401003110311
 6 -5.82609694579458 -2.49765185558556 -2.01280472867287
 6  5.44705025602560 -1.07357910311031 -1.19458287518752
 6  3.10812090749075  1.18773717631763 -3.60086659585959
 6  0.54016644074407  2.04196934383438 -2.06860860596060
 6  2.85825446574657  1.90860044554455  3.46785213041304
 6 -0.53414724632463  2.34829946214621 -1.20864615251525
 6 -6.96237016351635 -3.29794355845585 -1.64115267396740
 6  6.51330089968997 -1.97753600870087 -1.30858154815482
 6 -1.40335899069907  3.58877111031103 -1.24972304700470
 6 -2.32699678907891  3.34432491149115 -0.18910681688169
 6 -1.95505777817782  2.07638857235724  0.54561349334933
 6 -1.30683066146615  4.62450871107111 -2.25340710871087
 6 -3.30695133163316  4.32096257915792  0.19775401510151
 6 -1.98087197839784  5.76180159835984 -2.27324105690569
 1 -3.61030952415242 -0.39524501440144  1.17887209180918
 1 -2.83745537193719 -3.21081620662066  1.33766411551155
 1 -3.13006282608261 -2.27023046744674  2.72636202490249
 1 -0.50485579037904 -2.78983774887489  0.06940395039504
 1 -2.08318670837084 -0.25712201570157 -0.63280738313831
 1  1.60110807220722 -0.44083553735374  4.27261936103610
 1  2.72631996489649 -1.00378226952695  3.23536846624662
 1  2.80506932083208 -2.89487107000700  0.51817487068707
 1 -1.87139976927693 -1.24717399139914  4.42049911171117
 1 -0.44549431743174 -0.09969417301730  4.45751210771077
 1 -1.86994630843084  0.43350579727973  3.47070583588359
 1 -5.59334012121212 -1.50120825202520  2.18989328232823
 1 -5.72442120282028 -3.15181928652865  1.61937478377838
 1 -6.66707408420842 -1.96984262766277  0.92856921862186
 1  2.03976011541154  1.11922186408641  1.51420903220322
 1  0.79935988748875  1.43248549284928  2.88588656235624
 1  0.19032729032903  0.28840321012101 -0.18531056335634
 1  4.48447416661666 -1.53541660066007 -3.01076667856786
 1  4.08077890769077 -2.43851563076308 -1.85146225422542
 1 -5.79222136053605 -2.35299622422242 -3.08479194299430
 1  5.22831075237524 -1.13739421932193 -0.21745852215221
 1  5.74877631893189  0.06196920082008 -1.25972045454545
 1  4.22954286578658  0.72607910001000 -3.58197642714271
 1  3.25004075567557  2.17638871757176 -3.10035237063706
 1  2.62422821212121  1.04457895579558 -4.54509766176618
 1  0.75853976397640  2.60048154465447 -2.99139003100310
 1 -7.17656674277428 -3.65212739663966 -0.60566958815882
 1 -7.67937620252025 -3.53263459395940 -2.33056611011101
 1  3.74254798229823  3.65602496349635  3.52466572077208
 1 -0.63473735253525  4.26209748924892 -2.96465436083608
 1 -3.80661925152515  4.66227280908091 -0.75407655915592
 1 -4.01634038373837  3.97032182578258  1.17697850925093
 1 -2.46888520472047  5.24540483158316  0.65241101100110
 1  8.29941563506351 -2.39458261246125 -0.99595023002300
 1 -1.80536346094609  6.51864232133213 -3.12144699689969
 1 -2.63628598149815  6.21451282708271 -1.43893980148015

