%nproc=4
%Mem=4GB
# td=(NStates=1) B3LYP/SVP 

TD

0 1
 8 -5.21565779577958  0.04649008860886 -3.23899368906891
 8  3.04803480898090  2.81224847954795  3.21558763716372
 8  3.49352770137014  0.56723212221222  3.14405629072907
 8  1.40249788928893 -7.09724599469947  1.52292079837984
 8  0.45491037903790 -6.87994441804180 -0.52496047894789
 8  1.70678772687269  4.00803392619262  0.09145865326533
 7 -2.22617222832283 -0.97777620782078  0.60359737633763
 7 -4.22124700610061  0.48745641214121 -1.26810516531653
 7  1.85397578917892 -0.67034860786079 -0.31844032163216
 7  2.53734927682768  1.91717746324632 -0.49619636633663
 6 -4.72725911711171  1.09297079407941  0.10114591439144
 6 -4.35498289108911  0.24285445074507  1.26494385208521
 6 -2.89898499409941 -0.03268301160116  1.34632664566457
 6 -1.98801789848985  0.60311526872687  2.20261343094309
 6 -0.66994360466047 -0.00458589408941  1.96152683028303
 6 -0.92531671947195 -0.98002106100610  0.95621744114411
 6 -6.26189854595460  1.28986677597760 -0.22503771917192
 6  0.62621122772277  0.11599227572757  2.68892791289129
 6 -6.55301581608161  0.83552280068007 -1.37922365106511
 6 -0.07348360446045 -2.02178091499150  0.27997007850785
 6  1.20597749394940 -1.90978052465246 -0.24666624882488
 6 -5.32564316461646  0.37057527222722 -2.07739505100510
 6  1.96064014921492 -2.91680221862186 -0.93415042434243
 6 -2.12997869876988  1.83456921382138  3.10732512271227
 6 -7.09771726492649  2.05104323352335  0.81264525042504
 6  3.04086041974197 -2.24424437563756 -1.47083832893289
 6  1.21885791309131  1.45369386278628  2.68094173007301
 6  3.00316839213921 -0.87617624322432 -1.02947693589359
 6  1.55217898809881 -4.34877084148415 -0.88175989288929
 6 -7.92236814281428  0.74276591419142 -2.10492888068807
 6  1.63983154875488 -5.03383431803180  0.41830782628263
 6  4.29466507550755 -2.91942041084108 -2.06981621292129
 6  3.86071694229423  0.15809521302130 -1.42476715911591
 6  2.67106772797280  1.47688527672767  2.99552545244524
 6  3.71064544234423  1.52229764126413 -1.08690525782578
 6 -9.11915689908991  0.75224738503850 -1.55760057535754
 6  1.14355942064206 -6.46795344554455  0.35597425642564
 6  4.48367720232023  2.66674342924292 -1.55825290839084
 6  3.85852512091209  3.87332785648565 -1.05625691999200
 6  2.51524309510951  3.33429128022802 -0.54756351905191
 6  5.81786539183918  2.61290613121312 -2.24377633273327
 6  4.22935855565557  5.33985886168617 -1.23045505890589
 6  6.53148320592059  3.55141082588259 -2.66078055495550
 1 -4.17492197829783  2.28364944504450  0.04933797409741
 1 -5.04982963986399 -0.72837431353135  1.12757750195019
 1 -4.76775361526153  0.63708770847085  2.17131404110411
 1 -2.60321936183618 -1.45186258175818 -0.21444836663666
 1 -3.20530152745275  0.62409432653265 -1.50486803770377
 1  0.24694912961296 -0.20402009000900  3.68941848994900
 1  1.47464147354735 -0.69238390579058  2.57133226602660
 1 -0.67555621652165 -3.07345481048105  0.08020302260226
 1 -3.21295144044404  1.99630089418942  3.20534052375238
 1 -2.03603481858186  1.73693305720572  4.21902028992899
 1 -1.78299468056806  2.66919073887389  2.58891631343134
 1 -6.72857630853085  2.94862366586659  1.30099233223322
 1 -7.36918668566857  1.47557736693669  1.71814882558256
 1 -8.07438337553755  2.55566164926493  0.24713319351935
 1  1.08888159655966  1.72768480508051  1.67915598289829
 1  0.59708282078208  2.10774759675968  3.22683850805080
 1  1.50199452585259  0.15213585858586 -0.11241660696070
 1  2.18391618381838 -5.13617744814481 -1.50135474517452
 1  0.56648844634463 -4.31291113861386 -1.30707919131913
 1 -7.81027208900890  0.55705593619362 -3.24339027722772
 1  0.83547573647365 -4.72099327902790  1.18480605720572
 1  2.58368463856386 -4.94169137363736  0.73133094799480
 1  4.17348241054105 -4.04088154035404 -2.31531499259926
 1  5.24436553495350 -2.95101395159516 -1.58140175777578
 1  4.68731016411641 -2.14770700330033 -2.91451052465247
 1  4.73561318081808 -0.00908300280028 -2.15300147584759
 1 -9.32496609710971  1.14472192769277 -0.44109679947995
 1 -10.02688082168217  0.56512792849285 -2.24811091109111
 1  3.91351603810381  2.76803018671867  3.35391015671567
 1  5.99612308050805  1.58098024722472 -2.15793460846085
 1  5.05567626742674  5.54779754395439 -0.71673029292929
 1  4.50180220272027  5.65515228092809 -2.20797334223422
 1  3.42370003960396  6.00870047644765 -0.78519026062606
 1  1.07487479557956 -7.89368052515252  1.38534458935894
 1  7.56304874927493  3.46344188408841 -2.90448772207221
 1  6.18529041654165  4.67994350655066 -2.55188754125413

