%nproc=4
%Mem=3GB
# td=(NStates=1) B3LYP/SVP 

TD

0 1
 8 -3.37853476367637 -1.25290034553455 -2.80369102340234
 8  3.13532398719872  3.06969862836284  2.88730300120012
 8  3.54910921912191  1.52141927022702  4.41583602720272
 8  7.72227082998300 -1.51919803400340 -0.42963372517252
 8  6.90778493489349 -2.77305810071007 -2.11665811391139
 8 -2.59896080258026  1.64233972307231  1.47979804030403
 7 -0.24744049024903 -2.37045335963596  0.88331317211721
 7 -2.77812985098510 -1.36097123212321 -0.53446559115912
 7  1.17294884428443  0.06402731243124 -0.80517545474547
 7 -1.04758390389039  1.35650105800580 -0.38370926882688
 6 -3.42382753245325 -1.40269783218322  0.67445441934193
 6 -2.77660628672867 -2.35445959215922  1.62155746254625
 6 -1.23172881458146 -1.99277709170917  1.81391938053805
 6 -0.55157495979598 -1.33854504620462  2.85147316781678
 6  0.73784489708971 -1.14713971497150  2.51463265786579
 6  0.99734242044204 -1.88920535523552  1.21808661266127
 6 -4.79751469806981 -1.90965661436144  0.39893678097810
 6  1.82621721312131 -0.30031036063606  3.14179633413341
 6 -4.79554591599160 -1.99344805320532 -0.96134647514751
 6  2.04633258965897 -1.88972716491649  0.21206348504851
 6  2.12119814171417 -0.89485139733973 -0.73549745124513
 6 -3.63773844374437 -1.53620558585859 -1.69214649804980
 6  3.10294135733573 -0.72038278657866 -1.86542044094409
 6 -1.30631920412041 -0.72222607960796  4.01048655695570
 6 -5.88171339543954 -2.24331081138114  1.32035304090409
 6  2.65327498439844  0.45469283748375 -2.52220683068307
 6  1.85424485688569  1.10464615661566  2.62894953655366
 6  1.45484885138514  0.89096574517452 -1.87849395539554
 6  4.36956230533053 -1.51449087818782 -2.00670030013001
 6 -5.96379071517152 -2.34316640704070 -1.89670311851185
 6  5.42986853785379 -1.07972971817182 -1.12635605250525
 6  3.22086218161816  1.03999240184018 -3.72441895109511
 6  0.52493491759176  2.01730687758776 -2.02727447254725
 6  2.95374401470147  1.84417400290029  3.43513885908591
 6 -0.62903673527353  2.20576520872087 -1.30139542744274
 6 -7.15121904840484 -3.12297606170617 -1.68084664336434
 6  6.75473504310431 -1.83987224232423 -1.34595528552855
 6 -1.44813346814681  3.43539577277728 -1.22426050075007
 6 -2.21223531293129  3.40620109910991 -0.18106601280128
 6 -1.98835110751075  2.02503343684368  0.41484041604160
 6 -1.21474145254525  4.61121738193819 -2.22732450045005
 6 -3.29555019151915  4.24750523342334  0.30498473817382
 6 -1.79762365356536  5.76428184638464 -2.14820855365537
 1 -3.39495798899890 -0.28323381328133  1.10231443604360
 1 -3.11714334073407 -3.19281440644064  1.24298464756476
 1 -2.99748956875688 -2.16459990439044  2.69393878257826
 1 -0.34436974177418 -2.72756152125213 -0.11814480448045
 1 -2.19256764646465 -0.43774007750775 -0.56877097949795
 1  1.76435439683968 -0.27859931373137  4.14991709080908
 1  2.72520985388539 -0.62620451175118  2.88779370877088
 1  2.61400021392139 -2.79058064096410  0.32188524172417
 1 -1.88048067736774 -1.56820609460946  4.26676373817382
 1 -0.64312408040804 -0.17665186878688  4.68184454095410
 1 -2.01236054985498  0.01310375707571  3.60051881718172
 1 -5.87228801600160 -1.34295242644264  2.01575586858686
 1 -5.63108186888689 -3.16615071967197  1.81361420772077
 1 -6.86251362816282 -2.29239488288829  0.89602596429643
 1  2.12515865526553  1.35137507940794  1.51560917221722
 1  0.75239519101910  1.59061130543054  2.93004097779778
 1  0.17020527812781  0.16846121592159 -0.29956198849885
 1  4.45632135133513 -1.50133319231923 -3.28505410731073
 1  4.44182501230123 -2.56782856205621 -1.55376248424842
 1 -5.87487962636264 -1.91796272087209 -3.00827429122912
 1  5.23249117041704 -1.21661214111411  0.00645386908691
 1  5.77732917421742 -0.13764076017602 -1.01073555605561
 1  3.99286919841984  0.19011550365036 -4.20141837133713
 1  3.96811256285629  1.78062914161416 -3.35435777117712
 1  2.48862465176518  1.15470996889689 -4.54709786178618
 1  0.94917882788279  2.90968246474647 -2.77717860986099
 1 -7.36156524262426 -3.56488867276728 -0.67071609280928
 1 -7.90210847574757 -3.10569189968997 -2.62001505500550
 1  3.80253398089809  3.48512787378738  3.46345960016002
 1 -0.55274915371537  4.17075835533553 -3.10572846824682
 1 -3.72256084568457  4.55903248504851 -0.74788594009401
 1 -4.15251400110011  3.57987278087809  0.91413222462246
 1 -2.89575789198920  5.12660295139514  0.80773654355436
 1  8.54141983548355 -2.01395454965497 -0.68740937593759
 1 -1.77273019761976  6.57516797389739 -2.94777963016302
 1 -2.47398975187519  6.26662803860386 -1.17360326782678

