%nproc=4
%Mem=3GB
# td=(NStates=1) B3LYP/SVP 

TD

0 1
 8 -3.30272718291829 -1.25160021552155 -2.91195184948495
 8  2.99457991279128  3.10643230173017  2.86905117601760
 8  3.32176648484848  1.65976310461046  4.70431487508751
 8  7.66614521742174 -1.62158827302730 -0.73997475927593
 8  6.50542469886989 -3.19824061896190 -1.90601704980498
 8 -2.48273918041804  1.69157464656466  1.54129418991899
 7 -0.26601234743474 -2.34930124442444  0.90939578037804
 7 -2.64645668366837 -1.16473160816082 -0.61478362296230
 7  1.15729727912791  0.04224513421342 -0.79706464366437
 7 -0.88926807230723  1.54415982388239 -0.11360225812581
 6 -3.33473862356236 -1.32952051445145  0.71884885878588
 6 -2.62819144524452 -2.34237838403840  1.59441474827483
 6 -1.17837347904791 -2.08822663666367  1.86744473307331
 6 -0.53992379467947 -1.33998519021902  2.78813683418342
 6  0.84223533613361 -1.22818781978198  2.49939113371337
 6  1.01071375757576 -1.83090952565257  1.23431823582358
 6 -4.66809175577558 -1.86463211191119  0.24943183048305
 6  1.80903549494949 -0.40780110971097  3.19969212371237
 6 -4.76591295269527 -2.08925763416342 -1.08061840234023
 6  2.08693665006501 -1.87871606380638  0.26749902860286
 6  2.14909093099310 -0.94028594079408 -0.71906580808081
 6 -3.48194286418642 -1.46856882218222 -1.70822810621062
 6  2.99793085628563 -0.69792054035404 -1.88316221512151
 6 -1.29027759996000 -0.61085494249425  3.88816432473247
 6 -5.68156338043804 -2.29318579887989  1.30639164476448
 6  2.57798745564556  0.38894626282628 -2.56559116911691
 6  1.93669310171017  1.06051174317432  2.67967460906091
 6  1.36748011451145  0.98845549414942 -1.81960806680668
 6  4.22396774587459 -1.46585601470147 -2.11297092719272
 6 -5.79612394849485 -2.49089117951795 -1.96490993919392
 6  5.43917946894689 -1.07424917011701 -1.14236765366537
 6  3.13671376677668  1.08605700830083 -3.89199570877088
 6  0.61340376447645  2.09564471137114 -1.99999174427443
 6  2.84833347364736  1.92366195169517  3.45805115031503
 6 -0.54124795639564  2.35964059625963 -1.17512280018002
 6 -6.85980990749075 -3.34667843194319 -1.78908746744674
 6  6.49910948054805 -2.04641289638964 -1.28530922092209
 6 -1.40453910871087  3.55682791599160 -1.23624169886989
 6 -2.22960705010501  3.40461094009401 -0.09571747794779
 6 -1.88223049544954  2.16521745524552  0.53464239623962
 6 -1.40979095749575  4.60266652685269 -2.23085485348535
 6 -3.35534617111711  4.33759424232423  0.35533977367737
 6 -2.00867475867587  5.74796021422142 -2.22951668446845
 1 -3.50141863506351 -0.30443593349335  1.09608381298130
 1 -2.70049167556756 -3.23924904990499  0.93510385948595
 1 -3.16322614241424 -2.32211565596560  2.45270465916592
 1 -0.38557386218622 -2.97693645874587  0.16654366436644
 1 -1.73318170787079 -0.50218652215222 -0.74111821422142
 1  1.55679364076408 -0.23179463326333  4.31605370447045
 1  2.73336066896690 -0.90522241354135  3.27571250065006
 1  2.83813262716272 -2.79696127902790  0.00382343554355
 1 -1.96645927522752 -1.21347062106211  4.55144220602060
 1 -0.53880364836484 -0.08115231883188  4.60464682118212
 1 -1.86046536033603  0.31941438813881  3.33515228052805
 1 -5.89637042424242 -1.40328846004600  2.17776206920692
 1 -5.73886264696470 -3.20253435803580  1.71104395069507
 1 -6.48329570637064 -2.12449809320932  0.77519388108811
 1  2.07516365576558  0.83526346824683  1.64987259855986
 1  0.96398635013501  1.47553979827983  2.82549052275228
 1  0.44321257885789  0.38781315111511 -0.15947798009801
 1  4.60361608080808 -1.52845590459046 -3.06459206110611
 1  3.99382021182118 -2.56814859405941 -2.01806891489149
 1 -5.65666780518052 -2.19376030063006 -2.88193165696570
 1  4.99937785908591 -1.32580306020602 -0.13602037833783
 1  5.68641008230823 -0.04133112921292 -1.12019650215022
 1  3.63260317181718  0.38035452755276 -4.57203543304330
 1  3.71460721232123  1.92966404510451 -3.57691002640264
 1  2.04323011231123  1.40523502140214 -4.40146329832983
 1  0.68616252625263  2.82511400790079 -2.62057294929493
 1 -7.27109619571957 -3.86012819671967 -0.83736275747575
 1 -7.66239450435044 -3.62950428092809 -2.65466852035203
 1  3.77760148764877  3.60324968596860  3.48773202740274
 1 -0.78497237603760  4.24351563106311 -3.22842073747375
 1 -4.10090868046805  4.41968855065507 -0.27277842934293
 1 -3.79125787548755  3.90143493709371  1.29055986738674
 1 -2.96430474667467  5.38905919701970  0.51564733463346
 1  8.37280297379738 -2.28806196039604 -0.97364799979998
 1 -1.87477040164016  6.41199165626563 -3.21119597179718
 1 -2.68589094199420  6.13834521032103 -1.49322523002300

