%nproc=4
%Mem=4GB
# td=(NStates=1) B3LYP/SVP 

TD

0 1
 8 -5.56773300330033 -0.00369492989299 -3.32052184188419
 8  3.15147515301530  2.95083233793379  3.29923600200020
 8  3.36515486408641  0.72156755575558  2.96968885398540
 8  1.33888152765277 -7.12202847294729  1.54954346064606
 8  0.47266215421542 -6.95825224882488 -0.64293227612761
 8  1.79522657075708  3.94243736653665  0.15924543194319
 7 -2.31474108520852 -1.03966239643964  0.56539355595560
 7 -4.35055993739374  0.45848351485149 -1.34058241304130
 7  1.90318070967097 -0.61613318631863 -0.24217269486949
 7  2.54587012891289  1.88998474397440 -0.51353810051005
 6 -4.79962635383538  1.07395889288929  0.00245604540454
 6 -4.39856724952495  0.19533969926993  1.15385274297430
 6 -2.93650874647465 -0.01991173447345  1.38346035903590
 6 -1.91370046674667  0.63554851205120  2.06410958055806
 6 -0.71634824512451  0.06412097659766  1.81933261086109
 6 -0.93504769256926 -1.01427448634863  0.76756857625763
 6 -6.27810016611661  1.31807959725973 -0.17204241964196
 6  0.51705031163116  0.30990166666667  2.62716173627363
 6 -6.68731924642464  0.82511175957596 -1.32600832953295
 6 -0.17767402350235 -2.04743348024802  0.11783386488649
 6  1.20148704490449 -1.82408195479548 -0.27652923512351
 6 -5.54735533583358  0.39423763846385 -2.07624493599360
 6  2.11249533473347 -2.85826636503650 -0.82234924422442
 6 -2.04678037893789  1.71979773667367  3.12082647284728
 6 -7.12273976717672  1.88923705290529  0.91286527242724
 6  3.24811114481448 -2.27600755195520 -1.35679692479248
 6  1.18038406570657  1.66200469386939  2.52089572547255
 6  3.19632770807081 -0.88916754235424 -0.85461945014501
 6  1.65691946214621 -4.28198416281628 -0.92651436833683
 6 -7.91539744574458  0.64023566116612 -1.97949633743374
 6  1.59724729032903 -5.08372930753075  0.38356435193519
 6  4.39153476247625 -2.99005747454745 -2.02188141944194
 6  4.09522039263926  0.14754415791579 -1.23412809520952
 6  2.64934555575558  1.73905149334934  2.90650655055506
 6  3.76366074387439  1.51298671017102 -0.95373194049405
 6 -9.13348833223322  0.95688784908491 -1.39787460276028
 6  1.06806187088709 -6.55942259245925  0.30298895789579
 6  4.52205103970397  2.75749250415041 -1.40642772587259
 6  3.79151842024202  3.81544206790679 -1.04525581988199
 6  2.64670624142414  3.21090894199420 -0.36195495819582
 6  5.80179378467847  2.54740958155816 -2.13718567366737
 6  4.24507012681268  5.22733760956096 -1.24792680608061
 6  6.63578363596360  3.46745243004300 -2.69869434633463
 1 -4.08318280438044  2.24067514761476  0.04053709400940
 1 -4.92956761366137 -0.80997247334733  1.34598934313431
 1 -4.63372021192119  0.87576157585759  2.01057796749675
 1 -2.66229526942694 -1.57261465696570 -0.12920984278428
 1 -3.44568556585659  0.51960387748775 -1.74833238413841
 1  0.52136657135714 -0.13879356735674  3.57007655575558
 1  1.13507751715172 -0.37877254465447  2.05832096489649
 1 -0.68466712761276 -2.82844030903090 -0.35634063176318
 1 -3.18297844314431  1.84480574467447  3.19428941864186
 1 -1.85146636173617  1.34671403530353  4.18341672957296
 1 -1.50277665876588  2.65642946274627  2.79577699949995
 1 -6.51342479337934  2.56575537903790  1.64595682868287
 1 -7.80809057605761  1.14049385858586  1.66399341004100
 1 -7.77391332853285  2.53999008210821  0.72339081928193
 1  1.21701440984098  2.00030206680668  1.48456652395240
 1  0.44588770127013  2.34362118411841  3.16867269146915
 1  1.67716204260426  0.41101174617462 -0.32602796809681
 1  2.20681847404741 -4.81334516491649 -1.65539014871487
 1  0.62640443794379 -4.15093494099410 -1.28334681808181
 1 -7.63915497729773  0.42565279587959 -3.06021195939594
 1  0.78361054995499 -4.74380556025603  1.25282285888589
 1  2.57910418051805 -5.01374857935794  0.96124393929393
 1  4.17312237453745 -4.19895734793479 -1.92470593169317
 1  5.41926302470247 -2.58779762996300 -1.66903052065207
 1  4.32159359245925 -2.71572380498050 -3.13010208380838
 1  4.99425904540454 -0.27990008450845 -2.05686186188619
 1 -9.17649124962496  0.98472592809281 -0.41249393919392
 1 -10.09383751735174  0.83056447214722 -1.92705880588059
 1  4.11750643714371  2.67154053775378  3.63863862956296
 1  6.27872134033403  1.51691384058406 -2.30503931893189
 1  5.24543524332433  5.45171793599360 -0.67044566446645
 1  4.30160218271827  5.48824559025903 -2.16656920182018
 1  3.57656532613261  5.83115272167217 -0.79245098669867
 1  0.90003731183118 -7.92696385348535  1.25057111201120
 1  7.59799224362436  3.14962050195019 -3.07068434173417
 1  6.26622851035104  4.59156466866687 -2.57201955445545

