%nproc=4
%Mem=4GB
# td=(NStates=1) B3LYP/SVP 

TD

0 1
 8 -5.01907813781378  0.07484292389239 -3.21550133983398
 8  3.02886289178918  3.02130938563856  3.38449452785278
 8  3.31535988458846  0.71660705970597  3.17279916501650
 8  1.22304994449445 -7.08281455155516  1.45492399869987
 8  0.29053394139414 -6.87799422302230 -0.51427941084108
 8  1.86287333543354  3.99922304510451  0.08351785918592
 7 -2.35248485958596 -0.78553698389839  0.44085110171017
 7 -4.27076195759576  0.65176284278428 -1.13445179998000
 7  1.91032142374237 -0.66026759975998 -0.37845632323232
 7  2.59197473937394  1.94153989948995 -0.51663841054105
 6 -4.90352674387439  1.27908940594059  0.10367616741674
 6 -4.40906829962996  0.20351051635163  1.29106646434643
 6 -2.90819591519152  0.10624088078808  1.40046205920592
 6 -1.86490558725873  0.54566952415242  2.16577974757476
 6 -0.68644525482548  0.00258482298230  1.79238991659166
 6 -0.99212340014001 -0.81610466936694  0.72558437783778
 6 -6.27512986908691  1.23217100640064 -0.15793100850085
 6  0.59485809240924  0.21398207470747  2.59965898599860
 6 -6.53510402490249  0.69108835723572 -1.37310303900390
 6 -0.17358361446145 -1.84411314821482  0.05546762826283
 6  1.15473236943694 -1.85139468606861 -0.33433501570157
 6 -5.25245584588459  0.49735795049505 -2.04123143464346
 6  1.95749983518352 -2.91301183958396 -0.96507351665167
 6 -2.15087078797880  1.57430318721872  3.34710910111011
 6 -7.14145163836384  1.82403053225323  0.87499148504850
 6  3.13593992769277 -2.40199015021502 -1.34688593369337
 6  1.10758678597860  1.67333582698270  2.75666930283028
 6  3.14413248854886 -0.92878150375038 -1.01608559675968
 6  1.56667043724372 -4.31344730913091 -0.95105682258226
 6 -7.86008191419142  0.49112074967497 -2.10223861166117
 6  1.84883244884488 -5.08598953355336  0.28791478697870
 6  4.22301791079108 -3.07784625342534 -2.15953518481848
 6  3.98538940954095  0.10357976147615 -1.24486916931693
 6  2.60552117331733  1.80802839103910  3.15420132003200
 6  3.74225860366037  1.46588199969997 -1.07338390569057
 6 -9.07737272067207  0.48250041034103 -1.52612742804280
 6  1.07870293499350 -6.42100875107511  0.33522218121812
 6  4.60536937153715  2.62244899979998 -1.56583366646665
 6  3.89076834523452  3.80101062476248 -1.14453574787479
 6  2.72372394319432  3.29746759785979 -0.36167493019302
 6  5.88072167746775  2.44881972257226 -2.20031198629863
 6  4.18428404820482  5.23875875167517 -1.17409942334233
 6  6.50487054465447  3.47151283608361 -2.94659913681368
 1 -4.67622210831083  2.26752783288329  0.39345238553855
 1 -4.93304796169617 -0.60749222532253  1.03165790999100
 1 -5.00521736163616  0.52410641034103  2.24434134383438
 1 -2.88156719661966 -1.16623401890189 -0.25778270007001
 1 -3.28680967826783  0.89500141724172 -1.44005155605561
 1  0.33710814551455 -0.42035172317232  3.55055460356036
 1  1.24294830423042 -0.45605027242724  2.06467159996000
 1 -0.74239290019002 -2.57598506350635 -0.40395539323932
 1 -3.23160330563056  1.53822508660866  3.83881387108711
 1 -1.34583579867987  1.70197956185619  4.21092948084809
 1 -2.01266764786479  2.69910373017302  2.88535595739574
 1 -6.61127457835784  2.65500430393039  1.35326755975598
 1 -7.63994376137614  1.29833964316432  1.79258626932693
 1 -8.23626956415641  2.12262834593459  0.65209368956896
 1  0.88729143754375  2.27061909850985  1.79301736903690
 1  0.59429254175418  2.17548437043704  3.38600442464246
 1  1.75466979337934  0.30555120012001 -0.06701206650665
 1  2.15145293749375 -4.88154198459846 -1.71329593929393
 1  0.48852064956496 -4.36302615011501 -1.18228671207121
 1 -7.78152921472147 -0.17609737913791 -2.97601353955396
 1  1.56599878877888 -4.59511069076908  1.30014759135914
 1  2.88257452755276 -5.32110931543154  0.38394620952095
 1  3.97445250755076 -4.05097254945495 -2.36139960106011
 1  5.14436553495350 -3.19164801500150 -1.61870548814881
 1  4.52857429052905 -2.55178741134113 -3.08357743134313
 1  4.87918753825383 -0.22111420592059 -1.97629380508051
 1 -9.25372897339734  1.05322277777778 -0.55903859365937
 1 -10.01647978157816  0.19931134683468 -2.28813491349135
 1  3.88336302280228  2.73031641534153  3.71727649334933
 1  6.50533400160016  1.34657680688069 -2.16917573257326
 1  5.13117381718172  5.63782654685469 -0.71878049794980
 1  4.14455647814782  5.85940270597060 -2.35535808070807
 1  3.37726539613961  5.65349495589559 -0.58262000360036
 1  0.65363267136714 -7.90313147024703  1.51816787168717
 1  7.54307675207521  3.35325086498650 -3.13538081138114
 1  5.95801768926893  4.52543805600560 -2.92352470497050

