%nproc=4
%Mem=3GB
# td=(NStates=1) B3LYP/SVP 

TD

0 1
 8 -3.38826573677368 -1.32124718021802 -2.83778443274327
 8  3.27849830463046  3.06084774327433  3.03957822872287
 8  3.57756206440644  1.45065219351935  4.56075051865187
 8  7.71740034293429 -1.51170728492849 -0.59300006180618
 8  6.64690884728473 -2.84554534943494 -2.06272272037204
 8 -2.63671457795780  1.65626111521152  1.44466452695270
 7 -0.25092083828383 -2.40365667996800  0.87729257005701
 7 -2.76456849484949 -1.09343447844784 -0.60782292689269
 7  1.18572012141214  0.03518442814281 -0.74663960116012
 7 -1.06423556905691  1.34571997989799 -0.18371926982698
 6 -3.33053820352035 -1.36164372677268  0.62657963186319
 6 -2.62952157825783 -2.40630477667767  1.54042934973497
 6 -1.20336597829783 -2.04835264926493  1.64717270587059
 6 -0.57398720102010 -1.22103329502950  2.79138715921592
 6  0.81372248484848 -1.10181518251825  2.47540873547355
 6  1.09055174137414 -1.84923135783578  1.31981678567857
 6 -4.76378132473247 -1.93628927762776  0.34552143944394
 6  1.90674526592659 -0.41771210081008  3.18422057655766
 6 -4.85742210361036 -1.87807651605161 -1.04180452095210
 6  2.16676463286329 -1.89992818501850  0.34769704840484
 6  2.20279630153015 -0.94985689788979 -0.67724162566257
 6 -3.63757842774277 -1.48146011131113 -1.65624290769077
 6  2.94754581778178 -0.72832358065807 -1.89371327022702
 6 -1.35593416561656 -0.46891074807481  3.82055756405641
 6 -5.78919414351435 -2.13644012431243  1.42620362596260
 6  2.64027368426843  0.38995636383638 -2.50995560556056
 6  2.01250068246825  1.04541023302330  2.87363400500050
 6  1.39195256175618  0.90519716831683 -1.86439254525453
 6  4.27722307140714 -1.51604103320332 -2.10818044814481
 6 -5.98867320342034 -2.41435352575258 -1.99309275747575
 6  5.42401795279528 -1.02097384258426 -1.15017843474347
 6  3.25588568396840  0.99935833843384 -3.73008951815182
 6  0.55221764586459  1.99158430533053 -1.98348009310931
 6  3.02843148344834  1.79909949544954  3.64170951615162
 6 -0.62551638323832  2.18490312251225 -1.22326761466147
 6 -6.96218014451445 -3.22835659975998 -1.66365492419242
 6  6.60859042864286 -1.91004926002600 -1.36176686668667
 6 -1.49465812061206  3.49692192539254 -1.36184425912591
 6 -2.42314640404040  3.35214569356936 -0.34321222742274
 6 -2.07286955935594  2.08938987248725  0.47089602160216
 6 -1.13638361676168  4.58665492569257 -2.19439120712071
 6 -3.55828646514651  4.30444092699270  0.11852609230923
 6 -1.88488237943794  5.75377079527953 -2.16480021282128
 1 -3.52002049524952 -0.39665515541554  1.20186439103910
 1 -2.66325795219522 -3.42303742874287  1.05817616671667
 1 -3.02373219301930 -2.57732117651765  2.56842623132313
 1 -0.47340264506451 -2.44479324442444 -0.25470846084608
 1 -2.06242463216322 -0.33749005250525 -0.75798990139014
 1  1.74723268466847 -0.47874932873287  4.23333543264326
 1  2.74562189508951 -1.02205409670967  2.99619454885489
 1  2.94312312621262 -2.73826540944094  0.24796784998500
 1 -2.13863649294929 -1.12041131513151  4.27579464126413
 1 -0.76501626962696 -0.18434263786379  4.69099545604560
 1 -1.98569788358836  0.40956340304030  3.37253601890189
 1 -5.52538332553255 -1.46663479467947  2.29192348534854
 1 -5.59096785748575 -3.12434653925393  1.70809365566557
 1 -6.75283266006601 -2.14022966636664  1.10199656135614
 1  2.30856699609961  1.26450639253925  1.70561817311731
 1  1.02698264976498  1.59750199449945  2.93823179687969
 1  0.39865812341234  0.21146551635163 -0.20774280658066
 1  4.72398811801180 -1.46477953695370 -3.11835743764376
 1  4.22852368216822 -2.54145592479248 -1.87681478947895
 1 -5.92375451385139 -1.99324024862486 -3.01210467426743
 1  5.13069099039904 -0.94175465536554 -0.10427720402040
 1  5.69512095339534  0.00060306420642 -1.53400788328833
 1  4.54783469496950  0.56952344444444 -3.74765299479948
 1  3.35252100370037  2.24044512321232 -3.63638597399740
 1  2.88451424072407  0.69185368326833 -4.91503465546555
 1  0.59519342934293  2.69647114361436 -2.82393328532853
 1 -7.02769185528553 -4.03124530843084 -0.72646166736674
 1 -7.68250651555155 -3.48916024652465 -2.43411646514651
 1  3.63590731823182  3.55738509950995  3.69122237643764
 1 -0.37964184298430  4.34520580008001 -2.92028992439244
 1 -4.04546313591359  4.47159374117412 -0.85104625612561
 1 -4.30972972267227  3.77442223582358  0.83176398779878
 1 -3.31539985618562  5.13022331343134  0.68629439933993
 1  8.27543323682368 -2.29154230843084 -0.87660829582958
 1 -1.74551747634763  6.38499895699570 -2.89588444064406
 1 -2.70251260416042  6.02510388618862 -1.34012992049205

