%nproc=4
%Mem=3GB
# td=(NStates=1) B3LYP/SVP 

TD

0 1
 8 -3.35161207140714 -1.25956101160116 -2.92916357065707
 8  3.37925838063806  2.93346500500050  2.89811408230823
 8  3.36425073327333  1.61641877017702  4.81638608220822
 8  7.75886448934893 -1.43558967316732 -0.79339010081008
 8  6.57195135153515 -3.14437523242324 -1.73896034413441
 8 -2.75773668016802  1.58466395549555  1.40126018651865
 7 -0.21147689388939 -2.43835014931493  0.89500434123412
 7 -2.68811084908491 -1.14736987198720 -0.71032317691769
 7  1.16039758915892 -0.01803089338934 -0.77324226142614
 7 -1.13637278277828  1.39103451135114 -0.33198409630963
 6 -3.28676382608261 -1.35219278167817  0.58822579647965
 6 -2.55029365546555 -2.33641778797880  1.59762506930693
 6 -1.10116575827583 -2.06429424342434  1.85397338593859
 6 -0.47009681198120 -1.22589378107811  2.84339235973597
 6  0.80875198779878 -1.07096209720972  2.44405560016002
 6  0.95913860006001 -1.87466390109011  1.21028583258326
 6 -4.63774872147215 -1.90949659835984  0.27684457175718
 6  1.86488107950795 -0.37253758335834  3.19049120362036
 6 -4.82489885128513 -1.95997470587059 -1.06410675117512
 6  2.05404336073607 -1.87039523172317  0.29715199389939
 6  2.09603562546255 -0.95980789298930 -0.72250615211521
 6 -3.58790346024602 -1.41474343964396 -1.76379366276628
 6  2.97795885908591 -0.66481723002300 -1.81115501440144
 6 -1.15887445964596 -0.64741859885989  3.94816032433243
 6 -5.62574779887989 -2.26571305160516  1.40838184378438
 6  2.54930458735874  0.47593496169617 -2.51334594459446
 6  1.97948738113811  1.03324901690169  2.78484512611261
 6  1.29228259475948  0.90346699529953 -1.82430853685369
 6  4.27618296739674 -1.58042747184718 -2.13210284038404
 6 -5.90558489458946 -2.31851394179418 -1.96900034823482
 6  5.52498804980498 -1.05418716391639 -1.22379579647965
 6  3.23725382078208  1.13550195279528 -3.64939144834483
 6  0.47868029212921  2.02722786968697 -2.11142288738874
 6  2.92936157645765  1.87180676617662  3.69187453265327
 6 -0.61396522812281  2.32865749794979 -1.23171845974597
 6 -6.95189911641164 -3.09134289838984 -1.71085964466447
 6  6.63866343594359 -2.02997125222522 -1.33882457245725
 6 -1.47289594439444  3.49957219041904 -1.26019409410941
 6 -2.38772286168617  3.34744522352235 -0.18908681488149
 6 -2.16007828022802  2.00522145564556  0.38534746674667
 6 -1.25652563096310  4.60551681188119 -2.24296606460646
 6 -3.20863149964997  4.35205568846885  0.39312355205521
 6 -2.20305419661966  5.58869428762876 -2.44974870767077
 1 -3.27211570477048 -0.31649713961396  0.99603380798080
 1 -2.65433706010601 -3.35501062606261  1.17635798489849
 1 -3.21206102590259 -2.48560200460046  2.42161154985499
 1 -0.46358166296630 -2.87739650475047 -0.09185217521752
 1 -2.09564795449545 -0.26725302880288 -0.57682178457846
 1  1.67025498689869 -0.46618807260726  4.26934903400340
 1  2.80072740564056 -0.83888577987799  3.07473240264026
 1  2.61202001590159 -2.76545812871287  0.08298135133513
 1 -1.94143677297730 -1.20792006600660  4.52756981878188
 1 -0.35007477547755 -0.48729293289329  4.87545390189019
 1 -1.65328464226423  0.44578702540254  3.75132389768977
 1 -5.26808759595960 -1.70943907510751  2.32680697369737
 1 -5.75758451915191 -3.42933703830383  1.67569041534153
 1 -6.63218059485949 -1.66533217661766  1.10121648334833
 1  2.27486362576258  1.15885582748275  1.71482909420942
 1  0.97828778027803  1.37489973427343  2.93725169886989
 1  0.23957221482148  0.38058242804280 -0.16598863116312
 1  4.32721844104410 -1.37934099309931 -3.23349895179518
 1  4.05149597939794 -2.68290006920692 -2.03958106610661
 1 -5.73504564296430 -1.88564948954896 -2.96619008280828
 1  5.16063398469847 -0.89142962286229 -0.14720149644964
 1  5.76606804810481  0.01943494739474 -1.68307278977898
 1  4.05913582508251  0.56582307440744 -3.96316454595460
 1  3.74800055165517  2.21053213191319 -3.34927726312631
 1  2.57082287158716  1.42513701160116 -4.39711286328633
 1  0.74910882088209  2.74976647314731 -2.82434332633263
 1 -7.07433651975198 -3.60638282218222 -0.77314633583358
 1 -7.82892115701570 -3.28786011651165 -2.50325337883788
 1  4.04231795929593  3.38096745774578  3.57422067626763
 1 -0.38284216301630  4.72894417391739 -2.87177507290729
 1 -4.35513410301030  4.39525610741074 -0.09986113761376
 1 -3.19742849254926  4.28525331893189  1.69431024242424
 1 -2.68786710291029  5.54416470757076  0.11399716961696
 1  8.43159885338534 -2.19855300950095 -0.58632926792679
 1 -2.15267819241924  6.46758721582158 -3.03155800800080
 1 -3.16038839173917  5.93221459725973 -1.81609751725172

