%nproc=4
%Mem=3GB
# td=(NStates=1) B3LYP/SVP 

TD

0 1
 8 -3.46522343254325 -1.38882393789379 -2.88308896319632
 8  3.23433388818882  3.10050170867087  2.88476274717472
 8  3.81275558375838  1.44375150345035  4.31706615021502
 8  7.61269987288729 -1.71778789298930 -0.49084984678468
 8  6.71061521792179 -2.77729852475247 -2.42527897599760
 8 -2.54657556405641  1.71695718481848  1.42539259975998
 7 -0.32753850005000 -2.40509682398240  0.97700254105411
 7 -2.82674471247125 -1.19484461946195 -0.63217536213621
 7  1.09307085648565  0.03431434113411 -0.67398233543354
 7 -1.01982112761276  1.52148755665567 -0.17497839573957
 6 -3.40990614031403 -1.35280284268427  0.62921989588959
 6 -2.63718234433443 -2.40077422362236  1.65091039783978
 6 -1.31320696239624 -1.97708552255226  1.82004999359936
 6 -0.66103590589059 -1.20565175687569  2.78620664116412
 6  0.67618873147315 -1.14602960396040  2.50448164276428
 6  0.87399008520852 -1.76544297899790  1.23971877587759
 6 -4.79177412401240 -1.85221086978698  0.25616250355036
 6  1.88524311571157 -0.43244357395740  3.17771992649265
 6 -4.85477183858386 -2.13766247464746 -1.10307064756476
 6  1.99083704010401 -1.89629782198220  0.41679395809581
 6  2.11239726162616 -0.89432134433443 -0.65231913341334
 6 -3.60559522942294 -1.42928489378938 -1.67184446784678
 6  3.11247231043104 -0.54887563586359 -1.63832773167317
 6 -1.43255182738274 -0.57760161716172  3.94577008530853
 6 -5.81636686078608 -2.31216769706971  1.22299330493049
 6  2.66482613951395  0.50533790199020 -2.37610222022202
 6  2.07966739913991  1.03940963296330  2.79489613121312
 6  1.38629199569957  0.97471412001200 -1.72496860286029
 6  4.29751510061006 -1.45921535063506 -1.92468209830983
 6 -5.85716005210521 -2.72863495389539 -2.02094554275428
 6  5.47513306430643 -1.21004274947495 -1.11538495539554
 6  3.17077717311731  1.13921232383238 -3.50218672787279
 6  0.61031345544554  2.03844899179918 -2.00316206130613
 6  3.14090273057306  1.84834441994199  3.44000934613461
 6 -0.56510034163416  2.38016264846485 -1.24166945484548
 6 -6.94651857835784 -3.51062482658266 -1.76074463316332
 6  6.63791336093609 -2.03758201330133 -1.39520021002100
 6 -1.37894654945495  3.56744897809781 -1.21672974767477
 6 -2.27990207960796  3.43472395139514 -0.18530643684368
 6 -1.93871614401440  2.17958889238924  0.42058099009901
 6 -1.33663364176418  4.58209446964696 -2.24754652265227
 6 -3.38658929542954  4.34206468936894  0.25168940864086
 6 -1.79881377257726  5.82144756295630 -2.31001473427343
 1 -3.45633412661266 -0.45196068596860  1.21781598619862
 1 -2.64137576397640 -3.24539966496650  1.02793314241424
 1 -3.14090391019102 -2.35610905530553  2.58441783048305
 1 -0.62342764756476 -2.60982974807481  0.03606061606161
 1 -2.33259164886489 -0.18807511101110 -0.88094219661966
 1  1.58026598799880 -0.22195364916492  4.25444754385439
 1  2.86405373827383 -1.04419631093109  2.78385331473147
 1  2.85951476537654 -2.62310389328933  0.31434448764876
 1 -2.08495112441244 -1.17530680468047  4.63617067886789
 1 -0.63584335233523  0.00595639203920  4.56865322182218
 1 -2.03427274107411  0.40464291099110  3.52363112841284
 1 -5.87688847604760 -1.78371650285029  2.10393468646865
 1 -5.57637639833983 -3.50751485608561  1.46907975427543
 1 -6.76733411021102 -2.28792443584358  0.79134549624962
 1  2.24428056745675  1.14157409930993  1.76122373367337
 1  1.33345329682968  1.60000224452445  2.75763373707371
 1  0.30644890249025  0.17997236703670 -0.13443547584759
 1  4.52014773397340 -1.48862192119212 -3.01814741664166
 1  3.76122695249525 -2.20093187238724 -1.73373048104810
 1 -5.62809494789479 -2.75597652225223 -2.99499296309631
 1  5.22112003330333 -1.24084456435644 -0.13514029032903
 1  5.83159460076008 -0.19690668676868 -1.30909539203920
 1  3.75411532303230  0.46608310041004 -4.10182841234123
 1  3.88818457005701  2.01034211291129 -3.19860219561956
 1  2.44842063136314  1.23986848474848 -4.38477162916292
 1  0.67432134213421  2.67390888738874 -2.85350624262426
 1 -7.20152923902390 -3.70352253615362 -0.61310033123312
 1 -7.50086835173517 -3.95270660116012 -2.72697575107511
 1  3.88640236773677  3.55566492749275  3.63733698789879
 1 -0.75450932973297  4.22384366386639 -3.22512040744074
 1 -3.93824241384138  4.58180476227623 -0.56506765826583
 1 -4.08709745944594  3.86829162276228  1.07962877427743
 1 -3.10471878807881  5.29049934103410  0.76332210211021
 1  8.43970966446645 -2.06552970717072 -0.87509814481448
 1 -1.38560148474847  6.43902435953595 -3.35510036223622
 1 -2.45676802970297  6.38093946974698 -1.44867077457746

