%nproc=4
%Mem=3GB
# td=(NStates=1) B3LYP/SVP 

TD

0 1
 8 -3.18422533273327 -1.30268532403240 -2.81227188148815
 8  2.65654610941094  3.33059471797180  3.27797206810681
 8  3.69602391059106  1.58442557085709  4.25346979057906
 8  7.67218582148215 -1.68760487468747 -0.70068082988299
 8  6.73242739913991 -2.93520431533153 -2.35904235233523
 8 -2.71288219471947  1.70187567666767  1.45789585008501
 7 -0.27535328152815 -2.44951126542654  0.82576741754175
 7 -2.59010104810481 -1.10406554155416 -0.53462560716072
 7  1.18263981338134  0.02510342004200 -0.75527046424642
 7 -1.04908405390539  1.44140954885489 -0.11527242514251
 6 -3.37993314301430 -1.30969853225323  0.70869784368437
 6 -2.63653227932793 -2.25523967016702  1.64833013981398
 6 -1.16784242594259 -2.09144695869587  1.84827281588159
 6 -0.52678248054805 -1.23117430913091  2.90653867436744
 6  0.75611672427243 -1.18763376437644  2.49499069366937
 6  0.95573826002600 -1.90017645234523  1.19199400340034
 6 -4.64539948654865 -1.90039568826883  0.27876476377638
 6  1.78237282868287 -0.34890522012201  3.16206836133613
 6 -4.85776213761376 -2.02256096449645 -1.07572791329133
 6  2.09672762916292 -2.02397058925893  0.31386366506651
 6  2.08839486138614 -1.02133404560456 -0.68172207370737
 6 -3.51072574247425 -1.39045101040104 -1.68377566096610
 6  2.99656071927193 -0.77619836813681 -1.80134403330333
 6 -1.37238581078108 -0.47899175617562  3.94056956525653
 6 -5.77611283538354 -2.34901138143814  1.23333433903390
 6  2.63499315621562  0.36233360156016 -2.44395900590059
 6  1.77103653605361  1.13897958995900  2.80754739633963
 6  1.40007337383738  0.81569821842184 -1.71348745474547
 6  4.27609295839584 -1.49391882098210 -2.08157778787879
 6 -5.91188552465247 -2.42028411881188 -1.99172262046205
 6  5.50831638263826 -1.13849559475948 -1.33830724762476
 6  3.29156925232523  0.96713511611161 -3.55090159935994
 6  0.54992741684168  1.94153930083008 -1.98995074017402
 6  2.80567920822082  1.96337592309231  3.45730107530753
 6 -0.64403823542354  2.22936756895690 -1.17109239713971
 6 -6.73510743724372 -3.26454021812181 -1.68968752745275
 6  6.71719128872887 -2.11485974107411 -1.51851254125413
 6 -1.36762541734173  3.52863509670967 -1.22229030373037
 6 -2.27350143954395  3.47835831483148 -0.24925283148315
 6 -2.12594486688669  2.14629556305631  0.44920385238524
 6 -1.26059603800380  4.47450371057106 -2.22983475147515
 6 -3.32421305780578  4.45746622952295  0.25885012471247
 6 -1.82674656585659  5.72796821502150 -2.12243597639764
 1 -3.53753224642464 -0.17491298119812  1.12562676727673
 1 -2.82259388578858 -3.40385551055106  1.16836718581858
 1 -3.14157397719772 -2.35946939133913  2.62696208490849
 1 -0.46464176897690 -2.75363412851285 -0.06447943794379
 1 -2.23133152285229 -0.16645294879488 -0.51393549594959
 1  1.63514147554755 -0.22362381618162  4.31074317341734
 1  2.79935726862686 -0.78452034333433  3.09395432483248
 1  2.97859667356736 -2.69493107600760  0.31353440664066
 1 -2.15712834213421 -1.15555482948295  4.48505556735674
 1 -0.48810857885789 -0.09636383998400  4.75880223672367
 1 -1.84706402020202  0.36860930763076  3.59866863216322
 1 -5.80949173637364 -1.54305243644364  1.96355064806481
 1 -5.40597935863586 -3.27306141074107  1.69692253855386
 1 -6.89891726852685 -2.49749539293929  0.68432479417942
 1  2.03718985838584  1.26413635553555  1.69892750405040
 1  0.67279723122312  1.66625887018702  3.02052002570257
 1  0.38691694929493  0.25497986778678 -0.15930796309631
 1  4.27781350055005 -1.44651771077108 -2.98601420332033
 1  3.99393022282228 -2.63268504770477 -2.09165627362736
 1 -5.79395153355336 -2.08231915651565 -3.19656312011201
 1  5.15854377567757 -1.13886436633663 -0.17298407470747
 1  6.02013345464546 -0.18483547964797 -1.58593307580758
 1  3.68444835633563  0.07033352545255 -4.30985921542154
 1  4.07447319891989  1.87846892559256 -3.45067740314031
 1  2.45712150145015  1.32326682458246 -4.19561271327133
 1  0.91973588358836  2.88189968646865 -2.56756764876488
 1 -6.79217830393039 -3.82345452935293 -0.64139316051605
 1 -7.49109737463746 -3.77778910941094 -2.36039909340934
 1  3.20440416791679  3.64041340234023  3.92785603980398
 1 -0.73298717751775  4.01045232473247 -3.18569646504650
 1 -3.99131772137214  5.17727430923092 -0.64121527302730
 1 -3.78442719241924  3.85124991859186  1.03765457685769
 1 -2.79467778397840  5.39347963906391  0.94106987688769
 1  8.19292498599860 -2.37505065926593 -0.87516815181518
 1 -1.68117104170417  6.42997345444545 -2.88400325252525
 1 -2.43304565746575  6.01983335913591 -1.18862476997700

