%nproc=4
%Mem=4GB
# td=(NStates=1) B3LYP/SVP 

TD

0 1
 8 -5.42531876187619 -0.13861842224222 -3.22334212391239
 8  3.26380638613861  2.83479073377338  3.00855693409341
 8  3.26675502410241  0.55589098809881  3.16404828992899
 8  1.66070370987099 -7.12134840494049  1.42555106140614
 8  0.62607749574957 -6.95981240484048 -0.52529051195120
 8  1.66075312341234  3.97241036383638 -0.07864835743574
 7 -2.44515412651265 -0.98565699589959  0.68555557215722
 7 -4.41317619901990  0.41586925342534 -1.27106546134613
 7  1.80050044164416 -0.71351292429243 -0.48474695229523
 7  2.70399594149415  1.88731447694769 -0.50534728142814
 6 -4.77835422662266  1.13048454545455  0.00835663546355
 6 -4.49634702750275  0.33629379467947  1.39611696939694
 6 -3.00404550015001 -0.02701244454445  1.43195520852085
 6 -2.04055315201520  0.66051100830083  2.12449561916192
 6 -0.82536914721472  0.02831739623962  1.83442412001200
 6 -1.10560474827483 -1.00308336723672  0.74693651305131
 6 -6.28641099719972  1.32167995729573 -0.11857707310731
 6  0.57365597219722  0.21315199169917  2.50159918001800
 6 -6.68862937743774  0.87818706710671 -1.40420614931493
 6 -0.18990524662466 -1.98602733963396  0.18074015551555
 6  1.07716461266127 -1.84437398399840 -0.32776435863586
 6 -5.43018361866187  0.40641885658566 -2.06272358385839
 6  1.94064815001500 -2.88875941434143 -0.89962697199720
 6 -2.22130783168317  1.82755851275128  2.98925331553155
 6 -7.06537403060306  1.86139426862686  0.92001598749875
 6  3.13557989168917 -2.33774372557256 -1.28113935903590
 6  1.21182721002100  1.57984647804780  2.51254489038904
 6  3.02142021732173 -0.86247487308731 -1.02835682388239
 6  1.61226499669967 -4.26417238163816 -0.92366408330833
 6 -8.09010491649165  0.89158079567957 -1.94533292109211
 6  1.72952051765177 -5.01199213381338  0.41996799229923
 6  4.29279488848885 -2.97082555135514 -2.02721195249525
 6  3.99692056265627  0.12250165366537 -1.38447312971297
 6  2.62447306850685  1.63990157835784  2.97833373327333
 6  3.68480285808581  1.50889630113011 -1.00583715101510
 6 -9.22774775817582  0.90085224552455 -1.44153896919692
 6  1.32352741744174 -6.48645529572957  0.34675333433343
 6  4.69250808540854  2.66485324022402 -1.43342042514251
 6  4.01890115851585  3.80983150685069 -0.98670996529653
 6  2.71873344414441  3.40674852595260 -0.45133389608961
 6  5.90606421172117  2.50752559315932 -2.07007896299630
 6  4.28509412921292  5.32997787358736 -1.14977699109911
 6  6.93130318791879  3.47411309610961 -2.34174865176518
 1 -4.17543202930293  2.09323040314031  0.13284632493249
 1 -5.07331198809881 -0.54590606670667  1.32497724192419
 1 -4.85149198909891  0.94498849854986  2.23068997869787
 1 -3.00142918281828 -1.71274867036704  0.17867094529453
 1 -3.54020501780178  0.26822873997400 -1.49844739563956
 1  0.64564899959996 -0.19212890089009  3.55623517161716
 1  1.30812482188219 -0.37784245164517  1.84473960676068
 1 -0.74509317021702 -3.00046751175118 -0.20925592329233
 1 -3.25718586388639  1.89508077217722  3.06114610431043
 1 -1.52107332243224  1.75257462136214  3.95470385828583
 1 -1.85216159725973  2.75146896669667  2.29772719451945
 1 -6.58593204410441  2.68180698419842  1.55413764676468
 1 -7.48639840684068  1.02258206740674  1.49992700340034
 1 -8.20786672387239  2.11997808090809  0.61062954315431
 1  0.85826853525353  2.02985502210221  1.44586265356536
 1  0.62415552805281  2.37976479847985  3.12001782598260
 1  1.56050037643764  0.18541918691869 -0.21679704500450
 1  2.19912770497050 -4.67187101750175 -1.51438604830483
 1  0.55435723322332 -4.23627347484748 -1.32351083448345
 1 -8.06974803660366  0.82925315591559 -3.05503144134413
 1  1.04905709460946 -4.74263544324432  1.21928950555056
 1  2.78755502560256 -4.96239344384438  0.66642445734573
 1  3.95233029532953 -3.86967441964196 -2.47772123322332
 1  4.98152925132513 -2.96604545474547 -1.13897751535153
 1  4.67596903000300 -2.44027626022602 -2.98481755535553
 1  4.96962658215822 -0.17525962046205 -1.91489766546655
 1 -9.38630223072307  0.73319077457746 -0.41130382018202
 1 -10.05689382298230  0.91383279897990 -2.07767386738674
 1  4.22097678417842  2.71779516321632  3.23430819651965
 1  6.20832430063006  1.52829497869787 -2.37825664066407
 1  4.96214691449145  5.53005576977698 -0.28760738063806
 1  4.72872489498950  5.65813257895790 -2.08623116801680
 1  3.25792346194619  5.93297290369037 -1.12911465306531
 1  1.43108041614161 -8.03241439853985  1.51037709260926
 1  7.81330377477748  3.15137067696770 -2.95538281158116
 1  6.63691557905790  4.48005351755176 -2.30347269976998

