%nproc=4
%Mem=4GB
# td=(NStates=1) B3LYP/SVP 

TD

0 1
 8 -5.40169639963996 -0.18915347574757 -3.29489927962796
 8  3.10848085358536  2.88776603130313  3.17360343874387
 8  3.33966231483148  0.60898629762976  3.05556744184418
 8  1.48711635113511 -7.26116238633863  1.40830933723372
 8  0.85948083608361 -7.01273769736974 -0.79938792169217
 8  1.69159620772077  3.91420454325433  0.08251775917592
 7 -2.36151576267627 -0.84464289448945  0.62360937753775
 7 -4.35751063246325  0.55724339083908 -1.29882823762376
 7  1.83720411201120 -0.64923649664966 -0.44379285688569
 7  2.69891543344334  1.95153089858986 -0.43036978367837
 6 -4.76263265446545  1.19175067206721 -0.07442164236424
 6 -4.43115050785079  0.38633879917992  1.21995935363536
 6 -2.97624271987199  0.16024628132813  1.37682969596960
 6 -1.95590468716872  0.64462942014201  2.18422159175918
 6 -0.70792740304030  0.19362392689269  1.83313399099910
 6 -1.00233442124212 -0.92114517341734  0.91419323872387
 6 -6.21108346444645  1.45357314661466 -0.19261447684768
 6  0.52914152075207  0.24216489298930  2.49452847294729
 6 -6.67997851235123  0.84687393579358 -1.37961369006901
 6 -0.23839009510951 -1.83695243214321  0.17053913541354
 6  1.08566546274627 -1.76047559415942 -0.32358394059406
 6 -5.42125272557256  0.34285249994999 -2.15140245174517
 6  1.86362044724472 -2.84580511891189 -0.88408541784178
 6 -2.23490919181918  1.75962171907191  3.15208959915992
 6 -6.97998549174917  1.94934306350635  0.92844683058306
 6  3.06387272097210 -2.28276822802280 -1.33064430953095
 6  1.17023305060506  1.68970746414641  2.54278791469147
 6  3.08111618691869 -0.88674730033003 -1.00172416061606
 6  1.52830660086009 -4.26476244064406 -0.91954367126713
 6 -8.05584149014902  0.56251788938894 -1.89301768956896
 6  1.67481504710471 -5.09676061066107  0.37946394189419
 6  4.30944655365537 -3.05681415021502 -1.85548477977798
 6  3.99015988658866  0.06607601110111 -1.24518920132013
 6  2.62424304550455  1.65209279747975  3.03958985888589
 6  3.78387276507651  1.47016242774277 -0.99303587088709
 6 -9.16353133653365  0.70494265456546 -1.35773058835884
 6  1.25242030673067 -6.54447109730973  0.26983564256426
 6  4.60470930553055  2.60773752865286 -1.45443252635264
 6  3.90224949334934  3.78841936563656 -1.12652394669467
 6  2.63219479027903  3.31442929402940 -0.40130889358936
 6  5.83687729302930  2.45428026862686 -2.09054100920092
 6  4.26092171197120  5.31409628542854 -1.19476148954896
 6  6.67058711631163  3.32264794959496 -2.51455593249325
 1 -4.27651213731373  2.14799587968797  0.22018505880588
 1 -4.91992664956496 -0.79579105520552  1.11192593679368
 1 -4.64107094699470  1.20971497119712  1.98486539623962
 1 -2.89791883178318 -1.49495689118912  0.09359243744374
 1 -3.52771376867687  0.50076199329933 -1.60803835473547
 1  0.24670910561056 -0.05679536753675  3.53018256635664
 1  1.27733174257426 -0.48254292169217  2.07048218101810
 1 -0.62596125702570 -2.88684614961496  0.03637864016402
 1 -3.21404154945495  2.08674993909391  3.48147813751375
 1 -1.52450366546655  1.60308967286729  3.86057444534453
 1 -1.98960534163416  2.69450327012701  2.61266868866887
 1 -6.38198164906491  2.58052685618562  1.73818605160516
 1 -7.39888965596560  1.00306011521152  1.65689269997000
 1 -7.94602053925392  2.58219430253025  0.66348482868287
 1  1.19978268666867  1.98490052665267  1.36164423172317
 1  0.71846495899590  2.40740756275627  3.14825064926493
 1  1.71331565796580  0.51976262126213 -0.24676004130413
 1  2.25237302950295 -4.56645047544755 -1.63617822752275
 1  0.53163496099610 -4.48318816631663 -1.24259274267427
 1 -8.09036009780978  0.23185341594159 -2.87627356555656
 1  1.31909409830983 -4.48109928962896  1.22649022562256
 1  2.60530680078008 -4.95302250675068  0.74897271217122
 1  4.09516457875788 -4.06124357655766 -1.94123758485849
 1  5.05044614301430 -2.99678852905290 -1.13397701530153
 1  4.55344677777778 -2.58775100770077 -2.77366644024402
 1  4.84640425992599 -0.21836393089309 -1.64955113081308
 1 -9.40466406690669  0.90639809530953 -0.31026371617162
 1 -10.16783491709171  0.38523993969397 -1.66465256525653
 1  4.10924561106111  2.67461084478448  3.17781254695470
 1  6.15115858405840  1.45419756895690 -2.32232104710471
 1  5.32869356915691  5.37890065426543 -0.89804842474247
 1  4.46002802530253  5.59607637333733 -2.18586113101310
 1  3.65822349194920  5.92129173557356 -0.59314105570557
 1  1.33583089118912 -8.15070622772277  1.34947100200020
 1  7.77508995339534  3.30507604750475 -2.85819309260926
 1  6.29619150665066  4.35139065126513 -2.70957330983098

