%nproc=4
%Mem=3GB
# td=(NStates=1) B3LYP/SVP 

TD

0 1
 8 -3.41791870207021 -1.44648970447045 -2.89830048434844
 8  3.18933938873887  3.09392105060506  2.90864513541354
 8  3.26691099929993  1.56344347264726  4.61436588018802
 8  7.65333393629363 -1.78559467366737 -0.34615537733773
 8  6.85326948334833 -2.90624141904190 -2.24924137223722
 8 -2.63161406790679  1.61523701280128  1.44779483998400
 7 -0.22426817301730 -2.38169448374837  0.89915475627563
 7 -2.74528656665667 -1.24457959295930 -0.61905405000500
 7  1.15896744614461 -0.07074616491649 -0.83056799399940
 7 -1.01674081958196  1.36598200610061 -0.25691658955896
 6 -3.40845599529953 -1.39320688308831  0.68763573747375
 6 -2.50650927702770 -2.39728387458746  1.58898420522052
 6 -1.11348699039904 -1.90521833583358  1.78907689628963
 6 -0.52230203250325 -1.14873606530653  2.79513753425343
 6  0.83475458805881 -1.11884688568857  2.37392858745875
 6  1.06023871007101 -1.81889832453245  1.07860266426643
 6 -4.74182912951295 -1.94440008870887  0.37521440874087
 6  1.86887147854785 -0.30621095069507  3.06995915041504
 6 -4.91674803620362 -2.01448015641564 -0.99783012351235
 6  2.13819177557756 -1.87329552175218  0.27321960066007
 6  2.16527254915492 -0.94378629082908 -0.71476537803780
 6 -3.63767843774377 -1.57786975227523 -1.65403268666867
 6  3.07228829202920 -0.64985573387339 -1.89292319121912
 6 -1.27989656185619 -0.41766562356236  3.71469697799780
 6 -5.75731095519552 -2.32862934323432  1.36507751335134
 6  2.56865652255226  0.46004337253725 -2.55764037403740
 6  1.82208164056406  1.25389108110811  2.66870351195120
 6  1.38583194969497  0.81006765536554 -1.93793989999000
 6  4.34362971207121 -1.46708613771377 -2.05823545364536
 6 -5.97076141224122 -2.30608269866987 -1.88189163736374
 6  5.46352190319032 -1.15217696289629 -1.08842225912591
 6  3.24687478287829  1.27471587418742 -3.65293180238024
 6  0.52451487558756  1.95804095099510 -2.05160690579058
 6  2.81011965226523  1.99647923342334  3.53310865606561
 6 -0.63184701630163  2.22083671587159 -1.24604989288929
 6 -7.02275620212021 -3.03901766586659 -1.67155571427143
 6  6.61455102470247 -2.09176743184318 -1.34073476347635
 6 -1.47019567436744  3.51871410461046 -1.20847892259226
 6 -2.32386647604761  3.36017649664967 -0.16831473767377
 6 -1.99453172557256  2.00549148264827  0.47431636363636
 6 -1.27815779417942  4.50130639083908 -2.22348411641164
 6 -3.36560719721972  4.22851333423342  0.44523876357636
 6 -1.76537042824282  5.81909732793279 -2.05266899969997
 1 -3.68566705990599 -0.49589507940794  1.36126033063306
 1 -2.67638926532653 -3.44334945994599  1.51839218831883
 1 -2.94835465526553 -2.50585402980298  2.60821020972097
 1 -0.17683298809881 -2.81520028512851 -0.00060305030503
 1 -1.96077446714671 -0.51223752725273 -0.75259936233623
 1  1.79500746214621 -0.35991744554455  4.14961706080608
 1  2.82927025992599 -0.83855574687469  2.77553248264826
 1  2.96873568746875 -2.73843542644264  0.32874592779278
 1 -1.89930255955596 -1.22394166816682  4.41385844764476
 1 -0.54966473447345  0.04759055545555  4.42331868836884
 1 -2.04620393419342  0.36379882658266  3.24751351665167
 1 -5.67544833203320 -1.59775790699070  2.29611390439044
 1 -5.54481324202420 -3.30123422802280  1.78859170547055
 1 -6.76043342014201 -2.19812545594560  1.03900026172617
 1  2.18465460486049  1.36670661256126  1.53776138743874
 1  0.89638959045905  1.79311155545555  3.00020799449945
 1  0.36192445004500  0.24186855665567 -0.06764879717972
 1  4.70436615581558 -1.35481854085409 -3.02472807470747
 1  4.28676950675067 -2.56030780998100 -2.00192730073007
 1 -5.68520065846585 -2.00526145074507 -2.86537000080008
 1  5.18002592389239 -1.33368384828483 -0.04490126642664
 1  5.67356879817982 -0.06589358545855 -1.06546102860286
 1  4.19411932343234  0.74542103420342 -4.17591582108211
 1  3.68866461806181  2.15202628132813 -3.25781811721172
 1  2.56743253255325  1.55685018291829 -4.38983213521352
 1  0.81053496349635  2.63211470797080 -2.80825171717172
 1 -7.38257734383438 -3.65392757665767 -0.82169119031903
 1 -7.80211847674767 -3.18595992649265 -2.54053710721072
 1  3.71232495999600  3.59066842784278  3.60637389158916
 1 -0.78701258005801  4.10898217771777 -3.34905280068007
 1 -3.81292988258826  4.82739932173217 -0.50528167966797
 1 -3.97767651735173  3.50658545214521  1.03779459085909
 1 -3.05560387658766  5.08463875497550  1.07165293519352
 1  8.50181587508751 -2.27618077227723 -0.59145978097810
 1 -1.36098902350235  6.58245870297030 -2.79991484368437
 1 -2.22346469936994  6.26858823462346 -0.94873078057806

