%nproc=4
%Mem=3GB
# td=(NStates=1) B3LYP/SVP 

TD

0 1
 8 -3.14202111231123 -1.39967502300230 -2.82518317261726
 8  3.01809226402640  3.18487014551455  3.02464673557356
 8  3.87071137933793  1.40978810711071  4.17802224582458
 8  7.69362796569657 -1.64158027222722 -0.76866762856286
 8  6.51776593299330 -3.17034782968297 -1.87017346544654
 8 -2.71028193469347  1.72968845794579  1.40922098259826
 7 -0.27662340854085 -2.44929124342434  0.93872871367137
 7 -2.66478851685168 -1.14676981198120 -0.61778392299230
 7  1.02883443284328  0.08968987868787 -0.75730066726673
 7 -1.10842998849885  1.57791319921992 -0.18849974787479
 6 -3.36441159085909 -1.24060162256226  0.59512648654865
 6 -2.68704733083308 -2.21145529172917  1.68504381118112
 6 -1.22592823452345 -2.00841865586559  1.83483147174717
 6 -0.54575437773777 -1.28583977567757  2.87531555205521
 6  0.81427253985399 -1.23206820782078  2.46866806140614
 6  0.96324901110111 -1.89437587228723  1.26033083708371
 6 -4.73394834143414 -1.85495114381438  0.21404829212921
 6  1.92086667806781 -0.45366569616962  3.06575873037304
 6 -4.75861222262226 -2.12248095649565 -1.09230957145715
 6  2.01860981738174 -1.87866605880588  0.25047732643264
 6  2.02838886078608 -0.89668158035804 -0.69557345884588
 6 -3.49917458735874 -1.52669463476348 -1.62801008440844
 6  3.06971803500350 -0.69325007330733 -1.79911381028103
 6 -1.25286385858586 -0.57352120912091  3.95650115841584
 6 -5.76546177027703 -2.15196167646765  1.29355036063606
 6  2.58390804770477  0.46671403960396 -2.40907551755175
 6  1.82448188058806  1.00947663966397  2.75261190279028
 6  1.47730109660966  1.00981763036304 -1.68749485548555
 6  4.24396974607461 -1.55952538163816 -2.08282791289129
 6 -5.73885822192219 -2.71339342974297 -2.13140658885889
 6  5.35632118311831 -1.09005075027503 -1.21203462036204
 6  3.28668876427643  1.07745614821482 -3.56806331553155
 6  0.58469089318932  2.08270341724172 -1.89741148624863
 6  2.97845648594859  1.88488807430743  3.41549689488949
 6 -0.61193502510251  2.33390802300230 -1.19645493339334
 6 -6.71691561806181 -3.47742150625063 -1.72411096979698
 6  6.56065563516352 -2.05570382548255 -1.42146283628363
 6 -1.47876653145315  3.54458669186919 -1.30521859655966
 6 -2.45350944034403  3.48878935793579 -0.26103400960096
 6 -2.15136740914091  2.18332926642664  0.45565449744975
 6 -1.14161413981398  4.72153841404140 -2.03803557155716
 6 -3.46032666916692  4.36384686758676  0.37958219791979
 6 -1.97345123632363  5.83990940914091 -2.27239097189719
 1 -3.61633012621262 -0.46190168006801  1.15530973557356
 1 -2.90807243364336 -3.21587671267127  1.21954230333033
 1 -3.33026284608461 -2.20136358075808  2.58879826852685
 1 -0.68770407520752 -2.62204096919692 -0.19782277227723
 1 -1.92381077077708 -0.32715901940194 -0.84616871927193
 1  1.95869383078308 -0.42415386918692  4.11129322842284
 1  2.87921525442544 -0.92084397569757  2.90187511691169
 1  2.52652146604661 -2.60584216711671  0.39812286548655
 1 -1.99915254455445 -1.20081935593559  4.43786084788479
 1 -0.50370013801380 -0.11937614121412  4.71207756425643
 1 -1.87462677647765  0.25110755745575  3.44993375867587
 1 -5.77567835503550 -1.52974110531053  2.27922221522152
 1 -5.76224498519852 -3.23803790839084  1.65046789308931
 1 -6.77639501630163 -2.03835947934793  0.77894425612561
 1  1.70924706410641  1.40467040894089  1.86972458375838
 1  0.78582853435344  1.56906915121512  3.37134510821082
 1  0.20475873347335  0.22033640344034 -0.08352038433843
 1  4.43743946314632 -1.24908796779678 -2.97810341224122
 1  4.01142197199720 -2.53348512771277 -1.90922803080308
 1 -5.38611074947495 -2.48616954155416 -3.04447791159116
 1  5.29226714801480 -1.19824030393039 -0.14391116741674
 1  5.69344078537854 -0.20216721282128 -1.49653413591359
 1  4.21209112061206  0.65262175427543 -3.79527775727573
 1  3.53863961556156  2.19560063876388 -3.61973430883088
 1  2.52006779607961  0.92416691459146 -4.35214836683668
 1  0.76825073507351  2.86690818731873 -2.70477136913691
 1 -6.98624771087109 -3.81127331123112 -0.81492051325133
 1 -7.26248451335133 -3.68389972047205 -2.63386644014401
 1  3.98488221572157  3.57946730773077  3.37250050425043
 1 -0.04512839163916  4.75819709920992 -2.59255715111511
 1 -4.45118370797080  4.55894247604760 -0.20667181868187
 1 -3.76127487718772  4.00515530913091  1.41229204060406
 1 -3.11331964816482  5.39927021812181  0.61799756965697
 1  8.38474416791679 -2.33810696489649 -0.87374800980098
 1 -1.59083200780078  6.59737019411941 -2.97360221242124
 1 -3.17287964086409  5.82215359115912 -1.98022392989299

