%nproc=4
%Mem=4GB
# td=(NStates=1) B3LYP/SVP 

TD

0 1
 8 -5.14279050905091  0.08153359295930 -3.21461125082508
 8  3.01631163666367  3.03572082678268  3.07031310971097
 8  3.41604995359536  0.81057645664566  2.84159604470447
 8  1.54518215771577 -7.36842311241124  1.40115862216222
 8  0.86734162216222 -7.10266669026903 -0.67153513641364
 8  1.59172622072207  3.93422654545455 -0.02160265286529
 7 -2.23367297839784 -1.02350078027803  0.68175519211921
 7 -4.27254213561356  0.71468913541354 -1.13906226102610
 7  1.82366275787579 -0.68288986198620 -0.33954243184318
 7  2.48646418831883  1.88206395189519 -0.58141488818882
 6 -4.76761315251525  1.14227572457246  0.14950074987499
 6 -4.47443483628363  0.27392755805581  1.33016037373737
 6 -3.03587868346835 -0.09599934323432  1.41699371237124
 6 -1.97336643334333  0.57044200140014  2.25841901150115
 6 -0.72188879917992 -0.01606704220422  1.95354603220322
 6 -0.97571175897590 -1.07606066496650  0.93003482288229
 6 -6.25063741984198  1.39759754905491 -0.09628484388439
 6  0.57989659625963  0.23466414291429  2.62367138723872
 6 -6.54089460396040  0.93827307570757 -1.39447517621762
 6 -0.17571382748275 -1.98721745864586  0.20631271277128
 6  1.11637853405340 -1.91105065166517 -0.22345392759276
 6 -5.27287788808881  0.56212442714271 -2.07888520002000
 6  1.95774986018602 -2.93038357675768 -0.79718672797280
 6 -2.25319102000200  1.61631738863886  3.19291368156816
 6 -7.04779227242724  2.06421455065507  0.90702468836884
 6  3.10672700640064 -2.44865481668167 -1.19158040314031
 6  1.18022404970497  1.64521301470147  2.56195983188319
 6  3.00782885818582 -0.91555018061806 -0.97294128232823
 6  1.62911668186819 -4.34868083248325 -0.86440815771577
 6 -7.77390329632963  1.01024266186619 -2.14567295509551
 6  1.70295786138614 -5.19272020662066  0.44136013151315
 6  4.19476508550855 -2.99718818761876 -1.97211644294429
 6  3.91368223882388  0.06933633713371 -1.42860754315432
 6  2.58045866706671  1.76742433063306  2.88372427232723
 6  3.61202558035804  1.47961337283728 -1.09636620392039
 6 -9.06020100350035  0.85948810911091 -1.63252806810681
 6  1.35286035073507 -6.64820147034704  0.27776643564356
 6  4.43797263186319  2.62510926582658 -1.54174125722572
 6  3.71573084148415  3.81943246694669 -1.15951724602460
 6  2.46422799359936  3.31420927202720 -0.52099086178618
 6  5.79235284058406  2.54021886248625 -2.04281623672367
 6  4.21886750655066  5.28590346614661 -1.13532554595460
 6  6.61120117771777  3.50457614241424 -2.48667314421442
 1 -4.28034252035204  2.21957303740374  0.28424146444645
 1 -5.06282093899390 -0.65974745084508  1.10005474967497
 1 -4.76859369926993  0.73175717541754  2.33332024172417
 1 -2.78902794269427 -1.63574096959696  0.02093517171717
 1 -3.32143314061406  0.41801371847185 -1.47333488438844
 1  0.47601203590359  0.01969228122812  3.74779432753275
 1  1.45265927532753 -0.17693236063606  2.18473360616062
 1 -0.63218187908791 -2.85434289928993 -0.10626562426243
 1 -3.27834798009801  1.80695195929593  3.44941493119312
 1 -1.73072428752875  1.36418578247825  4.10644903280328
 1 -1.86916329742974  2.48224204400440  2.71686910871087
 1 -6.28072152305230  2.72940174367437  1.46235846884689
 1 -7.46694646164616  1.51361117031703  1.68756576727673
 1 -7.73107904510451  2.70579666276628  0.55625410561056
 1  1.20831353975398  2.25494753135314  1.60421848914892
 1  0.56318943144314  2.32956977897790  3.28688451265127
 1  1.60899522592259  0.30666131113111 -0.12528789408941
 1  2.41523931613161 -4.88904273467347 -1.59959456915691
 1  0.63589538703870 -4.43174302180218 -1.31254973837384
 1 -7.90478153995400  1.31024125472547 -3.31603754195420
 1  0.91576376527653 -4.78867004670467  1.02991056765677
 1  2.74153042314231 -4.89450665516552  0.92852066696670
 1  4.06516157845785 -4.06792424462446 -2.17435089618962
 1  5.14252535093509 -2.99049789999000 -1.37007062466247
 1  4.49581101420142 -2.61089332193219 -2.86243531713171
 1  4.64731435093509 -0.18896099059906 -2.16916309200920
 1 -9.35116871737174  0.28078553405341 -0.53511620142014
 1 -10.01557969156916  1.07178859455946 -2.39399549954995
 1  4.02393708020802  2.98989237293729  3.22782754845485
 1  5.99846331453145  1.52744489368937 -2.17232604760476
 1  4.81956265606561  5.59914267846785 -0.33788240814081
 1  4.70600262276228  5.41707847354735 -2.16040858575858
 1  3.07582525212521  5.82044165056506 -0.81084282588259
 1  1.23732104020402 -8.22744390149015  1.14500055495550
 1  7.65800824522452  3.28986452635263 -2.92578985228523
 1  6.36978886638664  4.55899141134113 -2.54679703220322

