%nproc=4
%Mem=3GB
# td=(NStates=1) B3LYP/SVP 

TD

0 1
 8 -2.96289319951995 -1.22635769126913 -2.74909556385639
 8  2.99295975077508  3.30054171267127  3.25315958685869
 8  3.95578988718872  1.37402453075308  4.19669411301130
 8  7.62918152105211 -1.96439255345535 -0.56050681248125
 8  6.55768992539254 -3.05670646554655 -2.34293074117412
 8 -2.74636554305431  1.75145063416342  1.47872793329333
 7 -0.29480522672267 -2.42828914321432  0.97429227002700
 7 -2.59143118111811 -1.22196733173317 -0.53911605620562
 7  1.09866141554155  0.14809571927193 -0.71699663686369
 7 -1.03599274477448  1.56447185508551 -0.14112501040104
 6 -3.28032318201820 -1.46461402380238  0.62005897979798
 6 -2.65098372447245 -2.45362950915092  1.64321962876288
 6 -1.20762640434043 -2.02742055605561  1.76803479207921
 6 -0.68922872517252 -1.19122031373137  2.81583960446045
 6  0.79446055865587 -1.15318031903190  2.53900509510951
 6  0.99085177137714 -1.74925135983598  1.32887769176918
 6 -4.67602254885489 -1.90663631233123  0.16319320662066
 6  1.91241583298330 -0.37185751535153  3.18888104260426
 6 -4.61478784018402 -2.16503521192119 -1.17293763426343
 6  1.99539749614962 -1.82306049824982  0.35931821052105
 6  2.05531155305531 -0.89196110831083 -0.67512141364136
 6 -3.37341201110111 -1.46385835113511 -1.64911219461946
 6  2.93179424262426 -0.65135588388839 -1.78017191609161
 6 -1.39746831903190 -0.39878373537354  3.94539004730473
 6 -5.75030025412541 -2.24974145444544  1.19665067066707
 6  2.42323198009801  0.47066443464346 -2.49987459745975
 6  1.97856728912891  1.17626331833183  2.72467910951095
 6  1.33775714221422  1.02174882348235 -1.75657176317632
 6  4.12827817691769 -1.51586101520152 -2.02378200830083
 6 -5.70337467356736 -2.48495058545855 -2.09920336853685
 6  5.37573312431243 -1.31111285648565 -1.05761917881788
 6  3.05567566296630  1.11081948454845 -3.73853036223622
 6  0.46442886698670  2.12592773967397 -2.00801254635464
 6  3.08133677397740  1.91380096559656  3.43466881208121
 6 -0.62554638623862  2.37092172437244 -1.12317760566057
 6 -6.63776770327033 -3.50801456555656 -1.90288884758476
 6  6.53320288988899 -2.24283253835383 -1.40579126912691
 6 -1.52062071687169  3.60483271647165 -1.20427850255025
 6 -2.34520861026103  3.46488696769677 -0.13619152535254
 6 -2.13090536293629  2.14876581008101  0.48142707470747
 6 -1.24959493789379  4.63978023822382 -2.25087685568557
 6 -3.43566420292029  4.34632511541154  0.46522076177618
 6 -2.05706959815982  5.64176959515952 -2.39980371317132
 1 -3.43119161236124 -0.38910440034003  1.13626783138314
 1 -2.60647227362736 -3.27335246024602  1.07220756985699
 1 -3.22434225402540 -2.46782022642264  2.58334772347235
 1 -0.53934923972397 -2.84553331843184 -0.00349333933393
 1 -1.93169155885589 -0.38352465596560 -0.78469257165717
 1  2.11064902630263 -0.28147960176018  4.30069216831683
 1  2.77693502640264 -0.79109100040004  3.04425935533553
 1  2.94550336423642 -2.56157774067407  0.44442749594959
 1 -2.41928455775578 -0.94489376337634  4.35015207700770
 1 -0.80317008500850  0.05151094749475  4.49199555605561
 1 -1.66877619141914  0.65687813451345  3.35405417071707
 1 -5.68178896609661 -1.55719385058506  2.22299659265927
 1 -5.75235399609961 -3.29732383698370  1.63190603690369
 1 -6.73353072987299 -2.14280992439244  0.66421278297830
 1  1.93638977837784  1.25031497339734  1.57959557085709
 1  1.09844979647965  1.48878112241224  2.93428140184018
 1  0.36406466406641  0.49930430023002 -0.06837887018702
 1  4.42535825502550 -1.27954101310131 -2.98118372027203
 1  3.91435226502650 -2.57052883208321 -2.15677278527853
 1 -5.65002714111411 -1.96987791239124 -3.03402686648665
 1  5.11388931023102 -1.39614009390939  0.03148637233723
 1  5.76840828212821 -0.34714171027103 -0.94760924342434
 1  3.95149506100610  0.66674316641664 -4.13350157965797
 1  3.49393514511451  2.16567764646465 -3.47634997039704
 1  2.33672946224622  1.07051154905491 -4.66925007700770
 1  0.64329823982398  2.83193468996900 -2.89396028802880
 1 -6.72839192529253 -4.10657284118412 -1.04684370557056
 1 -7.30267853275328 -3.65461679217922 -2.69304235773577
 1  3.67007073457346  3.70127948894889  3.83454670887089
 1 -0.66883076187619  4.29432071157116 -3.09769766516652
 1 -4.01704029362936  4.58714529632963 -0.34503565506551
 1 -3.98563731343134  3.72914770837084  1.20429124052405
 1 -3.26032434863486  5.46474676577658  0.73576934683468
 1  8.25814150765077 -2.52450560476048 -0.69369000400040
 1 -1.68807173177318  6.28524898199820 -3.17124197639764
 1 -2.96078843174317  6.01509288508851 -1.77221312881288

