%nproc=4
%Mem=3GB
# td=(NStates=1) B3LYP/SVP 

TD

0 1
 8 -3.35328223842384 -1.25593064856486 -2.80507116141614
 8  3.14059451425143  3.07773943244324  2.87629190009001
 8  3.71479578777878  1.44023115141514  4.26635107870787
 8  7.73249185208521 -1.54063017721772 -0.62844360616062
 8  6.84280843724372 -2.93593438833883 -2.00482693079308
 8 -2.70155106160616  1.48494398349835  1.35597565806581
 7 -0.11461720792079 -2.43369968426843  0.85204004480448
 7 -2.69951198919892 -1.18962409740974 -0.62629477407741
 7  1.10476202560256  0.05611652135214 -0.77060199739974
 7 -0.94159330483048  1.51244665256526 -0.09407030493049
 6 -3.33045819551955 -1.27496505890589  0.70226720062006
 6 -2.57574620072007 -2.41834598079808  1.61062636943694
 6 -1.11544718641864 -2.09104691869187  1.76737472607261
 6 -0.58845864816482 -1.27624881658166  2.82840086058606
 6  0.72857396999700 -1.12168716971697  2.51598279287929
 6  0.97373005920592 -1.86434286898690  1.26750155415542
 6 -4.78641358795880 -1.78302395109511  0.24054094139414
 6  1.78319291069107 -0.38465879547955  3.14966712121212
 6 -4.84175053645365 -1.91217992639264 -1.07137747824782
 6  2.17072502890289 -1.88377656985699  0.40217249594959
 6  2.03917993989399 -0.99587149934994 -0.66834073557356
 6 -3.58863353325332 -1.47330929622962 -1.71396868026803
 6  2.98138920212021 -0.63911465976598 -1.77540143904390
 6 -1.36138471067107 -0.56438029502950  3.84879038733873
 6 -5.74152937703770 -2.25090157045705  1.28071907750775
 6  2.54429408630863  0.42457982618262 -2.44362897289729
 6  1.77344677707771  1.11264695669567  2.70187682928293
 6  1.33056642314231  0.87132378097810 -1.70139624562456
 6  4.27341269036904 -1.49134856395640 -1.94263389348935
 6 -6.04007834393439 -2.29988207860786 -1.97420086828683
 6  5.50632618361836 -1.12441418661866 -1.09430284718472
 6  3.28367846324632  1.21115951855186 -3.57250375957596
 6  0.51772419651965  1.97382252915292 -1.98268001310131
 6  3.02214085438544  1.87311689718972  3.33259860506051
 6 -0.62630646224622  2.27504213641364 -1.16732202010201
 6 -7.04057798429843 -3.14102786688669 -1.69232779147915
 6  6.66151572117212 -1.96738499359936 -1.37743843384338
 6 -1.47392604740474  3.46421865506551 -1.22899097379738
 6 -2.28732282168217  3.42278275727573 -0.11905981218122
 6 -2.03774604700470  2.03892482598260  0.52281121312131
 6 -1.31286126452645  4.50873713391339 -2.26625839383938
 6 -3.39786042254225  4.25323580648065  0.34307854755476
 6 -1.93377726892689  5.60829624782478 -2.42349608240824
 1 -3.26060455365537 -0.19243473337334  1.07705190979098
 1 -2.68734036043604 -3.51179630463046  1.28229857895790
 1 -3.10020984078408 -2.21406485088509  2.58305769446945
 1 -0.26378168296830 -2.92548131323132 -0.13132612261226
 1 -1.88761715141514 -0.49736604010401 -0.81876597899790
 1  1.55764372577258 -0.53066452025203  4.15594769386939
 1  2.81105843874387 -1.02873476477648  3.10148507790779
 1  2.82995180908091 -2.83929551245125  0.40857391059106
 1 -2.01690431973197 -1.42262153615362  4.37622468426843
 1 -0.71292106010601 -0.14958916251625  4.57363371987199
 1 -2.03272258605861  0.25823827052705  3.30828959425943
 1 -5.63712449964996 -1.92072020322032  2.24973926692669
 1 -5.77301606230623 -3.39334343894389  1.43880672697270
 1 -6.69138651545155 -1.99180482388239  1.03678003970397
 1  2.16622276167617  1.08620856275628  1.67626523782378
 1  0.93204315581558  1.97646989128913  2.81873984768477
 1  0.28399665726573  0.20414478427843 -0.06884891719172
 1  4.77048276747675 -1.10897395639564 -3.03618922082208
 1  4.26470730053005 -2.59150092929293 -1.96292340034003
 1 -6.06752889128913 -1.70013093769377 -3.00353381718172
 1  5.08381630293029 -1.31156163606361 -0.09568634493449
 1  5.77686912821282 -0.17133412951295 -1.15454993749375
 1  4.31326123762376  0.69151564366437 -3.84648287778778
 1  3.42169792139214  2.29682076077608 -3.65769810521052
 1  2.64290007930793  1.18683318121812 -4.54902805480548
 1  0.71793570357036  2.51426292279228 -2.80608150015001
 1 -7.50176926302630 -3.49170135403540 -0.76784580578058
 1 -7.93774203910391 -3.03978530903090 -2.42232528602860
 1  3.91641536903690  3.30663002400240  3.36250950515051
 1 -0.39798367716772  4.11723300280028 -2.74329222462246
 1 -4.31729031863186  4.18593517531753 -0.34814596609661
 1 -3.83264201390139  3.90278507210721  1.30785159655966
 1 -2.84595291149115  5.26672696379638  0.33766953685369
 1  8.65112080558056 -2.04635778997900 -0.74435507050705
 1 -1.84472739733973  6.36046650375038 -3.16614146634663
 1 -3.00174252715271  5.89327070287029 -1.89247515501550

