%nproc=4
%Mem=3GB
# td=(NStates=1) B3LYP/SVP 

TD

0 1
 8 -3.09330624082408 -1.37075213071307 -2.81582223652365
 8  2.67150760556056  3.22732439093909  3.30682495339534
 8  4.14561887008701  1.23003013131313  3.85084952855286
 8  7.79204780768077 -1.33254936913691 -0.88665942774277
 8  6.65128928532853 -2.99543033793379 -1.98199464756476
 8 -2.63777468396840  1.62222771187119  1.56076613711371
 7 -0.31303704990499 -2.42281859615962  0.97833267406741
 7 -2.66883892189219 -1.18425356035604 -0.59877202180218
 7  1.20264181358136 -0.03976306660666 -0.70858579577958
 7 -1.01901104660466  1.39232464036404 -0.15247614551455
 6 -3.43853900360036 -1.20181774417442  0.56139311321132
 6 -2.66072469856986 -2.18687283348335  1.66634194099410
 6 -1.23096873857386 -2.02332014601460  1.86700468906891
 6 -0.57967777007701 -1.19055024672467  2.91223924442444
 6  0.78180929352935 -1.22013701470147  2.49658085268527
 6  0.93282596879688 -1.89424585928593  1.34476928092809
 6 -4.70776572317232 -1.73308895759576  0.22103899119912
 6  1.83777836923692 -0.40562089168917  3.19492164666467
 6 -4.74801116251625 -2.02147085548555 -1.13100344084408
 6  2.12131008740874 -1.84955314751475  0.35348762746275
 6  2.06950297219722 -1.01865377757776 -0.68762266376638
 6 -3.43582825272527 -1.51561352665267 -1.72603988738874
 6  3.05048611181118 -0.76979772807281 -1.74278817771777
 6 -1.34969354155416 -0.52839669666967  4.06438194649465
 6 -5.79359458355836 -2.21658813911391  1.13681468706871
 6  2.59822947984799  0.37819518771877 -2.30832544254425
 6  1.75126455885589  1.03814950695070  2.80421706330633
 6  1.41470483698370  0.83647029562956 -1.79145525152515
 6  4.31963731283128 -1.56851628072807 -1.97266689678968
 6 -5.83649798589859 -2.32494458485849 -2.06656010421042
 6  5.47147269826983 -0.99599134433443 -1.18366178307831
 6  3.14302439783978  1.09279768236824 -3.61613812301230
 6  0.43029545364536  1.89300444734473 -2.00746249134914
 6  2.97314595489549  1.76829641514151  3.40769611481148
 6 -0.64333816541654  2.19427405960596 -1.22574786268627
 6 -7.02110603710371 -2.97380114421442 -1.70419897859786
 6  6.65003457305731 -1.85559381448145 -1.35653634363436
 6 -1.39900855565557  3.46132836603660 -1.23389146384638
 6 -2.29111320072007  3.38680915991599 -0.18664657085709
 6 -2.08731100350035  2.06645757925793  0.47896682868287
 6 -1.25613559195920  4.41944820502050 -2.27717948594859
 6 -3.34848548504851  4.36210669356936  0.20524476417642
 6 -2.11528541974197  5.61315673387339 -2.38872260506051
 1 -3.26034452765276 -0.26760225012501  1.11005521012101
 1 -3.03437506390639 -3.26213133813381  1.14765511461146
 1 -3.15471529132913 -2.28032147654765  2.63484287298730
 1 -0.59471477627763 -2.48652741784178 -0.12295528552855
 1 -1.97691608130813 -0.37008331183118 -0.77091119351935
 1  1.71699966136614 -0.76946840064006  4.20988308740874
 1  2.84975230813081 -0.89267115841584  2.85499042844284
 1  2.72842165606561 -2.72786436933693  0.36722977617762
 1 -2.00447307660766 -1.41900117411741  4.52110917271727
 1 -0.79641940994099 -0.37554175777578  4.86346270277028
 1 -1.96515582938294  0.31410385708571  3.66087485278528
 1 -6.03726451365136 -1.36926505770577  1.99102339533953
 1 -5.75170393109311 -3.20905501010101  1.53285613191319
 1 -6.82239961676168 -2.27641328472847  0.76813317501750
 1  1.83346948634864  1.20712065396540  1.76778438973897
 1  0.69795974747475  1.40800304460446  3.04679265296530
 1  0.60861911951195  0.08971334113411 -0.01405343764376
 1  4.44858057725773 -1.32349540854085 -3.07139274117412
 1  4.10720154995500 -2.63853563276328 -1.73299040704070
 1 -5.62088422682268 -1.88595952055205 -3.04859832363236
 1  5.26185410671067 -0.91611209110911 -0.10571734803480
 1  5.84427586888689  0.15217822172217 -1.64048853135313
 1  3.84410432193219  0.19762625472547 -4.17281551105111
 1  3.88840459205921  1.91822290099010 -3.27272960836084
 1  2.15567135643564  1.36593109100910 -4.25466861886189
 1  0.68795270527053  2.55039653615362 -2.76781767376738
 1 -7.15490457655766 -3.38265044894490 -0.63442246344634
 1 -7.90704896979698 -3.09142047254725 -2.30050310381038
 1  3.68218194569457  3.67149651065107  3.52127538173817
 1 -0.31700557935794  4.30243152265226 -2.95558345374537
 1 -4.11780036963696  4.71429801160116 -0.56867801930193
 1 -4.08504725442544  3.93035782938294  1.07299811121112
 1 -2.82051036723672  5.33838412951295  0.62537830773077
 1  8.62308800230023 -2.01398455265527 -0.96337697269727
 1 -1.77343026762676  6.40496095319532 -2.99394424662466
 1 -2.86628898179818  5.61474285008501 -1.68582448994899

