%nproc=4
%Mem=3GB
# td=(NStates=1) B3LYP/SVP 

TD

0 1
 8 -3.17769467966797 -1.41109616511651 -2.82739339363936
 8  2.99049950475047  3.26159781828183  3.01528579947995
 8  3.70738504670467  1.52117924622462  4.29225366896690
 8  7.75861446434643 -1.36881299549955 -0.70862162396240
 8  6.79669382578258 -3.03490428532853 -1.91432788088809
 8 -2.74007491399140  1.64433992309231  1.47618767926793
 7 -0.24684043024302 -2.41985830013001  0.86040088088809
 7 -2.61582362036204 -1.29066420142014 -0.62602474707471
 7  1.07560911031103 -0.04231332163216 -0.75599053625363
 7 -1.12096124162416  1.39291469936994 -0.24706560446045
 6 -3.32232738243824 -1.41941950435044  0.61367834173417
 6 -2.63730235633563 -2.40768491469147  1.65500080688069
 6 -1.24845048674867 -2.10525833983398  1.76056404500450
 6 -0.52933273557356 -1.28127931963196  2.90154817531753
 6  0.77708882148215 -1.18895389638964  2.52334352895290
 6  1.06690937713771 -1.91132756745675  1.29020382438244
 6 -4.69719466606661 -1.89658530723072  0.26873376067607
 6  1.89599419081908 -0.48094842444244  3.23018517301730
 6 -4.84205056645665 -2.00778948734873 -1.13504384488449
 6  2.14126208260826 -1.85906409860986  0.33647592629263
 6  1.99214523642364 -0.95984789698970 -0.71359526102610
 6 -3.48566323622362 -1.53839580488049 -1.66354363776378
 6  2.98233929712971 -0.68048879717972 -1.88670256915692
 6 -1.27542611481148 -0.48970282728273  3.93128863716372
 6 -5.79207443154315 -2.17769424972497  1.24688569416942
 6  2.50011966886689  0.42273964216422 -2.54619922992299
 6  2.00708014041404  1.02679837183718  2.75539218081808
 6  1.32992635913591  0.90243689228923 -1.82763886988699
 6  4.20561591069107 -1.54258368746875 -2.14071370147015
 6 -5.77026136223622 -2.42575466586659 -2.02112556075608
 6  5.39271482248225 -1.15322706790679 -1.14578799569957
 6  3.10381047644764  1.16474487708771 -3.66866337553755
 6  0.46180860496050  2.04307945484548 -1.97252899799980
 6  2.94027266756676  1.89917950345035  3.49302464766477
 6 -0.67851168276828  2.18899353155316 -1.16899218711871
 6 -7.09019294579458 -3.01917568166817 -1.71815037373737
 6  6.68525809540954 -1.99628788388839 -1.32367305730573
 6 -1.44664331913191  3.48377061026103 -1.16614468916892
 6 -2.22608669806981  3.40766124512451 -0.16461436763676
 6 -2.10554282668267  2.15943687718772  0.49149808180818
 6 -1.24120409880988  4.51299755995600 -2.23007477547755
 6 -3.34042467896790  4.40975145804580  0.29592383208321
 6 -1.69242313351335  5.79098451665167 -2.22967670047005
 1 -3.52577107030703 -0.42311780168017  1.30208441304130
 1 -2.85516714311431 -3.50634575957596  1.36636698579858
 1 -3.06963678347835 -2.17642108650865  2.65776516521652
 1 -0.20108541334133 -2.55094385948595 -0.28217120712071
 1 -2.09791818151815 -0.37101340484048 -0.60559466186619
 1  1.73828178957896 -0.55784723852385  4.34081618071807
 1  2.82815014791479 -0.87913980528053  3.05352028142814
 1  2.77291610551055 -2.82740432333233  0.13487654085409
 1 -2.09751238053805 -1.19455872987299  4.15379244104410
 1 -0.81704147214721 -0.42827703130313  4.89445580208021
 1 -1.56550586438644  0.54872731943194  3.46828559385939
 1 -5.47792858005801 -1.94033216441644  2.26397069006901
 1 -5.99220798149815 -3.26321042564256  1.25607845414541
 1 -6.84837221402140 -1.75371101450145  1.09533589528953
 1  2.21113725312531  1.25539548144814  1.53147075837584
 1  0.93880383188319  1.49421166546655  3.02947092079208
 1  0.28696695429543  0.26880124992499 -0.14591662396240
 1  4.45775149434944 -1.35201826082608 -3.13338894079408
 1  3.92765359515952 -2.58813059225923 -1.93262037003700
 1 -5.63470560896090 -2.23068399299930 -2.93197666146615
 1  4.92471039233923 -1.23558403830383 -0.13907068336834
 1  5.32176361766177 -0.10265726182618 -1.03020750325032
 1  4.10573048454846  0.48456494859486 -3.78119634913491
 1  3.33107885948595  2.28133921262126 -3.33550588598860
 1  2.47791358065807  1.10548504640464 -4.56057920992099
 1  0.73793770377038  2.70942243874387 -2.74403529552955
 1 -7.53139222532253 -3.37704988888889 -0.70719974117412
 1 -7.77168543344334 -3.20266159665967 -2.49588264176418
 1  3.85334906240624  3.66804616561656  3.22680593479348
 1 -0.66683056185619  4.02436371587159 -3.18408630403040
 1 -3.96308489808981  4.48358494029403 -0.58079923142314
 1 -3.97089583928393  3.99285407900790  1.34425523692369
 1 -2.92756107230723  5.30779107020702  0.48466423632363
 1  8.41515720922092 -2.08395154935494 -0.89463009800980
 1 -1.34892781738174  6.44911536863686 -2.93206805900590
 1 -2.21759411231123  6.16916829262926 -1.49237514501450

