%nproc=4
%Mem=4GB
# td=(NStates=1) B3LYP/SVP 

TD

0 1
 8 -5.32399862986299  0.13862930253025 -3.30221001070107
 8  3.01900190569057  3.00343759845985  3.21660773917392
 8  3.28627697629763  0.74302970197020  3.25220710581058
 8  1.73510114961496 -7.27282355245524  1.42571107740774
 8  0.70792568056806 -7.03681010461046 -0.49310729362936
 8  1.69055610371037  3.99992311511151  0.10169967736774
 7 -2.39082869396940 -0.89354778497850  0.72260927752775
 7 -4.35666054745475  0.55512317881788 -1.28800715551555
 7  1.84342473407341 -0.68342991599160 -0.51303978157816
 7  2.53363890579058  1.89143488898890 -0.46835358205821
 6 -4.72284867606761  1.26083758075808 -0.00632483268327
 6 -4.39887728052805  0.43560372567257  1.24418177587759
 6 -2.95718081368137  0.11659191589159  1.45918793179318
 6 -1.97132622932293  0.61398635583558  2.22087525712571
 6 -0.67287389768977 -0.02071750725073  1.78520919851985
 6 -1.01924611241124 -1.01696475537554  0.84173599299930
 6 -6.20882323842384  1.29857764706471 -0.18236345174517
 6  0.59701830843084  0.09435011151115  2.65279429952995
 6 -6.61132164666467  0.80018926732673 -1.41847757645765
 6 -0.18768502460246 -2.00233897079708  0.21096317781778
 6  1.09719661586159 -1.86074562116212 -0.32742432463246
 6 -5.37548814911491  0.52046026072607 -2.15293260476048
 6  1.95057914311431 -2.92223276167617 -0.85128213751375
 6 -2.09663536443644  1.72158791569157  3.25755014521452
 6 -7.02116961016102  2.06663479267927  0.88997298319832
 6  3.11064739843984 -2.36994694589459 -1.30755200030003
 6  1.06752277957796  1.65533402680268  2.52735637153715
 6  3.04023209850985 -0.95803442904290 -1.09825381358136
 6  1.47486125632563 -4.41233719811981 -1.01946366326633
 6 -7.95074098009801  0.67094873247325 -2.04847323512351
 6  1.81927949354935 -5.11517245184518  0.35625162066207
 6  4.35479108810881 -2.97658612741274 -2.05283451475148
 6  3.85410628122812  0.11583098659866 -1.44725940834083
 6  2.62030265146515  1.74536212441244  3.09041494139414
 6  3.55187956575658  1.47486289778978 -1.13947051435143
 6 -9.18086306970697  0.71491365166517 -1.50335515081508
 6  1.33370843554355 -6.54714136433643  0.31099975897590
 6  4.46492532713271  2.59333608850885 -1.55196227932793
 6  3.95474474287429  3.75833635733573 -1.10781207550755
 6  2.60485205600560  3.32120997209721 -0.34104286698670
 6  5.77286089138914  2.43658849944995 -2.29102105720572
 6  4.27064268406841  5.21696657245725 -1.09723173657366
 6  6.66140619821982  3.40308599339934 -2.48364284118412
 1 -4.15404989108911  2.23555463556356  0.12695573587359
 1 -5.06933159005901 -0.36525800190019  1.31975671987199
 1 -4.63263010291029  1.08119211891189  2.18950586028603
 1 -2.91733077297730 -1.28269566506651  0.00610368856886
 1 -3.35987698499850  0.97578949604961 -1.56751430233023
 1  0.32967740244024  0.10154046604660  3.67272682078208
 1  1.50127413681368 -0.44537920532053  2.22144727752775
 1 -0.78452711361136 -2.95906337133713  0.03022802510251
 1 -3.31168131343134  2.05324658875888  3.50926091579158
 1 -1.77975919101910  1.41086044994499  4.31002939083908
 1 -1.55652203330333  2.46388020782078  3.04513193499350
 1 -6.33088653955395  2.88368717221722  1.35322755575558
 1 -7.32104187118712  1.41820162936294  1.81151816251625
 1 -7.82523846104610  2.54818090119012  0.24533301350135
 1  0.84259696809681  2.06134817141714  1.54259232653265
 1  0.55821893439344  2.31053787578758  3.18986481068107
 1  1.43898822522252  0.22636328132813 -0.16307167246725
 1  1.98361615381538 -4.97464129452945 -1.80339494919492
 1  0.30536233373337 -4.29346919441944 -1.16787527092709
 1 -8.03688475027503  0.55290552115211 -3.02644858305831
 1  1.10240242914291 -4.60556173587359  1.16457403400340
 1  2.82903917401740 -5.23929113361336  0.75494330923092
 1  4.42028709100910 -3.99133658585859 -2.28809227032703
 1  5.05085618401840 -3.00743959415942 -1.34696831443144
 1  4.52451388448845 -2.50011224382438 -3.14864393799380
 1  4.61742136163616 -0.24701679617962 -2.30056623232323
 1 -9.34764836533653  0.81357881338134 -0.41959464926493
 1 -10.05054318791879  0.38213962966297 -2.11619771977198
 1  4.06432111861186  3.24130751445144  3.35493025872587
 1  5.90869433763376  1.42835498469847 -2.63941275627563
 1  5.32567326712671  5.45981874607461 -0.69430805070507
 1  4.36698872137214  5.62094886058606 -2.17148969386939
 1  3.51729939953995  5.81262086848685 -0.52918466006601
 1  1.21570887898790 -8.15417657475748  1.21934798969897
 1  7.65722816721672  3.08617415731573 -2.98565583888389
 1  6.64821670917092  4.51717722992299 -2.28315066756676

