%nproc=4
%Mem=3GB
# td=(NStates=1) B3LYP/SVP 

TD

0 1
 8 -3.31150806100610 -1.28342339783978 -2.71884253855386
 8  3.42342279707971  3.04235589408941  3.06066033693369
 8  3.34874918311831  1.33981110941094  4.79283372697270
 8  7.70918952185218 -1.69410552475248 -0.56137689948995
 8  6.63944810121012 -2.81383217811781 -2.27681412951295
 8 -2.70373127962796  1.61650713981398  1.45032509300930
 7 -0.32240798699870 -2.39561587588759  0.91681652245225
 7 -2.65598763676368 -1.13737887288729 -0.63067521212121
 7  1.12055360476048 -0.02690178047805 -0.77148208540854
 7 -1.14132327782778  1.41143655155516 -0.24882578047805
 6 -3.36418156785679 -1.32622018441844  0.69910688458846
 6 -2.65736436253625 -2.34117826402640  1.57197250405040
 6 -1.21705734743474 -2.03243105710571  1.83941192979298
 6 -0.50833063536354 -1.09591078277828  2.79203722422242
 6  0.86083719631963 -1.02598759975998  2.39649084368437
 6  1.06559924612461 -1.82369880458046  1.27916272027203
 6 -4.66971191779178 -1.84003965266527  0.31509839713971
 6  1.94735932733273 -0.39062939253925  3.16028818331833
 6 -4.75452181358136 -1.99846855525553 -1.04330467096710
 6  2.16884484088409 -1.90603879607961  0.25476775547555
 6  2.18198422032203 -0.91808372057206 -0.68282218371837
 6 -3.48899356925693 -1.45767773307331 -1.59379666306631
 6  3.02958402160216 -0.66150689898990 -1.71360525942594
 6 -1.27211578377838 -0.49136299329933  3.86501200950095
 6 -5.67892311641164 -2.25074155445545  1.32607361296130
 6  2.57940759765977  0.41633900210021 -2.45581019101910
 6  2.01478091049105  1.06173186518652  2.70914755635564
 6  1.34613798029803  0.91227787638764 -1.71915802180218
 6  4.24709005810581 -1.41599102820282 -2.15456508660866
 6 -5.78706304240424 -2.36636872727273 -1.98422187038704
 6  5.41509706070607 -1.09466121132113 -1.14698811571157
 6  3.18357845324532  1.21103950655065 -3.66125263446345
 6  0.47639006310631  1.99004415131513 -1.98387013211321
 6  2.91997063736374  1.71580116561656  3.62070741594159
 6 -0.59353318491849  2.24114874707471 -1.25368065596560
 6 -6.98190211671167 -3.02018578267827 -1.59178773747375
 6  6.67917748734873 -1.98576683178318 -1.44762545254525
 6 -1.61713036783678  3.41795402860286 -1.34358243294329
 6 -2.47567165656566  3.31582206120612 -0.34096200240024
 6 -2.16761903430343  2.04386532003200  0.34008294029403
 6 -1.32544252265227  4.41595785598560 -2.31604337233723
 6 -3.53165380188019  4.25651613451345  0.08126236593659
 6 -1.80424431563156  5.65428084628463 -2.39564329712971
 1 -3.30735922912291 -0.40309579947995  1.12374657925793
 1 -2.64101572797280 -3.33516864186419  1.15031538063806
 1 -3.07698751855185 -2.57279072347235  2.66819620832083
 1 -0.36267157195720 -2.71629039413941 -0.03001599159916
 1 -2.21815020472047 -0.24047035053505 -0.55967006940694
 1  1.49359732113211 -0.52087354115411  4.28266036513651
 1  3.10043737663766 -0.70929282058206  3.00867579697970
 1  3.04623343724372 -2.59449103200320  0.70510356355636
 1 -2.01120374967497 -1.08631790579058  4.42950001180118
 1 -0.66865663366337 -0.04521872547255  4.54200055655566
 1 -2.02757207100710  0.23872631933193  3.40937970327033
 1 -5.39808059525953 -1.81462959415942  2.37371166416642
 1 -5.91922068276828 -3.30165427002700  1.44992783908391
 1 -6.68250562736274 -2.08586422982298  0.87387374907491
 1  2.19879601900190  1.20862080398040  1.60759837113711
 1  0.98781873337334  1.39524176847685  2.88677665136514
 1  0.42217047464746  0.06714108390839  0.04943291099110
 1  4.55633135233523 -1.33964702370237 -3.17306290819082
 1  4.06881771157116 -2.49602138133813 -2.10777788578858
 1 -5.67097923632363 -1.83815474007401 -2.89843330713071
 1  5.32906082738274 -1.40222070197020 -0.05058183448345
 1  5.54515595689569 -0.10373736983698 -0.96560104260426
 1  3.85245515701570  0.33629012111211 -4.33468169766977
 1  3.96711246284628  2.13105418411841 -3.22445478087809
 1  2.49692548184818  1.68655315321532 -4.41910506250625
 1  0.92927683768377  2.76675817231723 -2.77418831083108
 1 -6.93740282638264 -3.43916610051005 -0.86967598879888
 1 -7.54162242714271 -3.36012734323432 -2.37184023752375
 1  4.09545327282728  3.21581094209421  3.58888214241424
 1 -0.58414229302930  4.19036031553155 -3.12882077747775
 1 -4.31407999759976  4.49737631943194 -0.63077422892289
 1 -4.06781553125312  3.90701549514951  0.94266507790779
 1 -3.13982229842984  5.35078536963696  0.70458622852285
 1  8.53162885638564 -2.33234638883888 -0.72616325132513
 1 -1.82272519711971  6.51974243134313 -3.07309216141614
 1 -2.53041539443944  5.83735511131113 -1.59677558505851

