%nproc=4
%Mem=3GB
# td=(NStates=1) B3LYP/SVP 

TD

0 1
 8 -3.13555046524652 -1.51947700320032 -2.94174482878288
 8  3.03299375417542  3.15908756725673  3.12928719961996
 8  3.77526183438344  1.32617974627463  4.15522996659666
 8  7.77077568046805 -1.64546066026603 -0.92419318111811
 8  6.67665182158216 -3.15377617251725 -2.16691313941394
 8 -2.72090299679968  1.53030851995200  1.36357641814181
 7 -0.32928867506751 -2.20735705000500  0.91887672847285
 7 -2.65701773977398 -1.27845298029803 -0.60487263186319
 7  1.05880743014301  0.12363327302730 -0.71954689188919
 7 -1.07214636013601  1.46573198109811 -0.27702860076008
 6 -3.49203435313531 -1.23752131453145  0.56668364226423
 6 -2.71238986508651 -2.13728787498750  1.77086239303930
 6 -1.25654129582958 -1.94789260326033  1.83344133273327
 6 -0.58717852015202 -1.21316250795079  2.87291531203120
 6  0.70438155075508 -1.07312231323132  2.55871706630663
 6  0.87388007420742 -1.80282671737174  1.33253805780578
 6 -4.82076702330233 -1.87033268196820  0.20627751505151
 6  1.77315190659066 -0.24514484408441  3.20561271577158
 6 -4.78848520992099 -2.04552326072607 -1.22015235573557
 6  2.02183013941394 -1.85322351455146  0.36687896659666
 6  2.07838386028603 -0.82825473767377 -0.63659756125613
 6 -3.43811848174817 -1.70727269256926 -1.72504978837884
 6  3.06191725492549 -0.63871461976198 -1.65900979987999
 6 -1.22697126932693 -0.55391924892489  4.05168067636764
 6 -5.86359158325833 -2.11949843014301  1.15623662926293
 6  2.61510116701670  0.54763213141314 -2.29693430343034
 6  1.87763719611961  1.10642633463346  2.80536717831783
 6  1.34051741824182  0.95088173677368 -1.72399850585059
 6  4.18802415151515 -1.64345377447745 -1.96769639973997
 6 -5.81986632273227 -2.64552664306431 -1.94650809900990
 6  5.49767531853185 -1.18828057325733 -1.18804222112211
 6  3.21983207860786  1.19166756935694 -3.52979948914891
 6  0.64341676577658  2.09976512341234 -2.05606735183518
 6  3.03648228852885  1.90288987448745  3.39338468366837
 6 -0.61904573617362  2.26583121532153 -1.27997328522852
 6 -6.74731865836584 -3.61836560066007 -1.68606716541654
 6  6.60908047764776 -2.08558681378138 -1.52713340334033
 6 -1.38256691149115  3.56273850705070 -1.32443051775178
 6 -2.31360544994499  3.42589306830683 -0.21851975817582
 6 -2.16083835623562  2.01415234873487  0.45561449344934
 6 -1.17327730613061  4.67724398459846 -2.14513628162816
 6 -3.40643127962796  4.42610309320932  0.41032527222722
 6 -1.75828972017202  5.91869728792879 -2.09704343714371
 1 -3.57327582078208 -0.33112860276028  1.13051725632563
 1 -2.93224485088509 -3.09039416441644  1.60008035713571
 1 -3.26225604540454 -2.09902334673467  2.80993038173817
 1 -0.46298160296030 -2.67916668176818  0.04465147514751
 1 -2.12483087278728 -0.52295859935994 -0.82166626902690
 1  1.55272323372337 -0.32713416721672  4.40061216031603
 1  2.73143047594760 -0.71075296659666  2.95726065546555
 1  2.74493330723072 -2.71503308620862  0.39812286548655
 1 -1.87476010531053 -1.39845911991199  4.44975203700370
 1 -0.34821458945895 -0.39900410401040  4.70360671717172
 1 -1.83437275107511  0.36780922762276  3.76913567886789
 1 -5.99034982218222 -1.31022915411541  1.92061635463546
 1 -5.67979674037404 -3.08340244484448  1.97283012931293
 1 -6.89951732853285 -2.29187483088309  0.53106946864686
 1  1.70194633403340  1.19916985888589  1.64910252155215
 1  0.81131108260826  1.71910415471547  2.88540651435144
 1  0.16514477207721  0.06933130293029 -0.27213924622462
 1  4.30331605080508 -1.33178623762376 -3.09160476237624
 1  3.92977380718072 -2.63373515271527 -1.89218632663266
 1 -6.03142528092809 -2.40599152375238 -2.94824828862886
 1  5.18367628892889 -1.00549102900290 -0.10044682098210
 1  5.94270571187119 -0.05094209030903 -1.73568805130513
 1  4.10892080358036  0.77656414851485 -3.94531276077608
 1  3.43647939953995  2.20476155485549 -2.94188652405241
 1  2.46604239353935  1.53134763266327 -4.36189934193419
 1  0.96077998799880  2.80110160666067 -2.82793368536854
 1 -6.72731181728173 -4.25151733563356 -0.72881190239024
 1 -7.57780604550455 -3.87415874637464 -2.43999705320532
 1  3.60615434293429  3.64115347634763  3.75940919511951
 1 -0.44634851365137  4.52894417391739 -3.00352824822482
 1 -4.25783437303730  4.78637521932193 -0.34182533403340
 1 -3.92800154985499  3.94640943454345  1.11475228662866
 1 -2.92162047824782  5.22188247934793  0.97722349224923
 1  8.35051074457446 -2.49179233343334 -0.84581521652165
 1 -1.47724064866487  6.67503796089609 -2.72937778997900
 1 -2.39867222012201  6.04187556335634 -1.29262517001700

