%nproc=4
%Mem=3GB
# td=(NStates=1) B3LYP/SVP 

TD

0 1
 8 -3.04803171337134 -1.48194324982498 -2.80732138643864
 8  2.99651010581058  3.16672833133313  3.22540681158116
 8  3.60040434863486  1.38548567686769  4.37762220582058
 8  7.77610621352135 -1.36748286248625 -0.91552231403140
 8  6.68578273467347 -3.16838763366337 -1.88192464056406
 8 -2.71033193969397  1.58221371047105  1.40338039853985
 7 -0.24256000220022 -2.43968028232823  0.94235907670767
 7 -2.65481751975198 -1.15333046804680 -0.52691483608361
 7  1.13627517691769  0.00673158285829 -0.77508244544454
 7 -1.07497664316432  1.46407181508151 -0.19091998989899
 6 -3.42908805850585 -1.30992855525553  0.61476845074507
 6 -2.64207283338334 -2.33610775697570  1.70849615641564
 6 -1.20862650435044 -2.00630844484448  1.81916990559056
 6 -0.48430823312331 -1.29219041074107  2.85484350485048
 6  0.80449156175618 -1.17575257625763  2.50876207080708
 6  1.03210589678968 -1.87187362206221  1.28205300930093
 6 -4.71409635623562 -1.87772342104210  0.22281916921692
 6  1.86891148254825 -0.33192352195220  3.16023817831783
 6 -4.81492785418542 -2.02501120952095 -1.17152749324932
 6  2.07121507790779 -1.95167335953595  0.27826010471047
 6  2.04592061396140 -0.94794670687069 -0.74409831133113
 6 -3.39265393529353 -1.58368033333333 -1.68616589999000
 6  3.03184424762476 -0.65471621992199 -1.78709260816082
 6 -1.28445701790179 -0.56686054305431  3.93485899419942
 6 -5.78022324642464 -1.95797227752775  1.35415642124212
 6  2.54615427232723  0.42170953915392 -2.51447605760576
 6  1.95993542594259  1.11552724472447  2.61833847544754
 6  1.30562392889289  0.85074172277228 -1.86243234923492
 6  4.18022337143714 -1.45149457855786 -2.10957058715872
 6 -5.75756009210921 -2.53648573897390 -2.05650909910991
 6  5.30439599059906 -1.19650139533953 -1.06404982188219
 6  3.08313840924092  1.08727713031303 -3.73460997019702
 6  0.46609903400340  2.02453760066007 -1.96399814491449
 6  2.96001464176418  1.83448303380338  3.51070641584158
 6 -0.64499833143314  2.36265089728973 -1.18300358825883
 6 -6.86348027452745 -3.23482724682468 -1.83808236693669
 6  6.54924449404940 -2.04566282138214 -1.33462415241524
 6 -1.42309096389639  3.42426465966597 -1.20621869656966
 6 -2.29360344974497  3.49442992199220 -0.18552645884588
 6 -2.06214848724873  2.11812274577458  0.45494442644264
 6 -1.30971094949495  4.54658091829183 -2.24903667166717
 6 -3.31064170067007  4.48189867276728  0.34966920662066
 6 -1.90875476667667  5.75159057725773 -2.22810654345435
 1 -3.30511900510051 -0.37597308720872  1.21120532513251
 1 -2.78144977137714 -3.13211833683368  1.28882923202320
 1 -2.89661948174817 -2.53893733813381  2.86568595729573
 1 -0.35092039683968 -2.98305707080708  0.13786079607961
 1 -1.95327371707171 -0.33323962746275 -0.56929103150315
 1  1.84280224162416 -0.39641109490949  4.28049014811481
 1  2.63895122802280 -0.89924181548155  2.98436336573657
 1  2.82103091699170 -2.73996557945795  0.29721277447745
 1 -2.00969359865987 -1.50548982298230  4.24358141994199
 1 -0.73801356935694 -0.17080128372837  4.59955631213121
 1 -1.89341865566557  0.16828927562756  3.51927069236924
 1 -5.86635742294229 -1.13468159935994  2.08099239223922
 1 -5.82450121082108 -2.97231133573357  1.60725357165716
 1 -6.71432880968097 -1.81298694209421  0.83005936763676
 1  2.26222236163616  1.16847678957896  1.66290390169017
 1  1.14560451195119  1.79923216751675  2.81613958765877
 1  0.31550980858086  0.38348271807181 -0.37738977127713
 1  4.67944366356636 -1.22941600060006 -3.18223382528253
 1  3.81548237803780 -2.50001178037804 -2.10566767476748
 1 -5.54781692009201 -2.28239916451645 -3.06825028882888
 1  4.85360328162816 -1.32077255715571 -0.02183896019602
 1  5.81077251855186 -0.10878787488749 -1.11046552905291
 1  3.90215012651265  0.61846833893389 -4.15088331783178
 1  3.31318707030703  2.09422050075008 -3.70766310171017
 1  2.26676246554655  1.07349184708471 -4.59063221522152
 1  0.55519942994299  2.69382087858786 -2.80948184018402
 1 -7.24882396849685 -3.50879306320632 -0.76326534773477
 1 -7.54084234913491 -3.41994332483248 -2.47413046654665
 1  3.68293202070207  3.47528688968897  3.84349760396040
 1 -0.77017089588959  4.42937421692169 -3.08372626802680
 1 -4.03949253885389  5.02715929772977 -0.40984213571357
 1 -3.90869961966197  3.85710050365036  1.09886069746975
 1 -2.78111642784278  5.35947623872387  0.81579734963496
 1  8.51452714621462 -1.98572172637264 -1.10095073007301
 1 -1.52873579817982  6.38063852095210 -3.02052690489049
 1 -2.62992534543454  6.23643501930193 -1.42671857935794

