%nproc=4
%Mem=3GB
# td=(NStates=1) B3LYP/SVP 

TD

0 1
 8 -3.24545145534553 -1.41080613611361 -2.84773542784278
 8  2.89060951575158  3.28585024352435  3.20854512541254
 8  3.61582589078908  1.53032016031603  4.35794023762376
 8  7.60714931783178 -1.74053016721672 -0.65269603140314
 8  6.56074023042304 -3.06743753865387 -2.10790723882388
 8 -2.50633153965397  1.62748823792379  1.51816187668767
 7 -0.26762250845085 -2.33648996329633  0.94749959075908
 7 -2.58515055305531 -1.39707484248425 -0.71209335393539
 7  1.19707125652565  0.05900681038104 -0.69500443764376
 7 -0.96776592209221  1.39969537743774 -0.19552044994499
 6 -3.31236638633863 -1.36829439183918  0.58412538643864
 6 -2.59196782288229 -2.31113525972597  1.68042334913491
 6 -1.19115475717572 -2.00460827482748  1.82600058865887
 6 -0.51908171047105 -1.21030222192219  2.79668768926893
 6  0.82233334593459 -1.17719272027203  2.38622981758176
 6  1.05764845104510 -1.82781921662166  1.25062986698670
 6 -4.79640458705871 -1.92874852355236  0.23835072237224
 6  1.80765535693569 -0.26914724432443  3.07464961946195
 6 -4.73854021542154 -2.06964567296730 -1.10866120662066
 6  2.17298525492549 -1.88191638383838  0.29075135383538
 6  2.13841986388639 -0.95502741494149 -0.62371627312731
 6 -3.39406407630763 -1.58731069636964 -1.71524880828083
 6  2.99553061626163 -0.69125987428743 -1.83988788768877
 6 -1.16910548274827 -0.60593445044504  3.93596910521052
 6 -5.80020524462446 -2.05828230853085  1.35509651525153
 6  2.58520817771777  0.50231759996000 -2.42880749074907
 6  1.83373280568057  1.21070676267627  2.80018666026603
 6  1.40522388888889  0.91007765636564 -1.73633973997400
 6  4.21868721782178 -1.46433586268627 -2.21421105120512
 6 -5.87773210931093 -2.35526761716172 -2.06199964816482
 6  5.39769532053205 -1.08924066926693 -1.17843126002600
 6  3.06769686508651  1.10668907150715 -3.66206271547155
 6  0.57520994509451  1.98558370527053 -2.01291303640364
 6  2.84701334163416  1.99410899639964  3.56122146734673
 6 -0.63102693429343  2.25886051825183 -1.17176246414641
 6 -7.03383731023102 -3.06848061216122 -1.78652721142114
 6  6.56236580618062 -2.10750900600060 -1.40426111611161
 6 -1.40285894069407  3.50235246844684 -1.22823089778978
 6 -2.32442653205321  3.31600207920792 -0.20651855805581
 6 -2.05426769916992  1.98584951845185  0.45367429942994
 6 -1.14851482988299  4.57871413161316 -2.12910467846785
 6 -3.44411504800480  4.21380186308631  0.36594083378338
 6 -2.00289418061806  5.71343676187619 -2.31818555135514
 1 -3.18729722292229 -0.25062055195520  0.92514671927193
 1 -2.45297692409241 -3.21469659465947  1.13125347444744
 1 -3.31178099789979 -2.40062350675067  2.66727611631163
 1 -0.29235454025403 -3.01857062216222  0.16829383938394
 1 -1.92320070977098 -0.52058836233623 -0.98370247264726
 1  1.73735169656966 -0.37901935573557  4.29090118921892
 1  2.87824515741574 -0.49440133143314  2.83658858825883
 1  2.84740355425543 -2.52895447834783  0.38479153235324
 1 -1.70800342964296 -1.38746802080208  4.47516457825783
 1 -0.25588535653565 -0.02194639823982  4.41725808230823
 1 -2.07191650545055  0.16299874657466  3.53033179847985
 1 -5.63977476467647 -1.31530966216622  2.05980027302730
 1 -5.78589735043504 -3.02103620822082  1.61702454875488
 1 -6.50312768956896 -1.87273291669167  0.74349071077108
 1  1.99817595699570  1.21108105000500  1.56880449174918
 1  0.66166611811181  1.70824306860686  2.95438341204120
 1  0.47000525812581  0.37804217401740  0.01266923462346
 1  4.59471519071907 -1.59331239023902 -3.28923452535254
 1  4.10178100790079 -2.52652443164316 -1.85740284828483
 1 -5.65286742514251 -1.98464938953895 -3.03933739753975
 1  5.24680260156016 -1.23360384028403 -0.16091286758676
 1  5.58848028932893 -0.11163815991599 -1.26922140464046
 1  4.11421133263326  0.72717921002100 -3.99039726922692
 1  3.23307905950595  2.03903498219822 -3.24142647804781
 1  2.48737452675267  0.96408090599060 -4.57075022702270
 1  0.60881479147915  2.73557505400540 -2.69741063306331
 1 -7.06293537963796 -3.53925610951095 -0.77206622782278
 1 -7.95598386328633 -3.35745707620762 -2.41366441994199
 1  3.63063679117912  3.77203656465647  3.63948720292029
 1 -0.20880475927593  4.71879315881588 -2.83659155455546
 1 -4.45690428002800  4.27802438423842 -0.26341749324933
 1 -3.81846059575958  3.76485127872787  1.16260707210721
 1 -3.10574889108911  5.13762405350535  0.67726349624963
 1  8.41088678217822 -2.22119527372737 -0.98287892289229
 1 -1.64907783238324  6.68573903100310 -2.97071192339234
 1 -2.80767312021202  6.04249562536254 -1.70258616611661

