%nproc=4
%Mem=4GB
# td=(NStates=1) B3LYP/SVP 

TD

0 1
 8 -5.42805903590359  0.13576901650165 -3.34418420812081
 8  3.02279228472847  2.89323657835784  3.35391146954695
 8  3.29459780838084  0.72858825782578  3.11364324942494
 8  1.60367800730073 -7.12783905400540  1.67736624292429
 8  0.73215810381038 -6.95388181178118 -0.48656663956396
 8  1.69705675377538  4.03175629842984  0.01365087248725
 7 -2.37203681478148 -0.91805023522352  0.57553457005701
 7 -4.45181006240624  0.55786345284528 -1.25622397719772
 7  1.81211160276028 -0.62718429142914 -0.55586406400640
 7  2.59128467036704  1.88347409290929 -0.56657340404040
 6 -4.80554694589459  1.15819731673167 -0.00122432263226
 6 -4.36202359515952  0.20893105840584  1.32332969066907
 6 -2.97338243384338 -0.01230097339734  1.32388440144014
 6 -1.97790688738874  0.56943190039004  2.19195236483648
 6 -0.77064367466747 -0.01656709220922  1.81189186678668
 6 -0.98899308710871 -0.90134319321932  0.75021684108411
 6 -6.29364172027203  1.32357014631463 -0.11398661406141
 6  0.57323593019302  0.24573525002500  2.46647566766677
 6 -6.71888240274027  0.87418666706671 -1.37151287998800
 6 -0.24058031413141 -1.96304504140414  0.01804388588859
 6  1.11769866606661 -1.86761630823082 -0.42906448864886
 6 -5.44415501580158  0.52095030973097 -2.15194250575058
 6  2.01906599179918 -2.87877841624162 -0.91857886718672
 6 -2.23518921982198  1.62587834473447  3.23793818401840
 6 -7.16447394059406  1.88587671687169  1.00932491839184
 6  3.14785111881188 -2.36469642084208 -1.34363560866087
 6  1.14721074837484  1.70790928432843  2.45346898279828
 6  3.01560963626363 -0.85776440204020 -1.08054204240424
 6  1.57010078027803 -4.35674163856386 -0.93173489038904
 6 -8.12486839283928  0.77526916451645 -1.99233762156216
 6  1.90873843944394 -5.10167110171017  0.38029402490249
 6  4.25520112911291 -2.96567503630363 -2.08391762306231
 6  3.90556142674267  0.11691109460946 -1.49244392679268
 6  2.59342996419642  1.67343493169317  2.99841574147415
 6  3.72118649644964  1.46053146464646 -1.15325189248925
 6 -9.23132811621162  0.79904206450645 -1.39062387768777
 6  1.27332239693969 -6.53655030523052  0.52427108610861
 6  4.66368520312031  2.62031878677868 -1.53144022712271
 6  4.04684395279528  3.67643816751675 -1.02163345764576
 6  2.64116568736874  3.26989484058406 -0.43604236693669
 6  5.99425303060306  2.46329116971697 -2.15352730783078
 6  4.39439505930593  5.16686156195620 -1.05241725512551
 6  6.86927698529853  3.48735442024202 -2.40958543544354
 1 -4.22424691079108  2.04438551865187  0.03195623592359
 1 -5.11545620252025 -0.71896337243724  1.43757850205020
 1 -4.68696553645364  0.84715871557156  2.26032294199420
 1 -2.85615465536554 -1.23281067656766 -0.11850877267727
 1 -3.54363536083608  1.01254317141714 -1.83715126602660
 1  0.55842027672767 -0.05423511151115  3.43458300640064
 1  1.17171118051805 -0.43454812221222  1.94391952475248
 1 -0.85468412931293 -2.99379684468447  0.02836783908391
 1 -3.34044418971897  1.50357162126213  3.57698768846885
 1 -1.60225144024402  1.36313567746775  4.10817920582058
 1 -1.93157953905391  2.54852867266727  3.02382980478048
 1 -6.57577102800280  2.48800760426043  1.67181941494149
 1 -7.34697446444644  0.91487129632963  1.57265427612761
 1 -8.15750168736874  2.43357944104410  0.57823630383038
 1  1.18627133553355  1.95757779437944  1.34039210651065
 1  0.58110122262226  2.28339516151615  3.04673049724973
 1  1.53781810821082  0.23813445844585 -0.40300566586659
 1  2.10046783898390 -4.99374320472047 -1.73533814351435
 1  0.55850764826483 -4.20129997749775 -1.03474195759576
 1 -8.07964902670267  0.41448167876788 -2.98073401160116
 1  1.55216740564056 -4.58107928762876  1.33538111471147
 1  3.10836710681068 -5.13465066956696  0.54100191509151
 1  3.95922098439844 -4.00153760596060 -2.51872533363336
 1  4.94066516491649 -2.95491434163416 -1.42639625722572
 1  4.33556498959896 -2.28626085868587 -3.03525259885989
 1  4.88829844934494 -0.08308040254025 -1.91341751745175
 1 -9.21666526702670  0.81501895739574 -0.26389907970797
 1 -10.27467560116012  0.83825524122412 -1.89592569256926
 1  3.99416410291029  2.85678906260626  3.69262402810281
 1  6.21239470767077  1.40687283648365 -2.27562637763776
 1  5.43838453825383  5.35444820902090 -0.52547116701670
 1  4.55278730123012  5.69064583028303 -2.05254779967997
 1  3.70128779837984  5.77205681208121 -0.42890463206321
 1  1.20485779387939 -8.08108926602660  1.65522157705771
 1  7.93800624502450  3.46755229512951 -3.09415668896890
 1  6.63224511201120  4.40853636583658 -2.08461081358136

