%nproc=4
%Mem=4GB
# td=(NStates=1) B3LYP/SVP 

TD

0 1
 8 -5.35884211421142  0.24772021162116 -3.33950374007401
 8  2.91503150865087  2.93110036473647  3.23702978137814
 8  3.27127547614762  0.68904430343034  3.08752063716372
 8  1.72134977447745 -7.21650792089209  1.44626313261326
 8  0.61296618461846 -6.97268369196920 -0.51001898479848
 8  1.69279632773277  3.93273639643964  0.04414392179218
 7 -2.32512212331233 -0.97626605680568  0.55123213981398
 7 -4.41676655805581  0.68402606910691 -1.20247860266027
 7  1.69477986958696 -0.67574914791479 -0.42509098669867
 7  2.52202774467447  1.85931167666767 -0.45246199289929
 6 -4.77804419561956  1.17854935193519 -0.00806500670067
 6 -4.26217361016102  0.37148731403140  1.27010436813681
 6 -2.89766486208621  0.08976923362336  1.37042905590559
 6 -1.89257835453545  0.58818377557756  2.16334950455045
 6 -0.65949255955596 -0.05563099859986  1.79575025262526
 6 -0.94230841864186 -0.95066812571257  0.79089090849085
 6 -6.27158951505151  1.19929771907191 -0.12319753515352
 6  0.59573818041804  0.12882355885589  2.59085810591059
 6 -6.64480499499950  0.89839908830883 -1.40396612531253
 6 -0.14689094519452 -2.07605634253425  0.16454853635364
 6  1.08457535373537 -1.87241678827883 -0.33964554675468
 6 -5.46677727802780  0.59751796649665 -2.19969728122812
 6  1.97338142334233 -2.87473801220122 -0.89597660696070
 6 -2.10235593649365  1.70160591749175  3.12258664886489
 6 -7.15394288748875  1.75695382458246  1.11382536843684
 6  3.15631196489649 -2.30826077727773 -1.23491473657366
 6  1.08340436773677  1.59615810921092  2.57515115101510
 6  3.01356943224322 -0.95511413701370 -0.99278326652665
 6  1.62735650585058 -4.41892785718572 -1.00435215211521
 6 -7.99819572557256  0.81265290289029 -2.01445983378338
 6  1.84590215581558 -5.06231716631663  0.30401639713971
 6  4.42006761576158 -2.91213968276828 -1.78704793609361
 6  3.86164703530353  0.12545194869487 -1.31717640004000
 6  2.59330995219522  1.68812640084008  2.90446634653465
 6  3.75135951375138  1.47144255575558 -1.00456702400240
 6 -9.14398938233823  1.05413757405741 -1.51092590789079
 6  1.35709077377738 -6.52196884708471  0.43949260826083
 6  4.60579941454145  2.62612936783678 -1.42927001010101
 6  3.87539680808081  3.73395391909191 -1.12905419971997
 6  2.57317888868887  3.21498935003500 -0.53689245194519
 6  5.90175378067807  2.43131797239724 -2.06588854395440
 6  4.19022464226423  5.30109498529853 -1.34737675107511
 6  6.59205926352635  3.40035572037204 -2.62595707260726
 1 -4.37246173227323  2.21847292739274  0.21323436373637
 1 -4.81695635253525 -0.53804528062806  1.22239698389839
 1 -4.63635047494749  0.80640464016402  2.20253716341634
 1 -2.65834487438744 -1.64369176467647 -0.09507642944294
 1 -3.39887088438844  0.35461737883788 -1.44208175907591
 1  0.53763819851985 -0.26160584858486  3.54093364146415
 1  1.40240424982498 -0.53131779917992  2.16108124092409
 1 -0.47395605650565 -2.92402986798680 -0.14473947164716
 1 -3.16219636493649  2.06663792789279  3.45304529422942
 1 -1.80263147824782  1.56639600350035  4.11984037193719
 1 -1.55384176527653  2.68814263406341  2.77342476427643
 1 -6.43753720462046  2.21281008450845  1.84561679467947
 1 -7.71774154115411  0.69584939413941  1.61539855055506
 1 -7.85976191339134  2.51002708580858  0.75419389958996
 1  0.87782049044905  2.07539957655766  1.75481354865487
 1  0.53640675317532  2.06172299429943  3.40693651785178
 1  1.47432175857586  0.27392803780378 -0.35692105740574
 1  2.33915170737074 -5.02023585398540 -1.68192280198020
 1  0.52437423492349 -4.66417626512651 -1.28580706410641
 1 -7.88179924172417  0.32342257285729 -3.03578951715171
 1  1.39659184808481 -4.56608778847885  1.14176175277528
 1  2.86608287838784 -4.96654385888589  0.71171898679868
 1  4.23825888818882 -3.98556600880088 -2.04932839393939
 1  5.31266236463646 -2.46018486868687 -1.09528314591459
 1  4.58101953505351 -2.31748398099810 -2.58041711531153
 1  4.86402602210221 -0.15830792529253 -1.77828400410041
 1 -9.21953555405541  1.35391284678468 -0.34387707750775
 1 -10.08962709630963  0.98870028572857 -2.03452955295529
 1  3.71387607410741  3.03397678137814  3.70004477017702
 1  6.26279974817482  1.28381053025303 -2.00917973297330
 1  5.22906360616062  5.29342210641064 -1.12188080798080
 1  4.27892991549155  5.52415918161816 -2.39139168406841
 1  3.39058672827283  5.81631123752375 -0.84680642224222
 1  1.14638194629463 -7.99148030513051  1.33762981788179
 1  7.61209365376538  3.22492803270327 -3.12749002230223
 1  6.14830671817182  4.35001051325133 -2.79033138563856

