%nproc=4
%Mem=4GB
# td=(NStates=1) B3LYP/SVP 

TD

0 1
 8 -5.32230846084608 -0.13260782118212 -3.29621941164116
 8  3.04203420892089  2.89685694039404  3.02017809620962
 8  3.42193054165417  0.66464186318632  3.06275816091609
 8  1.67173481298130 -7.29264553465346  1.37718622492249
 8  0.60890577857786 -7.06886330993099 -0.63767175007501
 8  1.56933398149815  4.00224334713471 -0.06098659125913
 7 -2.30859047014701 -0.77173560376038  0.56900391699170
 7 -4.33822870427043  0.62597026352635 -1.26120447524752
 7  1.77043743534353 -0.65236680968097 -0.42459093669367
 7  2.56700224212421  1.83290903640364 -0.42317906460646
 6 -4.76374276547655  1.30421191819182 -0.06008020822082
 6 -4.40533792659266  0.47230739603960  1.20879823752375
 6 -2.91084618021802  0.13124338103810  1.41618363136314
 6 -1.81823091979198  0.69102405960596  2.28280144974497
 6 -0.74322093239324 -0.13769920542054  1.94323500110011
 6 -0.91447563536354 -1.00013307220722  0.76048786818682
 6 -6.26295865196520  1.41995978527853 -0.21182639803980
 6  0.62426103270327  0.06624730123012  2.67451647174717
 6 -6.66679719421942  0.81240048844885 -1.38413414211421
 6 -0.22003825992599 -1.96205494239424  0.10730281178118
 6  1.05314221042104 -1.80797034363436 -0.32605418761876
 6 -5.38145874617462  0.38742695739574 -2.10716802830283
 6  1.95074916011601 -2.82321285968597 -0.89061607090709
 6 -2.02653835473547  1.64958071497150  3.33848823902390
 6 -7.11321881508151  2.12047017621762  0.83664765066507
 6  3.21236757045705 -2.31984193539354 -1.22423366846685
 6  1.22755878317832  1.49887838123812  2.62808644454445
 6  2.99656773207321 -0.87832645824582 -0.92050603880388
 6  1.56889065926593 -4.35369133353335 -0.94840655755576
 6 -7.98684459045905  0.68522015961596 -2.02130051785179
 6  1.75439300490049 -5.06869780438044  0.40093608910891
 6  4.46293190219022 -2.94214268306831 -1.83255248654865
 6  3.84719559015902  0.10080948444844 -1.29086376877688
 6  2.66871749294929  1.68007559575958  2.98014391429143
 6  3.67237161496150  1.46886229772977 -1.08970553785379
 6 -9.16608159155916  0.81240340064006 -1.39485430073007
 6  1.23555862056206 -6.53147979817982  0.25348400740074
 6  4.52411124572457  2.60733748864887 -1.44133121622162
 6  3.74657392579258  3.79928045174517 -1.10045133943394
 6  2.48304987578758  3.32737058815882 -0.48570733343334
 6  5.78527213251325  2.50073491409141 -2.13016497159716
 6  4.07238285808581  5.27932280808081 -1.33769578297830
 6  6.81405146274627  3.41531721652165 -2.35368984588459
 1 -4.19585407150715  2.25397647774777  0.02879591989199
 1 -4.89287394429443 -0.40046152225223  1.28292303650365
 1 -4.60240708060806  0.86227022672267  2.19910682038204
 1 -2.78789782968297 -1.08982637813781 -0.14286120792079
 1 -3.31492248954895  0.79344126122612 -1.50495804670467
 1  0.50625506020602 -0.10097978597860  3.77762731083108
 1  1.44871888128813 -0.74018868626863  2.45435056785679
 1 -0.83402206310631 -2.95665313031303 -0.14152915061506
 1 -3.05418556385639  1.99876114021402  3.39400939063906
 1 -1.61144235933593  1.28569793369337  4.24995338323832
 1 -1.53334971607161  2.76421024082408  3.33787120892089
 1 -6.34451790269027  2.55626442994299  1.49149138213821
 1 -7.72976274327433  1.43021283048305  1.41993900460046
 1 -7.81632756995699  2.98513459655966  0.35138361856186
 1  0.87085979437944  1.97732976957696  1.73801186848685
 1  0.67785089758976  1.87502432443244  3.59945576977698
 1  1.47401172757276  0.35540618561856 -0.16912227752775
 1  2.06878467066707 -4.92592642304230 -1.64378898859886
 1  0.58137993549355 -4.40842068956896 -1.33442192559256
 1 -7.99449051085108  0.33839407000700 -3.08706464466447
 1  1.21083327222722 -4.71660283998400  1.26208378497850
 1  2.83867013711371 -5.01294849934993  0.63520133503350
 1  4.55686074837484 -4.15835328752875 -1.57154061516152
 1  5.24197529592959 -2.57318616881688 -1.43266688428843
 1  4.45440687378738 -2.79838207080708 -2.99641871547155
 1  4.78143776327633 -0.03270536503650 -1.78059423512351
 1 -9.15316891739174  1.02981043654365 -0.39646233603360
 1 -10.22374050765077  0.74625604130413 -1.92959905990599
 1  3.88600328682868  2.80274365806581  3.14926969266927
 1  5.93011647984798  1.47424957415742 -2.49250806580658
 1  4.77618831863186  5.69806257045705 -0.50440906080608
 1  4.45593761626163  5.61285805150515 -2.43384592949295
 1  3.25458312791279  5.79028863526353 -1.11996373797380
 1  1.21718902700270 -8.21319247634763  1.38498455335534
 1  7.51570401480148  3.32895843574357 -2.99940721402140
 1  6.66134802230223  4.51322683488349 -2.06693904640464

