%nproc=4
%Mem=3GB
# td=(NStates=1) B3LYP/SVP 

TD

0 1
 8 -3.40805771597160 -1.23707876337634 -2.88312896719672
 8  3.28133858865887  3.05314697319732  3.07813208410841
 8  3.46152046024602  1.39084621292129  4.70388483208321
 8  7.78629723262326 -1.53719983418342 -0.72141290309031
 8  6.58114227062706 -3.10080087498750 -1.80018646674667
 8 -2.59970087658766  1.45783127222722  1.35870593109311
 7 -0.23334908110811 -2.41004731903190  0.78956379717972
 7 -2.63793583158316 -1.17931306630663 -0.64702684728473
 7  1.24106565596560  0.16012692239224 -0.73664860206021
 7 -1.02249139463946  1.48576398429843 -0.17720861876188
 6 -3.30569571927193 -1.27993555595560  0.59990696459646
 6 -2.59461808790879 -2.28755290149015  1.52725803260326
 6 -1.11838748044805 -2.04654246824682  1.65564355295530
 6 -0.48866866916692 -1.30714190589059  2.73796181668167
 6  0.84369548214821 -1.16223122412241  2.45350654525453
 6  0.95578826502650 -1.78826526122612  1.14328913291329
 6 -4.73639858645865 -1.84816046474647  0.30270715801580
 6  1.86896148754876 -0.43394372397240  3.22030418491849
 6 -4.78687504890489 -1.96894560296030 -1.08054839533953
 6  2.16406436283628 -1.93025121732173  0.24536681538154
 6  2.17104312621262 -0.87790970317032 -0.66573047454745
 6 -3.52508717861786 -1.39763172847285 -1.67027431083108
 6  3.09519058225823 -0.59241999029903 -1.78153205210521
 6 -1.33192176437644 -0.69678353535354  3.93287879617962
 6 -5.65875109920992 -2.08101458175818  1.42051305690569
 6  2.62921257815782  0.50882825102510 -2.44618922892289
 6  1.95677510991099  1.05265095709571  2.78331497309731
 6  1.41257462396240  0.94728137673767 -1.74304041004100
 6  4.35349069816982 -1.44272370147015 -2.02599222932293
 6 -5.89759409550955 -2.48223031343134 -1.89884333253325
 6  5.45268081908191 -1.00476222142214 -1.22756617351735
 6  3.05366546194619  1.14878328092809 -3.73084959415942
 6  0.46635906000600  2.00575572247225 -2.08891063616362
 6  2.93084172447245  1.81424100960096  3.62138748394840
 6 -0.67962179377938  2.22060669286929 -1.22040732863286
 6 -7.15505943244324 -2.99689345344534 -1.47569612831283
 6  6.64129369896990 -1.99402765786579 -1.29203989398940
 6 -1.48306696149615  3.39396162936294 -1.36828490319032
 6 -2.34252834223422  3.36840731973197 -0.23710161636164
 6 -2.04181645404540  2.04409534303430  0.41566049804980
 6 -1.38952893129313  4.41541780198020 -2.39003077107711
 6 -3.52671330783078  4.25337582048205  0.18405264496450
 6 -1.92260615181518  5.72288770697070 -2.37780151295130
 1 -3.32257075027503 -0.27408289818982  0.98708291289129
 1 -2.68396002240224 -3.20658578357836  1.17474782388239
 1 -2.99725954575458 -2.30475391979198  2.51650103880388
 1 -0.56755206000600 -2.92404116921692 -0.01801479147915
 1 -1.68183657335734 -0.49516582008201 -0.81615571797180
 1  1.66178413981398 -0.36858831263126  4.27215931503150
 1  2.80688802170217 -0.84564645594559  2.99565449484948
 1  2.86405521942194 -2.76057764066407  0.49791284448445
 1 -1.87368999829983 -1.48934820882088  4.37799486128613
 1 -0.67239700770077 -0.26856105970597  4.72820917741774
 1 -1.99350866466647  0.05024747144714  3.40887965326533
 1 -5.23338412561256 -1.43810194139414  2.24897919091909
 1 -5.76883564426443 -3.21332543714371  1.72292513881388
 1 -6.81974935173517 -1.82328797219722  1.33904026572657
 1  1.98522466186619  1.38129807170717  1.76837444874487
 1  1.07002695419542  1.42790503480348  2.98431640534053
 1  0.44771302890289  0.37083145294529 -0.16056808910891
 1  4.64566028522852 -1.61312437143714 -3.11053665556556
 1  4.13557438723872 -2.60283206240624 -1.84526163416342
 1 -5.74861700010001 -2.50447137173717 -2.97677114091409
 1  5.16837475877588 -0.72499297919792 -0.08441521782178
 1  5.94562600390039 -0.11480847694769 -1.38991347384738
 1  3.73061297279728  0.39152564466447 -4.47067529702970
 1  3.83518927052705  1.99790086878688 -3.39093142854285
 1  1.98162395169517  1.53727822572257 -4.34614776677668
 1  0.45495940594059  2.74238573507351 -2.98613950595059
 1 -7.26684577067707 -3.35021720562056 -0.44606362756276
 1 -7.82988125302530 -3.65986731723172 -2.07132018551855
 1  3.94250797829783  3.41300066106611  3.68678193239324
 1 -0.71877575637564  4.19598087758776 -3.22118001340134
 1 -4.10237882748275  4.45486206800680 -0.69019017051705
 1 -4.22383113281328  3.86471126472647  0.87371818321832
 1 -3.39019733593359  5.14805509660966  0.70431620152015
 1  8.63042873637364 -2.15414856905691 -0.84533516851685
 1 -1.79075199979998  6.43800425752575 -3.02581743394339
 1 -2.69068142104210  6.16024740054005 -1.50489639713971

