%nproc=4
%Mem=4GB
# td=(NStates=1) B3LYP/SVP 

TD

0 1
 8 -5.43000923092309  0.09680512011201 -3.24145393509351
 8  2.98578858435844  2.91506876157616  3.18964504290429
 8  3.40348869746975  0.66209160816082  3.10649253435344
 8  1.69555719521952 -7.15233150325032  1.52746125242524
 8  0.93079796779678 -7.13180960456046 -0.60877886078608
 8  1.76718376647665  4.02715583838384 -0.02113260586059
 7 -2.42801241234123 -0.94742317251725  0.68737575417542
 7 -4.42700758215822  0.62464013051305 -1.24193254805481
 7  1.75053544514451 -0.66662823582358 -0.48860733833383
 7  2.49029457135714  1.93039878537854 -0.58962570927093
 6 -4.87138352955296  1.16271776877688  0.00415621542154
 6 -4.46218361116112  0.32062222752275  1.29868722642264
 6 -2.96857195279528  0.08001825852585  1.33782579557956
 6 -1.86036513321332  0.67371232843284  2.02200537013701
 6 -0.67434404470447  0.04806937143714  1.70502117971797
 6 -1.03472766056606 -0.99069212811281  0.79301112051205
 6 -6.34380673677368  1.33195098439844 -0.07442265766577
 6  0.60900950755076  0.25705638213821  2.44765378547855
 6 -6.67175769026903  0.94284353275328 -1.38237396609661
 6 -0.19979623572357 -2.01530026692669  0.14158624012401
 6  1.08531542774277 -1.87801734833483 -0.36807839003900
 6 -5.50207080738074  0.55064327902790 -2.11741905340534
 6  1.87836192139214 -2.85680621902190 -0.85448245754575
 6 -2.03145884678468  1.76812256915692  3.06336072627263
 6 -7.23257075027503  1.92590071927193  0.94613859975998
 6  3.12269860356036 -2.29474942614261 -1.18670991609161
 6  1.22316834413441  1.68112660606061  2.54671830773077
 6  3.07383545884588 -0.92330095569557 -0.97108109630963
 6  1.46477024722472 -4.34864082848285 -0.97616933383338
 6 -8.00725663166317  0.83695533313331 -2.01734012181218
 6  1.78942650825082 -5.12013294789479  0.36795279077908
 6  4.28348395739574 -2.93055152395240 -2.00432966426643
 6  3.98511938253825  0.14935433893389 -1.22707739013901
 6  2.60138075927593  1.66429401760176  2.91579747964796
 6  3.68730310811081  1.47709312081208 -1.03228979627963
 6 -9.21981696509651  0.75278743904390 -1.42177699299930
 6  1.44959002370237 -6.58572522272227  0.32066072507251
 6  4.51032986758676  2.53982073697370 -1.39328641174117
 6  3.95548481688169  3.66689721342134 -1.03746504080408
 6  2.61401297209721  3.26524437553755 -0.48477724042404
 6  5.84168777407741  2.39860470107011 -1.98643059815982
 6  4.27583320312031  5.16075095089509 -1.18857087048705
 6  6.75325538313831  3.39141482628263 -2.39001347824782
 1 -4.30430491659166  2.09687076717672 -0.01571853155316
 1 -4.76723138003800 -0.53353482958296  1.40946569076908
 1 -4.81753859375938  1.05390939063906  2.15885279497950
 1 -2.72261130103010 -1.81823921942194  0.04834791299130
 1 -3.56127712501250  0.63863578067807 -1.65596314721472
 1  0.47925235993599 -0.26317600560056  3.37376692479248
 1  1.40174418381838 -0.43679834723472  2.05559069186919
 1 -0.72992165306531 -2.84960242524252 -0.27814281198120
 1 -3.01350149544955  2.12407367146715  3.41384137383738
 1 -1.52615383048305  1.47423678757876  4.05061344924493
 1 -1.14475085618562  2.54113793359336  2.97659508130813
 1 -6.79346279717972  2.78116692019202  1.46848908190819
 1 -7.45904567156716  1.17021683088309  1.70057706840684
 1 -8.13457939513951  2.12080816391639  0.46083456365637
 1  1.28238094649465  2.17358939553955  1.55992405970597
 1  0.78659177167717  2.28272509450945  3.51921774597460
 1  1.21543586998700  0.22517316231623 -0.36914227952795
 1  1.88960675287529 -4.80966479687969 -1.78214282398240
 1  0.41530332783278 -4.51924177167717 -1.02312079547955
 1 -7.90503156495650  1.13247347794779 -3.18628456665667
 1  1.35086727562756 -4.64087526722672  1.36273384998500
 1  2.87944421452145 -5.13219042354235  0.65035285018502
 1  4.33652871517152 -3.98807625982598 -2.31701516261626
 1  5.21644274267427 -2.71752060226023 -1.44939855745575
 1  4.41492292539254 -2.17972020462046 -2.92949202280228
 1  4.86471609110911 -0.20596269076908 -1.61780795649565
 1 -9.26180978147815  0.88038549404941 -0.09823251305131
 1 -10.02004013761376  0.61811322702270 -2.07546364636464
 1  3.96953163966397  3.04920830453045  3.25329009470947
 1  6.14385785398540  1.49459160836084 -2.06924573957396
 1  5.17848854865486  5.64643740794079 -0.74927354725473
 1  4.11480350285028  5.22830959665967 -2.31260380528053
 1  3.53542121172117  5.61811141754175 -0.55457719931993
 1  1.12662997109711 -7.91487264436444  1.39472552745275
 1  7.66907935233523  3.03113865376538 -2.93199047234723
 1  6.55865775327533  4.46295180738074 -2.19056140864086

