%nproc=4
%Mem=4GB
# td=(NStates=1) B3LYP/SVP 

TD

0 1
 8 -5.46859308930893  0.17663310291029 -3.26647643734373
 8  3.09722972847285  2.90284753945395  3.27856393479348
 8  3.30355870447045  0.69436483548355  2.91640352545254
 8  1.59988762826283 -7.17729399949995  1.51244975127513
 8  0.42827771577158 -7.01884830843084 -0.47919590249025
 8  1.71773882198220  4.07901102390239 -0.01859235183518
 7 -2.35948555965597 -0.98734716491649  0.67781479807981
 7 -4.44356923832383  0.59146681318132 -1.21074942974297
 7  1.83251364296430 -0.65364693769377 -0.50100857845785
 7  2.51922746464646  1.85855160066007 -0.54427117381738
 6 -4.82081847304730  1.17293879087909  0.06408220802080
 6 -4.38254564736474  0.22517268256826  1.33178053575358
 6 -2.99386448204820  0.02734299099910  1.34119613261326
 6 -1.97983708040804  0.57520247744774  2.14419758935894
 6 -0.67883449374938 -0.02961839733973  1.80634131173117
 6 -0.93791797959796 -1.00386344524452  0.75868768816882
 6 -6.33705606170617  1.34778256755676 -0.12227744314431
 6  0.66755536213621  0.26352702920292  2.40603962406241
 6 -6.73471398589859  0.88449769816982 -1.36066179487949
 6 -0.09685594169417 -1.99545828272827  0.13330541204120
 6  1.20536743294329 -1.82165171177118 -0.36726830903090
 6 -5.50065066536654  0.42490070477048 -2.09744705620562
 6  1.97786187138714 -2.92294283268327 -1.01302831213121
 6 -2.23410911181118  1.51767752465247  3.20901529172917
 6 -7.20729822302230  1.96721485068507  0.99683366926693
 6  3.15588192189219 -2.33953390459046 -1.27953919901990
 6  1.15968199549955  1.73395188858886  2.55810944684468
 6  3.09434751005100 -0.91765039063906 -1.00840482868287
 6  1.59331310151015 -4.36932289668967 -0.98915063196320
 6 -7.98745465146515  0.67531916951695 -2.02290067786779
 6  1.80715828142814 -5.06805774037404  0.40083607910791
 6  4.42741835083508 -2.96216468526853 -1.79841907320732
 6  4.07193806440644  0.08976838033803 -1.31917660006001
 6  2.64510513171317  1.65954354255426  2.87380328022802
 6  3.82745712351235  1.54192960446045 -1.05744231153115
 6 -9.22679766316632  0.79159131943194 -1.51717653295330
 6  1.18211327602760 -6.48783543374337  0.34560321932193
 6  4.69347818241824  2.64099085398540 -1.39573665676568
 6  3.88631790019002  3.81126164986499 -1.10031132543254
 6  2.56872844364436  3.36230408150815 -0.41682044474447
 6  5.98819242454245  2.52916775737574 -1.99162111721172
 6  4.28748436823682  5.24468934473447 -1.23214522792279
 6  6.79727978557856  3.46570225502550 -2.46613109000900
 1 -4.33796828292829  2.18275935603560  0.15297833813381
 1 -4.94903956085609 -0.73957543364337  1.35692043624362
 1 -4.95900274017402  0.84914891459146  2.16774368406841
 1 -2.83604264416442 -1.69577697319732  0.07641071927193
 1 -3.48884988228823  0.36260817791779 -1.51805935683568
 1  0.43672810751075 -0.05664535253525  3.45393494159416
 1  1.57391140054005 -0.31276594399440  1.95927105990599
 1 -0.70220888178818 -3.04348181318132  0.05805080738074
 1 -3.27381752705270  1.87034829892989  3.49112910261026
 1 -1.87540875597560  1.34598396229623  4.36088447634763
 1 -1.73100948204820  2.49145296509651  2.95168259005901
 1 -6.47582103300330  2.46635543904390  1.62934516751675
 1 -7.45353512051205  1.12129193839384  1.58226523722372
 1 -8.01228716591659  2.35529161226123  0.52941142134213
 1  1.04351706010601  2.17098913551355  1.65873394069407
 1  0.54185729822982  2.32317913991399  3.34000982518252
 1  1.51325565196520  0.32550319531953 -0.31863722902290
 1  2.00556834903490 -4.79044287468747 -2.03035764546455
 1  0.43146494399440 -4.40830067756776 -1.36003448684868
 1 -7.93325438723872  0.45982621322132 -2.97370330853085
 1  1.36764895379538 -4.34961614131413  1.29067664426443
 1  3.00039630973097 -5.02394959945995  0.55232304720472
 1  4.08311337363736 -4.00926837903790 -2.17445090619062
 1  5.14600569896990 -2.88518736893689 -1.15457907550755
 1  4.80995242834283 -2.59727195979598 -2.72738181178118
 1  4.97082670217022 -0.13910600510051 -1.82729890559056
 1 -9.54900850135014  0.92996045154516 -0.58673136293629
 1 -10.09544767836784  0.49471088678868 -2.12479857985799
 1  4.14228891539154  2.77672105580558  3.17305207090709
 1  6.20468393659366  1.50278242744274 -2.07997681268127
 1  5.28410911071107  5.57486025022502 -0.82503112301230
 1  4.37963998649865  5.43140990669067 -2.30140268516852
 1  3.49072674227423  5.90059966636664 -0.81164290589059
 1  1.20039734783478 -8.07024818191819  1.49912596749675
 1  7.74903734813481  3.12146768666867 -3.16889416271627
 1  6.61189307680768  4.51811732393239 -2.48834118661866

