%nproc=4
%Mem=3GB
# td=(NStates=1) B3LYP/SVP 

TD

0 1
 8 -3.27906481668167 -1.34137919341934 -2.84484513881388
 8  2.78889934473447  3.22028368686869  3.24127839873987
 8  3.92645695389539  1.35551267956796  4.21892633623362
 8  7.78864746764676 -1.26831294549455 -0.96242700450045
 8  6.63844800120012 -3.12130292519252 -1.78758520662066
 8 -2.70053095959596  1.65957144624462  1.36373643414341
 7 -0.42533828002800 -2.34133044734473  0.89499434023402
 7 -2.72287432543254 -1.18880401540154 -0.62568471307131
 7  1.17695924532453  0.05883679337934 -0.72195713291329
 7 -1.05662480798080  1.33856926482648 -0.31586248414841
 6 -3.43829897959796 -1.32309987238724  0.60940791469147
 6 -2.77773639973997 -2.36865101130113  1.69529483628363
 6 -1.31184682638264 -1.97935574957496  1.80626861546155
 6 -0.51443124542454 -1.35594678637864  2.89292731323132
 6  0.86651776437644 -1.17257225822582  2.41860305490549
 6  0.88434112031203 -1.90837727242724  1.15324012801280
 6 -4.81695664226423 -1.90268591729173  0.29260614791479
 6  1.98832342374237 -0.40482081168117  3.06973912841284
 6 -4.89756611801180 -1.99904861326133 -1.06629697019702
 6  1.97575553195320 -2.00014820702070  0.19856213491349
 6  2.13935995789579 -0.98386029822982 -0.74128803030303
 6 -3.57865253515352 -1.48333029832983 -1.65897318071807
 6  3.06805786898690 -0.68201895019502 -1.71343524242424
 6 -1.31753032523252 -0.58550240724072  3.95111061936194
 6 -5.76387161126113 -2.16114259455946  1.39057006260626
 6  2.60926058295830  0.53618098629863 -2.32780739073907
 6  1.94991442384238  0.98976466846685  2.71858850045004
 6  1.44240760726073  0.96202285088509 -1.73100920692069
 6  4.20756610571057 -1.47660708980898 -2.05560519061906
 6 -5.93057739383938 -2.49124121452145 -1.97859130733073
 6  5.56689224022402 -1.03667541274127 -1.23919733663366
 6  3.35381547694769  1.23823222582258 -3.39814632383238
 6  0.59626205030503  2.00183533043304 -2.04847659275928
 6  3.02203084338434  1.79088867436744  3.51572691789179
 6 -0.58671250285029  2.28411304350435 -1.27059234713471
 6 -7.01071499799980 -3.21380514461446 -1.65322388108811
 6  6.68222779237924 -1.98893714881488 -1.32739342934293
 6 -1.37973662846285  3.56117835103510 -1.15596367106711
 6 -2.30983507290729  3.34852533153315 -0.20435834203420
 6 -2.03159543194319  2.02429336283628  0.44309324132413
 6 -1.23877385578558  4.47537379757976 -2.30943271127113
 6 -3.47254789128913  4.32215269816982  0.08129236893689
 6 -1.77798168936894  5.76935235343534 -2.36158989178918
 1 -3.34165265846585 -0.31192668256826  1.22039624422442
 1 -3.06773840024002 -3.33391851685169  1.33545389448945
 1 -3.14582440224022 -2.28574201860186  2.76089547824782
 1 -0.46180148494850 -2.71004977007701  0.01603861386139
 1 -1.79946833653365 -0.42253855735574 -0.58113221562156
 1  1.81451941334133 -0.35839729352935  4.18052015111511
 1  2.94465179807981 -0.89775166646665  3.11024595399540
 1  2.57124593849385 -2.93594517741774  0.38173122632263
 1 -2.04447707700770 -1.31869114311431  4.42363942574257
 1 -0.51559132713271 -0.38734293789379  4.91186754325433
 1 -1.76486580038004  0.34558700540054  3.45017378267827
 1 -5.43691447864786 -1.56486461766177  2.30608490149015
 1 -5.74211297199720 -3.24118822342234  2.05023787008701
 1 -6.72415979277928 -2.26040168356836  1.15977233893389
 1  2.35815195459546  1.04326426832683  1.77910552185219
 1  0.91249120062006  1.61375361966197  2.93771174487449
 1  0.22227048464847  0.22291666146615 -0.25418745104510
 1  4.45526124532453 -1.58678173717372 -3.16337193909391
 1  4.08164899469947 -2.48943072227223 -1.53514062206221
 1 -5.86821896029603 -2.10642156675668 -2.91819528332833
 1  5.22893081438144 -0.78204868476848 -0.15047182348235
 1  6.00965240654065 -0.03523051915192 -1.63966844934494
 1  3.69735964746475  0.31906839893989 -4.26473470297030
 1  4.17192294389439  2.02412349104910 -3.21146348174817
 1  2.60121591089109  1.85086958485849 -4.29607275927593
 1  0.91835574557456  2.71914341084108 -2.66101699369937
 1 -7.00341942804280 -3.60791297519752 -0.46395541674167
 1 -7.84197246214621 -3.33193452395239 -2.24225727922792
 1  3.60196392389239  3.34093345434543  3.82254550875088
 1 -0.65340921972197  4.34220550005000 -3.28505640104010
 1 -3.99718830843084  4.59822640444044 -0.73975512701270
 1 -4.14965371507151  3.90450524412441  0.86987779917992
 1 -3.18559687588759  5.19729002010201  0.69798556845685
 1  8.59285497899790 -1.79553270747075 -0.96190682568257
 1 -1.49301222582258  6.53659411651165 -3.16486133833383
 1 -2.46051840474047  6.16315769156916 -1.45070097759776

