%nproc=4
%Mem=4GB
# td=(NStates=1) B3LYP/SVP 

TD

0 1
 8 -5.23118934893489  0.05057049664966 -3.33597338703870
 8  3.18689869536954  2.86610386508651  3.05041111951195
 8  3.37350569916992  0.58130352935294  3.40824270937094
 8  1.58593623312331 -7.08975524562456  1.49770827712771
 8  0.74835972397240 -6.98803522712271 -0.46002398529853
 8  1.71362841094109  3.94488761156116  0.21089059645965
 7 -2.38786839793979 -0.84707313751375  0.64648166476648
 7 -4.32614749614961  0.72207987448745 -1.30367872267227
 7  1.84804519611961 -0.69681125412541 -0.28561703930393
 7  2.56373191509151  1.88213395889589 -0.44044079077908
 6 -4.73700009120912  1.19807130413041 -0.13047724792479
 6 -4.33792118491849  0.53229339463946  1.31395875357536
 6 -2.91290638623862  0.11365162186219  1.35453746674667
 6 -1.93177227392739  0.74395935313531  2.14887805740574
 6 -0.67897450775078 -0.03222865836584  1.86916759435944
 6 -0.99764395219522 -0.98746180508051  0.93407522692269
 6 -6.18787114321432  1.33094088338834 -0.19617483288329
 6  0.59301790839084  0.04787546404640  2.60362938303830
 6 -6.60357087158716  0.81777102550255 -1.46352208090809
 6 -0.30808706480648 -1.99560829772977  0.15240732223222
 6  1.04933182938294 -1.84871441804180 -0.40634221642164
 6 -5.37483808410841  0.35444365906591 -2.16125343684368
 6  1.82164624982498 -2.92188272667267 -0.97938494779478
 6 -1.97280298119812  1.86479223612361  3.20295468566857
 6 -7.12860035323532  1.99838796799680  0.84313829972997
 6  3.05601193489349 -2.39500945214521 -1.40574181928193
 6  1.21728775607561  1.50315880928093  2.67365100100010
 6  3.02294036933693 -0.96359498509851 -1.05343933213321
 6  1.39281305150515 -4.35510147454745 -0.97715943284328
 6 -7.91738764476448  0.69731136873687 -2.06432482028203
 6  1.90822838843884 -5.05200613521352  0.31644764026403
 6  4.23679928892889 -3.06692516131613 -2.03852308360836
 6  3.86445731633163  0.11285068856886 -1.42322700510051
 6  2.68339896109611  1.56037362556256  3.14123002290229
 6  3.67432180998100  1.45741115261526 -1.08523509080908
 6 -9.13878886228623  0.64691685198520 -1.49315413071307
 6  1.37603266796680 -6.37792444264426  0.40637929692969
 6  4.50867970257026  2.69173592849285 -1.46176325942594
 6  3.82694196259626  3.71885240894089 -0.96558785308531
 6  2.59870144094409  3.26948479957996 -0.32800156285629
 6  5.71025463076308  2.57099193979398 -2.23869582468247
 6  4.13630925072507  5.14825970177018 -1.06726874027403
 6  6.45512557015702  3.62076776157616 -2.82824730163016
 1 -4.32190667676768  2.36876795689569 -0.10164712441244
 1 -4.93088774567457 -0.45632710881088  1.10273501770177
 1 -4.65855269516952  1.32236623632363  1.99443635333533
 1 -2.85481452135214 -1.30161755725573  0.10179325752575
 1 -3.63128412571257  0.42557447454745 -1.66478402930293
 1  0.51288572327233 -0.01441112911291  3.83025257335734
 1  1.17969197859786 -0.75337000440044  2.26526165896590
 1 -0.72659132003200 -2.94402186718672 -0.22888788648865
 1 -3.03123326862686  2.32576384048405  3.34351434113411
 1 -1.49220043514351  1.62766213011301  3.97635602350235
 1 -1.15069145024502  2.79254307410741  2.93515093689369
 1 -6.60644409530953  2.66903570707071  1.44376660966097
 1 -7.52073184018402  1.22274208340834  1.61672868356836
 1 -8.02908884608461  2.33446953005301  0.20665914611461
 1  1.49025173357336  1.84523656025603  1.40190825812581
 1  0.47060017251725  2.27417423942394  3.21993781798180
 1  1.40478480488049  0.12470311531153 -0.23472883818382
 1  1.87481527372737 -5.01178500890089 -1.94535914561456
 1  0.42093389088909 -4.52662250975098 -1.06190467386739
 1 -7.90894195599560  0.55916614721472 -3.21819775797580
 1  1.42874506340634 -4.69147032673267  1.31562913951395
 1  3.10180645074507 -4.90785799029903  0.39941775667567
 1  4.04606966926693 -4.18583603580358 -2.25984944604460
 1  5.24136523492349 -2.84234308450845 -1.42096571417142
 1  4.26606803990399 -2.54825705830583 -2.98602767636764
 1  4.60812043154316 -0.27445954045405 -1.98737491319132
 1 -9.39609320982098  0.86478393389339 -0.35209789958996
 1 -10.00804893849385  0.53690510621062 -2.09605570557056
 1  4.13192787928793  2.66434981868187  3.27238200390039
 1  5.96081955015502  1.64644679387939 -2.22426124112411
 1  5.08800950075007  5.35423818801880 -0.63083170307031
 1  4.12036405890589  5.71210797649765 -2.05178772367237
 1  3.57412508210821  5.82093169956996 -0.53209495109511
 1  1.26258356645665 -7.91263242034203  1.43692974787479
 1  7.33392583698370  3.46104164406441 -3.25578285158516
 1  5.94326621412141  4.54795030723072 -2.65178753125313

