%nproc=4
%Mem=4GB
# td=(NStates=1) B3LYP/SVP 

TD

0 1
 8 -5.33922015201520  0.25848128772877 -3.31064085378538
 8  2.84225423092309  2.97815507020702  3.30165624402440
 8  3.33488183678368  0.82896829582958  2.86791867696770
 8  1.65073271277128 -7.22619888998900  1.33043154945495
 8  0.41803669166917 -6.92891931553155 -0.56284426732673
 8  1.84011105920592  3.98207132993299  0.00082959035904
 7 -2.34101371247125 -0.86774520472047  0.54888190479048
 7 -4.39565444684468  0.68192585908591 -1.22043039783978
 7  1.87994838643864 -0.68550012301230 -0.30907938553855
 7  2.69353489538954  1.89232497799780 -0.47913466016602
 6 -4.75849224042404  1.21027252425243  0.00956675647565
 6 -4.41756914971497  0.19617978327833  1.21315867356736
 6 -2.95874096969697 -0.00811055435544  1.37599961296130
 6 -1.99737883458346  0.54072903010301  2.09949311891189
 6 -0.79188579887989 -0.02327776327633  1.77535821342134
 6 -1.02113630143014 -0.94432749164916  0.76270809020902
 6 -6.25293764986499  1.20045783508351 -0.07427264266427
 6  0.51747035363536  0.16788746524652  2.50696971707171
 6 -6.65683619811981  0.80202945134513 -1.34578030673067
 6 -0.17099335543554 -1.93702243914391  0.24347642914291
 6  1.08644554075408 -1.82673221982198 -0.24991657385739
 6 -5.35140574087409  0.48289650435043 -2.16463377487749
 6  1.96088017321732 -2.89569010741074 -0.80764777407741
 6 -2.22568826972697  1.57457321422142  3.34992938313831
 6 -7.02823031623162  1.84410253945395  0.93298728462846
 6  3.16133246694669 -2.32055200640064 -1.24113535863586
 6  1.02658868616862  1.66722521592159  2.54628826472647
 6  3.07579565486549 -0.91975060066007 -0.81481546974697
 6  1.44266803700370 -4.22560852525253 -0.97501921882188
 6 -7.94757066306631  0.68906054365437 -1.95835422322232
 6  1.70831839743974 -5.03422435703570  0.26876287178718
 6  4.35296090509051 -3.04580304910491 -1.82772200350035
 6  4.01233210381038  0.07995739923992 -1.19221390379038
 6  2.56524714591459  1.72114970317032  2.91672757265727
 6  3.78989336713671  1.45489090059006 -1.04425099239924
 6 -9.14599958335834  0.60418257855786 -1.29560437573757
 6  1.06903196789679 -6.52363901410141  0.31695035403540
 6  4.63101193579358  2.66653340824082 -1.46923400650065
 6  3.99293856225623  3.78027855155516 -1.11518281258126
 6  2.77013858465847  3.39074692579258 -0.48246700940094
 6  5.92614621992199  2.48898373897390 -2.12684463956396
 6  4.31577719751975  5.26310118591859 -1.34006602000200
 6  6.74502456005601  3.41419710451045 -2.67801227812781
 1 -4.26005049114911  2.14346542664266  0.22887592789279
 1 -4.78397305420542 -0.80093156925693  1.15896064026403
 1 -4.95474231413141  0.81400540024002  2.08717562726273
 1 -2.55624466436644 -1.52559995549555 -0.12453937573757
 1 -3.42315331263126  0.52806472357236 -1.61026857775778
 1  0.59723415811581 -0.14645433343334  3.55210475857586
 1  1.44547855725573 -0.20891555895590  1.97538267106711
 1 -0.72002066296630 -2.81368883388339  0.06288129042904
 1 -3.25273541884188  1.69009027312731  3.47573756345634
 1 -1.49049026412641  1.40615997989799  4.08435682358236
 1 -1.73649003010301  2.64169798959896  2.88968639043904
 1 -6.47139058995900  2.35758456195620  1.88758099109911
 1 -7.64992475947595  0.99665947514751  1.41406841754175
 1 -7.99520545774577  2.49868595169517  0.45863434363436
 1  0.70499320772077  2.06353839043904  1.59147721502150
 1  0.50793390589059  2.29884670667067  3.15427125132513
 1  1.64314864126413  0.46860750575058 -0.06828219351935
 1  2.15102289448945 -4.89833366376638 -1.70278488818882
 1  0.35115691319132 -4.03491333883388 -1.40374885828583
 1 -7.91758282008201  0.44478470907091 -3.08603454165417
 1  1.48539072797280 -4.46927810751075  1.07754533113311
 1  2.75480175027503 -5.26561376587659  0.34934274917492
 1  4.21241630393039 -4.20276772897290 -1.77212067316732
 1  5.26198729712971 -2.63028187838784 -1.45241885948595
 1  4.49816124922492 -2.64558679127913 -2.84229330293029
 1  4.85135475497550 -0.22649474397440 -1.79836601230123
 1 -9.29536313681368  0.45329278477848 -0.22700539033903
 1 -10.01778991259126  0.49141055675568 -1.86870297029703
 1  3.81970665716572  3.19088247194719  3.65962072777278
 1  6.22164563276328  1.30299244844484 -2.06094490949095
 1  5.04970567036704  5.69834259845985 -0.76424504440444
 1  4.51176319881988  5.60044681038104 -2.42465501040104
 1  3.50715838543854  5.89514912131213 -0.87625936753675
 1  1.40575788388839 -8.17062821992199  1.27870392529253
 1  7.73227567196720  3.01168670857086 -3.19179645294529
 1  6.43711559905991  4.39542505470547 -2.76523887638764

