%nproc=4
%Mem=3GB
# td=(NStates=1) B3LYP/SVP 

TD

0 1
 8 -3.38301521172117 -1.35309036453645 -2.96391704600460
 8  3.28023847864786  3.14333599209921  3.08227249814981
 8  3.69233354155416  1.31936906520652  4.43059750335034
 8  7.70525912881288 -1.25074118831883 -0.67836859865987
 8  6.81298545494549 -2.94245504040404 -1.96599304740474
 8 -2.72232313881388  1.61029651875187  1.35284534503450
 7 -0.31029677587759 -2.34991130543054  0.93230807160716
 7 -2.63549558755876 -1.37085222022202 -0.74049619421942
 7  1.18379992939294  0.05257616731673 -0.73114805200520
 7 -0.97096624212421  1.49026443434343 -0.20941183908391
 6 -3.31260641034103 -1.34396195859586  0.56548352225222
 6 -2.76153477957796 -2.31623576977698  1.56744205100510
 6 -1.30921656335634 -2.05344315831583  1.87700568916892
 6 -0.55399520182018 -1.23925511721172  2.91071909240924
 6  0.75803691629163 -1.08999400040004  2.47600879547955
 6  0.93582626882688 -1.78206464116412  1.27160196419642
 6 -4.73155810241024 -1.86060170887089  0.27829471677168
 6  1.89149374077408 -0.42850317991799  3.06399855435544
 6 -4.87789415081508 -2.01012972137214 -1.10130047054705
 6  2.10352830923092 -1.85668386058606  0.39963224192419
 6  2.09746576847685 -0.96391830403040 -0.68642254375438
 6 -3.59386405630563 -1.55934790009001 -1.72585986938694
 6  3.04360542374237 -0.71009175747575 -1.78776267516752
 6 -1.34274284648465 -0.62421627862786  4.04762027032703
 6 -5.75407063116312 -2.01017749804980  1.44415542114211
 6  2.61903156005601  0.41657902610261 -2.48549315931593
 6  1.89566899929993  1.01367705970597  2.73647028862886
 6  1.42288565506551  0.85993264186419 -1.73489959595960
 6  4.22640798989899 -1.59262869196920 -1.98409803990399
 6 -5.93853818991899 -2.48733082348235 -1.98285173337334
 6  5.42134768576858 -1.05478722392239 -1.15974939183918
 6  3.23361345674567  0.95036343894389 -3.67513402260226
 6  0.50399282338234  2.01094624152415 -2.07942968806881
 6  3.07269590989099  1.80668025352535  3.58498384358436
 6 -0.62777660926093  2.22813744594459 -1.23030831873187
 6 -7.09375330183018 -3.17630139423942 -1.66296485518552
 6  6.64324389398940 -1.84120237533753 -1.46996768676868
 6 -1.48341699649965  3.49857209040904 -1.27810588528853
 6 -2.39330341974197  3.33123360236024 -0.33815172137214
 6 -2.02235450785078  2.09546047954795  0.41074000600060
 6 -1.41100107850785  4.52214847504750 -2.31929369736974
 6 -3.40263089958996  4.22081256415642  0.20582482218222
 6 -1.71537542874287  5.95289070727073 -2.07026075887589
 1 -3.32291078427843 -0.33215870577058  0.98559276387639
 1 -2.90618224462446 -3.36644176917692  1.16308665776578
 1 -3.21028084788479 -2.16338978337834  2.40762015071507
 1 -0.50833613841384 -3.01369013411341  0.09981699169917
 1 -2.03259164886489 -0.56849315281528 -0.72292639503950
 1  1.82450041144114 -0.53006446024602  4.15847794689469
 1  2.78377571047105 -0.99275116641664  2.64590952035204
 1  2.64590340424042 -2.86237782068207  0.46953000620062
 1 -1.88001063036304 -1.37797707170717  4.49966702850285
 1 -0.39474924292429 -0.33661786538654  4.58908526502650
 1 -1.96352566636664  0.15515796249625  3.73441220652065
 1 -5.51646243344334 -1.51065919711971  2.35629992299230
 1 -5.42470123082308 -3.01661576617662  1.91114396069607
 1 -6.91734911171117 -1.90470611401140  0.98321468316832
 1  1.97426356575658  0.99119906180618  1.64741235253525
 1  1.06140609210921  1.51896414071407  2.81438941264126
 1  0.56462472007201  0.32938730853085 -0.16199823212321
 1  4.37829354855486 -1.65568862786279 -3.06146174807481
 1  3.97935876567657 -2.63741552075208 -1.41527863586359
 1 -5.81225336373637 -2.31991291589159 -3.07033049684969
 1  5.20644856615662 -0.95901638153815 -0.03691046734673
 1  5.69580102140214 -0.02306930303030 -1.57569205170517
 1  4.11513142464246  0.49389588168817 -4.07207543704370
 1  3.57100285188519  1.90333141184118 -3.46231856725672
 1  2.55130091939194  1.14060855875588 -4.46891004300430
 1  0.60390430043004  2.57035853235323 -2.87938883088309
 1 -7.02838192429243 -3.52243442734274 -0.55163418461846
 1 -7.90432869776978 -3.54631596209621 -2.32196525002500
 1  3.99720344784478  3.52291165216522  3.55537879207921
 1 -0.89054293309331  4.23504478397840 -3.13492138753875
 1 -3.82957154675468  4.85303188498850 -0.80377152865287
 1 -4.29924867456746  3.63159795339534  0.71219203060306
 1 -2.87801611781178  5.00554084518452  1.16199196909691
 1  8.65334102760276 -1.83933708790879 -0.72051268626863
 1 -1.19195211981198  6.71558201530153 -2.77744259645965
 1 -2.30507286018602  6.38399977577758 -1.15368127562756

