%nproc=4
%Mem=3GB
# td=(NStates=1) B3LYP/SVP 

TD

0 1
 8 -3.30831774197420 -1.46452150765076 -2.86477713201320
 8  2.93472392719272  3.28161982048205  3.28335260616062
 8  3.64789909810981  1.46351347964796  4.48418286188619
 8  7.81575017791779 -1.63154926912691 -0.86603736553655
 8  6.47111126752675 -3.16489728462846 -1.91797824592459
 8 -2.59754066056606  1.63133862296230  1.41303136363636
 7 -0.15964171037104 -2.38730504480448  0.77500234103410
 7 -2.79662170017002 -1.17277241224122 -0.64776692129213
 7  1.14844639403940  0.06268717841784 -0.80446538373837
 7 -0.99088823432343  1.49284469236924 -0.12622352025203
 6 -3.41319646934693 -1.35576313871387  0.60453742764276
 6 -2.52979160526053 -2.39204335053505  1.49402470927093
 6 -1.13182882458246 -2.07953576757676  1.66118410701070
 6 -0.55939574187419 -1.24994618631863  2.68656667716772
 6  0.80717182978298 -1.18900390139014  2.45451664626463
 6  1.02432511871187 -1.90302673737374  1.18782358635864
 6 -4.77309225582558 -1.87402305100510  0.31983887118712
 6  1.87770236163616 -0.40345067466747  3.23009516401640
 6 -4.91279764116412 -2.07109581798180 -1.04000434093409
 6  2.17132508890889 -1.84083227542754  0.20292257095710
 6  2.17742376427643 -0.85907781998200 -0.69718361986199
 6 -3.52806747664766 -1.57699966526653 -1.63406068946895
 6  3.08030909410941 -0.55636638493849 -1.74047794669467
 6 -1.39942851505151 -0.45149900690069  3.74347985628563
 6 -5.83363858795880 -2.32280876117612  1.32331333693369
 6  2.58825848274827  0.51464883308331 -2.54091870187019
 6  1.77738717111711  1.16229192119212  2.91271791339134
 6  1.38359172567257  1.02038868746875 -1.86875298129813
 6  4.32294764386439 -1.44646407550755 -2.07101673177318
 6 -5.92337667376738 -2.56854894529453 -1.93001644984498
 6  5.48111366236624 -1.23174491969197 -1.11956537343734
 6  3.17559765516552  1.05619402200220 -3.80280678987899
 6  0.51443386748675  2.14912005890589 -2.00217196229623
 6  2.89422806310631  1.95705529102910  3.66886223142314
 6 -0.59422325392539  2.36003063526353 -1.22061734963496
 6 -6.96327025352535 -3.32044580868087 -1.51560011871187
 6  6.64802437203720 -2.12268052315231 -1.35271596159616
 6 -1.29554820962096  3.57008924212421 -1.09397747244724
 6 -2.29973406280628  3.39457993699370 -0.15551345754575
 6 -1.99801207360736  2.11149208270827  0.48912784478448
 6 -1.18322830123012  4.59271553175317 -2.22045381338134
 6 -3.27773841034103  4.42381286418642  0.30709494919492
 6 -1.96323021422142  5.68816423462346 -2.37602133493349
 1 -3.58120661386139 -0.43822931283128  1.11197540214021
 1 -2.78722034843484 -3.30732585758576  0.93862421152115
 1 -2.90912073187319 -2.35147859225923  2.41085047374738
 1 -0.36517182198220 -2.53600236533653 -0.17004999499950
 1 -2.21191958165817 -0.45369167266727 -0.96832093449345
 1  1.92249021042104 -0.47060851465147  4.50776287538754
 1  2.87194452735274 -0.91043293459346  2.90002493189319
 1  2.92143095699570 -2.60700228312831  0.21250430363036
 1 -2.18014064336434 -1.10259953395340  4.23670073187319
 1 -0.72413218121812 -0.16321052465247  4.58633498999900
 1 -1.72987230103010  0.50006245294529  3.23962272757276
 1 -5.96169695689569 -1.74187231843184  2.19772406540654
 1 -5.71096985768577 -3.39472357695770  1.36410925722572
 1 -6.88313569036904 -2.15971161456146  1.01794815651565
 1  1.94085022442244  1.43957389928993  1.73351096239624
 1  0.77531748324832  1.58996124042404  3.42340031373137
 1  0.47099535713571  0.19030340014001 -0.06542857515752
 1  4.85912163136314 -1.30782384138414 -2.96902250415042
 1  3.84102493229323 -2.69171095029503 -2.13607071507151
 1 -5.99250138853885 -2.19351027562756 -3.06615007880788
 1  5.25724364566457 -1.40087056695670 -0.10578735503550
 1  5.70660210151015 -0.24876187228723 -1.07878236073607
 1  4.03614352585259  0.48900539263926 -4.28699692919292
 1  3.63168892049205  2.12403348204820 -3.76970930633063
 1  2.31988777807781  1.13226772467247 -4.58746189818982
 1  0.71782569256926  2.91836333283328 -2.69194008600860
 1 -7.34372345844584 -3.28636081998200 -0.46540556175618
 1 -7.81274953985399 -3.52179350985099 -2.36378943244324
 1  3.51600532803280  3.81077043804380  3.78585183938394
 1 -0.18776265506551  4.31444272377238 -2.85875377077708
 1 -4.09732832243224  4.38774535633563 -0.43477462896290
 1 -3.61303005270527  4.13206800040004  1.29794060546055
 1 -2.75982429862986  5.49239953105310  0.09537530743074
 1  8.62169786328633 -2.24580773497350 -1.15699633463346
 1 -1.77635055965597  6.26292674977498 -3.23127797999800
 1 -2.80140249314931  6.17455883168317 -1.68955486298630

