%nproc=4
%Mem=3GB
# td=(NStates=1) B3LYP/SVP 

TD

0 1
 8 -3.13017992819282 -1.34821987748775 -2.85135578987899
 8  2.98298875367537  3.15232689118912  3.18187245814581
 8  3.71226553475348  1.45105223352335  4.26283072667267
 8  7.79632823572357 -1.75652176637664 -0.68607936973697
 8  6.67878203460346 -2.97341813671367 -2.08347479557956
 8 -2.72141304780478  1.67509299839984  1.46333639413941
 7 -0.18571431763176 -2.44328064236424  0.81760660146015
 7 -2.55938797679768 -1.18147328232823 -0.47723986858686
 7  1.18209975937594  0.09141005070507 -0.72621755895590
 7 -1.05892503800380  1.53316872477248 -0.14383528142814
 6 -3.34592974267427 -1.38357591999200  0.68858583248325
 6 -2.55583420952095 -2.40138428462846  1.54527983478348
 6 -1.11796743844384 -2.12446026002600  1.78104609320932
 6 -0.48511831413141 -1.29966115781578  2.85187320782078
 6  0.74337545014501 -1.14395939693969  2.42918411301130
 6  0.93831651785179 -1.90610704540454  1.23325812981298
 6 -4.70540548714871 -1.85457110581058  0.27797468476848
 6  1.86624121552155 -0.47095742534253  3.14689684418442
 6 -4.77049341074107 -1.91787049544954 -1.05488582908291
 6  2.07594555095510 -1.92067025922592  0.28900117881788
 6  2.07748377027703 -0.93974588678868 -0.63004690619062
 6 -3.40783545344534 -1.40938290359036 -1.64891217461746
 6  3.02111317451745 -0.73139388768877 -1.70260415931593
 6 -1.18511708390839 -0.58857271427143  3.83825933423342
 6 -5.77496272037204 -1.92066854715472  1.33280428602860
 6  2.47436709360936  0.42715008320832 -2.43503811381138
 6  1.81262069446945  1.06742243424342  2.76879352095210
 6  1.36589995649565  0.91660830943094 -1.76791289728973
 6  4.24792014111411 -1.48173760286029 -2.06490612071207
 6 -5.80987532363236 -2.30066215661566 -1.95998944714471
 6  5.40808635963596 -1.04496624182418 -1.08107152405241
 6  3.08565866126613  1.06398480108011 -3.64669117831783
 6  0.48528095219522  2.02323747064706 -1.99327107220722
 6  3.01586022632263  1.82495208070807  3.38824416961696
 6 -0.68014184578458  2.21935656785679 -1.16637192509251
 6 -6.81644557105711 -3.22839660376038 -1.70633919261926
 6  6.63381295089509 -2.01931018611861 -1.36948763876388
 6 -1.47518617341734  3.51544377757776 -1.28844691939194
 6 -2.51453554295430  3.35860633963396 -0.27042494869487
 6 -2.11162343474347  2.15459639313931  0.47254618661866
 6 -1.33711368976898  4.55437169736974 -2.17481924992499
 6 -3.54697533403340  4.26643712661266  0.23392763246325
 6 -1.91807569876988  5.74018943714371 -2.42224595739574
 1 -3.40978947214721 -0.60428591849185  1.39665386998700
 1 -2.80382200860086 -3.43423854885489  1.21567191629163
 1 -3.25383520332033 -2.41452489688969  2.38687807650765
 1 -0.30903620842084 -2.73199196429643 -0.15230822082208
 1 -1.87652604230423 -0.36948325182518 -0.62409651205120
 1  1.69900786218622 -0.53171462526253  4.18141024012401
 1  2.79829716261626 -0.97645953725373  2.81927685708571
 1  2.78614742864286 -2.53111469436944  0.34524757795780
 1 -1.85673830313031 -1.38567784178418  4.16278334013401
 1 -0.72793256125613 -0.31687589118912  4.72031838833883
 1 -1.74262357615762  0.38988143484348  3.42751151645164
 1 -5.84668545574557 -0.97162529372937  1.96206049904991
 1 -5.62078083878388 -2.98100220482048  1.98715156145615
 1 -6.79330670747075 -2.07387303070307  0.66827318901890
 1  1.91995813521352  1.31215115701570  1.57313492479248
 1  0.83419337083708  1.64103634793479  3.03783175687569
 1  0.43752200980098  0.42212658245825 -0.00961299359936
 1  4.45663138233823 -1.52282534153415 -3.01164676657666
 1  4.16166699649965 -2.64530630983098 -1.84929203720372
 1 -5.68740087848785 -1.89924084868487 -3.07380084388439
 1  5.04031195249525 -1.13176365626563  0.00998422212221
 1  5.73127456875688  0.16322932683268 -1.05292977547755
 1  3.97994790629063  0.48710520262026 -4.15686391589159
 1  3.76611236283628  2.02397347604760 -3.33351568696870
 1  2.23312910221022  1.22591708960896 -4.13658681068107
 1  0.61021493149315  2.70815231173117 -2.95729662166217
 1 -6.86051513761376 -3.61353353725372 -0.73499252045204
 1 -7.45306357125713 -3.61584291479148 -2.59042209570957
 1  3.62300602810281  3.70750011101110  3.63742699689969
 1 -0.59318319711971  4.54710599009901 -2.95944383978398
 1 -4.19053764336434  4.53992057385739 -0.61117226872687
 1 -4.35796454615461  3.83602839643964  0.95747655905591
 1 -3.03481179737974  5.11862215331533  0.68997476737674
 1  8.40883657715772 -2.41667482168217 -0.78718935393539
 1 -1.66325925052505  6.38457891499150 -3.30523537573757
 1 -2.53379573247325  6.02196357215722 -1.59023493099310

