%nproc=4
%Mem=3GB
# td=(NStates=1) B3LYP/SVP 

TD

0 1
 8 -3.30747765796580 -1.32070712621262 -2.75762641694169
 8  3.19885033983398  3.02307396589659  3.00604487538754
 8  3.11306561476148  1.54741186948695  4.94724916851685
 8  7.76362496539654 -1.25999211341134 -0.86153691549155
 8  6.62350650705070 -3.16380717561756 -1.63957040514051
 8 -2.55460636713671  1.76892238133813  1.46997705820582
 7 -0.25536128232823 -2.45958227252725  0.85671051185119
 7 -2.65639767776778 -1.22871800680068 -0.50424256885689
 7  1.18541009040904  0.01450235993599 -0.82558749594960
 7 -0.99928907440744  1.47935334323432 -0.23889478737874
 6 -3.37843299299930 -1.35390295269527  0.73523049694969
 6 -2.58872749884988 -2.41182532873287  1.60166547334734
 6 -1.13667930963096 -2.03223103710371  1.77658564716472
 6 -0.50973077537754 -1.33357454915492  2.73392141264126
 6  0.79602071467147 -1.21140614161416  2.39403059765977
 6  1.05945863206321 -1.95513194789479  1.18494329832983
 6 -4.72266721332133 -1.92556820552055  0.37428431573157
 6  1.81017560896090 -0.46420675027503  3.12389454395440
 6 -4.77617397879788 -1.98422713111311 -0.96482682318232
 6  2.15781373777378 -2.00279847204720  0.23984626332633
 6  2.14842086398640 -1.03325523772377 -0.78593249474948
 6 -3.46556122602260 -1.53596556185619 -1.59194647804780
 6  3.06720778397840 -0.57907865616562 -1.85639953885389
 6 -1.21612018421842 -0.62009586658666  3.77414292259226
 6 -5.81205642974297 -2.19345582588259  1.36388739433943
 6  2.42248190509051  0.48477584578458 -2.64785939593959
 6  1.99060849324932  0.99876556855686  2.68922556415642
 6  1.29163252975298  0.88925557415742 -1.90786689268927
 6  4.25480082918292 -1.40407983708371 -2.19638926902690
 6 -5.88279261536154 -2.36951904230423 -1.91110455865587
 6  5.38963451445145 -0.96406815201520 -1.30711412831283
 6  3.11888198359836  1.18768717131713 -3.79972648184819
 6  0.44370679477948  1.95288043494349 -2.12525427052705
 6  2.80358899919992  1.81902148764876  3.68982432763276
 6 -0.59291312291229  2.19969460166017 -1.23503879177918
 6 -7.01121504800480 -3.11681544564456 -1.65426398509851
 6  6.63970353995400 -1.94187244234423 -1.27889857985799
 6 -1.34549320412041  3.52169440264026 -1.25349342404240
 6 -2.24945903530353  3.41334181318132 -0.20526843304330
 6 -1.96347862026203  2.08404933843384  0.42306123812381
 6 -1.18756873527353  4.61575783598360 -2.26282805080508
 6 -3.29022965946595  4.37134761766177  0.22701694139414
 6 -1.88993288448845  5.78387380558056 -2.38991272407241
 1 -3.63543203640364 -0.43476896679668  1.22954715931593
 1 -2.90629225562556 -3.33936906190619  1.31033138223822
 1 -3.01091091089109 -2.29629307370737  2.66359574827483
 1 -0.28074337913791 -3.23520228532853  0.08360537053705
 1 -1.84383277297730 -0.58442474597460 -0.58797289968997
 1  1.61508947034704 -0.44736619041904  4.27160926002600
 1  2.76035336823682 -0.97811970327033  2.99630455985599
 1  2.76083489738974 -2.91772335523552  0.29956300950095
 1 -1.88179080838084 -1.31904117811781  4.08975603740374
 1 -0.46744651265126 -0.07032123572357  4.56837319381938
 1 -1.89199851365137  0.26305875257526  3.46200496579658
 1 -5.69595038223822 -1.64850298149815  2.45088938193819
 1 -5.70012877357736 -3.24689879447945  1.63528637493749
 1 -6.79753713051305 -1.96361200460046  0.92626898859886
 1  2.34388052745275  0.96317625952595  1.54152176347635
 1  1.02071202270227  1.46241848614861  2.71186916061606
 1  0.24998325592559  0.05849021882188 -0.12503453575358
 1  4.69805552475248 -1.48101116011601 -3.23535913781378
 1  3.94611544134413 -2.57588936813681 -1.74856196419642
 1 -5.70283242164216 -1.99904082868287 -2.94510797459746
 1  4.87221514281428 -0.87732821272127 -0.29020579687969
 1  5.86641808310831 -0.01646864296430 -1.63138762126213
 1  3.75956586808681  0.39901639373937 -4.42523075257526
 1  3.89202495409541  2.06337741644164 -3.40220255565557
 1  2.30137592689269  1.48810330823082 -4.55685883788379
 1  0.84700861086109  2.54061555805581 -2.99206009800980
 1 -7.30640972707271 -3.43871605550555 -0.68228724992499
 1 -7.84913317821782 -3.33049437993799 -2.40934398789879
 1  3.70281400890089  3.49073843484348  3.87071032523252
 1 -0.57963184198420  4.38094937443744 -3.13977187258726
 1 -3.98329691929193  4.86084266606661 -0.62506365786579
 1 -3.86592534223422  3.83369816341634  1.02667347874787
 1 -2.62548086428643  5.34037432853285  0.66226199609961
 1  8.36422211571157 -2.02530568476848 -0.90893152815282
 1 -1.66596952155216  6.47836829392939 -3.42932778497850
 1 -2.70164251715172  6.09733110891089 -1.54302020952095

