%nproc=4
%Mem=3GB
# td=(NStates=1) B3LYP/SVP 

TD

0 1
 8 -3.20283719391939 -1.64136919241924 -2.94555520982098
 8  2.97177763256326  3.10837249574957  3.22302657355736
 8  3.60274458265827  1.35198232653265  4.44454889848985
 8  7.66612521542154 -1.54093020722072 -0.69303006480648
 8  6.60074423082308 -2.99115991089109 -1.99486593469347
 8 -2.59564047054705  1.52710819991999  1.49781984248425
 7 -0.31094684088409 -2.32180849514952  0.93756859765977
 7 -2.65974801280128 -1.33854898989899 -0.72154429902990
 7  1.20266181558156  0.10116102580258 -0.75091002820282
 7 -0.98969811531153  1.49033444134413 -0.23743464136414
 6 -3.33640879057906 -1.27831539393939  0.60828780268027
 6 -2.67101572767277 -2.26110025622562  1.63021832863286
 6 -1.24711035273527 -1.91689950395040  1.78814680328033
 6 -0.60326012831283 -1.11507269896990  2.76498451895190
 6  0.74506561916192 -1.06109111011101  2.48014920952095
 6  0.87902058825883 -1.83317975267527  1.21845664966497
 6 -4.65626057265727 -1.85832148084808  0.24893178047805
 6  1.90313490489049 -0.40034036363636  3.26736889138914
 6 -4.73055941734173 -2.11600030843084 -1.10146048654866
 6  1.99771772817282 -1.80111830403040  0.19711198989899
 6  2.14949097099710 -0.88893080528053 -0.75841974347435
 6 -3.50054472437244 -1.65308727402740 -1.70714799819982
 6  3.02744380758076 -0.64624537283728 -1.79255315421542
 6 -1.36974554675468 -0.41392524952495  3.93137864616462
 6 -5.77434265836584 -1.91513799409941  1.26810781638164
 6  2.50903055995600  0.44830219841984 -2.54991960196020
 6  1.95513494589459  1.06225191719172  2.71413805540554
 6  1.39921328782878  0.96578322692269 -1.79137524352435
 6  4.21724707380738 -1.45368479757976 -2.13625325542554
 6 -5.79141347744774 -2.60917300770077 -1.94719816801680
 6  5.34010956195620 -1.11455320052005 -1.19990340724072
 6  3.01557165256526  0.95156355895590 -3.76635314451445
 6  0.58480090419042  2.04741988888889 -2.10631237633763
 6  2.95132377267727  1.77571715721572  3.55288063326333
 6 -0.59055288688869  2.30097472967297 -1.22051733963396
 6 -6.83094702120212 -3.42074583868387 -1.60143870257026
 6  6.60993056265627 -2.02153040814081 -1.37487817781778
 6 -1.44750340514051  3.50687292049205 -1.28315639033903
 6 -2.24301839123912  3.41909238823882 -0.14393229942994
 6 -1.97620989338934  2.12426335983598  0.47447637963796
 6 -1.21128110651065  4.62154841504150 -2.07290905890589
 6 -3.28705934243424  4.34470495339534  0.33041728142814
 6 -1.86083997519752  5.83938935713571 -2.13862759555956
 1 -3.42268076127613 -0.34393988388839  1.08658286288629
 1 -2.65480710711071 -3.34632975797580  1.34881523062306
 1 -3.31081090089009 -2.29418286268627  2.52793218191819
 1 -0.45624092889289 -2.82309107420742  0.03016002600260
 1 -1.94644303400340 -0.61241754525452 -0.73410751315132
 1  1.75175313671367 -0.50975242904290  4.30720281938194
 1  2.74806213911391 -0.91375326662666  2.90274520392039
 1  2.77308612251225 -2.60762234513451  0.37529058225823
 1 -2.05282791209121 -0.87904717871787  4.52779984178418
 1 -0.60124989298930 -0.08349255285529  4.65100145664566
 1 -1.86412572637264  0.36416886358636  3.42825159045905
 1 -5.78956974417442 -1.10537866906691  2.00214450745075
 1 -5.65440420112011 -2.79297340194019  1.76859970627063
 1 -6.78237561436144 -2.00352599599960  0.62986934863486
 1  2.00687682708271  1.09060900280028  1.64632224352435
 1  0.89836978847885  1.51185342964296  3.06911488518852
 1  0.30544880248025  0.52122649244924 -0.15021705400540
 1  4.65061078027803 -1.18859191819182 -3.13936953885389
 1  3.84563539333933 -2.56169794899490 -2.07833494149415
 1 -5.67772991139114 -2.18262918751875 -2.87024048784879
 1  5.01555947724773 -1.02505298519852 -0.03426020232023
 1  5.72497393869387 -0.17167416351635 -1.45356983948395
 1  3.78720863236324  0.25062155425543 -4.37073530303030
 1  3.55998174977498  2.05045612431243 -3.55842817821782
 1  2.30981677097710  1.08593309120912 -4.43292644464446
 1  0.90826473647365  2.66713821032103 -2.94474536653665
 1 -7.06102518861886 -3.77088927282728 -0.52700172137214
 1 -7.77219548444844 -3.54402573307331 -2.24460751425142
 1  3.52926665416542  3.58370773177318  3.92513576777678
 1 -0.35472935173517  4.55051633113311 -3.01736963236324
 1 -4.17458604820482  4.61126770857086 -0.44290544204420
 1 -3.66909565926593  3.84881967556756  0.99570038143814
 1 -2.87908622482248  5.32679297039704  0.67352312221222
 1  8.44077977147715 -2.04255740994099 -0.95090572557256
 1 -1.74095702030203  6.77930838793879 -2.77788264046405
 1 -2.59660201310131  6.05832720852085 -1.30796670417042

