%nproc=4
%Mem=4GB
# td=(NStates=1) B3LYP/SVP 

TD

0 1
 8 -5.19554578457846  0.34987042664266 -3.27726751645165
 8  2.96493649914991  2.92540979567957  3.23816989538954
 8  3.32643099169917  0.77223262226223  2.79854173927393
 8  2.08295593509351 -7.31290756085609  1.45071357765777
 8  0.62030691869187 -7.04805122872287 -0.38002598549855
 8  1.63011005910591  3.87659078187819  0.10491999939994
 7 -2.44910452155215 -1.05075350555056  0.69451646824682
 7 -4.28340322172217  0.57918558505851 -1.11869022382238
 7  1.70402079367937 -0.76737831083108 -0.41019949754975
 7  2.53392893479348  1.83706945244524 -0.46685343204320
 6 -4.74181057225723  1.28257975497550  0.09932573237324
 6 -4.38990638343834  0.24802496779678  1.29142650035003
 6 -2.93669876547655 -0.09003874717472  1.35870788378838
 6 -2.00916001270127  0.57880283748375  2.18087125672567
 6 -0.74995160546055 -0.04418985448545  1.80027070467047
 6 -0.98987317511751 -1.02610566946695  0.80009182858286
 6 -6.20298265436544  1.47535532483248 -0.17200241564156
 6  0.57697630423042  0.16837751425143  2.41461048114812
 6 -6.59776029052905  1.04702395079508 -1.38245397409741
 6 -0.26084234033403 -2.00037877477748  0.11364344584458
 6  1.04218111431143 -1.90328987558756 -0.38723030523052
 6 -5.32745334563456  0.56573478817882 -2.10434774627463
 6  1.94271835703570 -2.97154769316932 -0.89066607590759
 6 -2.14154985588559  1.73422917981798  3.09496388658866
 6 -7.15121261446145  1.97803593279328  0.93151713761376
 6  3.11577791149115 -2.39022897409741 -1.33314455955596
 6  1.09463549084908  1.60802929632963  2.54212784868487
 6  2.94069214451445 -0.89789841544154 -1.03550753895390
 6  1.57086085628563 -4.42373833823382 -0.86958867576758
 6 -7.87110301630163  0.91955359295930 -1.96864525232523
 6  1.79338690429043 -5.10841177577758  0.46450244574457
 6  4.37618322732273 -2.95786425522552 -1.93774300560056
 6  3.86834770537054  0.07045644914491 -1.34279896229623
 6  2.62038265946595  1.72151974017402  2.76478237813781
 6  3.58727310511051  1.40050546204620 -1.13232980028003
 6 -9.11258624202420  0.89752191249125 -1.55850066536654
 6  1.38033309800980 -6.56911356155616  0.48058671767177
 6  4.47822665726573  2.65040179507951 -1.50683776687669
 6  3.81415068346835  3.78697922162216 -1.04614590889089
 6  2.48882045284528  3.30450830193019 -0.43992275497550
 6  5.92626623192319  2.51491633223322 -1.95770772587259
 6  4.21250687048705  5.19338421422142 -1.03035504890489
 6  6.60178023562356  3.47859354415442 -2.63213769066907
 1 -4.22061654775478  2.31234231433143  0.28517155745575
 1 -5.12182683958396 -0.44943641974197  1.03687843204320
 1 -4.67225406530653  0.66735073477348  2.39906681638164
 1 -2.87775681558156 -1.50073746924692 -0.10127704950495
 1 -3.30821181848185  0.79104102120212 -1.60344789568957
 1  0.81843627832783 -0.11291097909791  3.37066661476148
 1  1.29991400080008 -0.45288995639564  1.87457259005901
 1 -0.75509417031703 -2.93543100810081 -0.42160715841584
 1 -3.24106425172517  1.96240750485048  3.47184717441744
 1 -1.41554276937694  1.45672503640364  4.07311569946995
 1 -1.46548292939294  2.55666948674867  2.55725314711471
 1 -6.40957440834083  2.56281508500850  1.59711194419442
 1 -7.30648041504150  1.02313212241224  1.37984499519952
 1 -8.18391432863286  2.23325940904090  0.59421790199020
 1  1.04664737313731  2.15837787438744  1.75925399269927
 1  0.31418453095310  2.07869469146915  3.01093691789179
 1  1.38557288368837  0.23784442944294 -0.17341270657066
 1  2.08562635483548 -5.00255408580858 -1.73406801650165
 1  0.72898469596960 -4.56834668216822 -1.13272175557556
 1 -7.82963402520252  0.67670790139014 -3.14269020722072
 1  1.46308849774978 -4.24437561726173  1.12562013861386
 1  2.88964523462346 -4.93579078357836  0.77708552345235
 1  4.00859592189219 -3.93053050525053 -2.36839030013001
 1  5.19808090649065 -2.82242109230923 -1.07863148074807
 1  4.58937037013701 -2.42479471207121 -2.84603367696770
 1  4.75431505100510 -0.06262835733573 -1.85355153085308
 1 -9.65132873337334  1.21418887438744 -0.54083677347735
 1 -9.84114224782478  0.60269168486849 -2.15537163716372
 1  3.84215890239024  2.93883726742674  3.23627839353935
 1  6.29653312151215  1.32066421562156 -1.76701551655166
 1  5.25106580638064  5.56296906110611 -0.69426804670467
 1  4.15534755725573  5.41408817451745 -2.20133267816782
 1  3.45487315691569  5.75241484788479 -0.43077481908191
 1  1.53851115921592 -8.19745090219022  1.08118417331733
 1  7.60665310971097  3.26985252515252 -2.96636390969097
 1  6.26100798829883  4.55772128432843 -2.95248760126013

