%nproc=4
%Mem=3GB
# td=(NStates=1) B3LYP/SVP 

TD

0 1
 8 -3.32146905710571 -1.42277733323332 -2.87370802510251
 8  3.02565302010201  3.02051370987099  2.92942721362136
 8  3.41832614081408  1.54507163546355  4.64809925352535
 8  7.77843644654465 -1.53611972617262 -0.64242500430043
 8  6.91914607100710 -2.69580037493749 -2.34057050515051
 8 -2.54892579907991  1.59505499459946  1.42728278877888
 7 -0.30443618981898 -2.51108742304230  0.97972281308131
 7 -2.71525356335634 -1.24585972097210 -0.59450159475948
 7  1.11804335373537  0.02710362006201 -0.76005094229423
 7 -1.05757490299030  1.48497390529053 -0.29540043794379
 6 -3.37764291399140 -1.34563212561256  0.62923989788979
 6 -2.63985261136114 -2.35570971717172  1.55798110491049
 6 -1.28978462016202 -2.08856667066707  1.79142713131313
 6 -0.55563536583658 -1.23428462016202  2.77821584208421
 6  0.74699581218122 -1.16391139213921  2.42712390699070
 6  0.85833852005201 -1.88283471817182  1.21341614561456
 6 -4.80159510611061 -1.79600524922492  0.32180906820682
 6  1.86234082548255 -0.49797012661266  3.11379353385339
 6 -4.82445880728073 -2.03689239763976 -0.99571991249125
 6  2.02825078147815 -1.94802299449945  0.30743302200220
 6  2.10457647954795 -1.02666457865787 -0.75912981448145
 6 -3.53184785468547 -1.63013497879788 -1.63800108350835
 6  3.01630269346935 -0.74408515681568 -1.72458635753575
 6 -1.25408398059806 -0.48258211521152  3.83430893919392
 6 -5.91274649874988 -1.87822430273027  1.33523452905291
 6  2.67233689058906  0.44333170137014 -2.40809541954195
 6  1.96249568196820  0.96645233723372  2.68366500810081
 6  1.42600596709671  0.89445609420942 -1.70822692869287
 6  4.27471282038204 -1.45490491959196 -1.97001663176318
 6 -5.98503283938394 -2.34888697909791 -1.80872432063206
 6  5.38025357635764 -1.10633237843784 -1.15109852675268
 6  3.39487958335834  1.09378778137814 -3.59587609680968
 6  0.61697412151215  2.05841098799880 -2.06877862296230
 6  2.88618725902590  1.78103768926893  3.54061940714071
 6 -0.61874570617062  2.23775840804080 -1.24490977887789
 6 -6.94906883338334 -3.35764952905291 -1.49872843154315
 6  6.69142871247125 -1.88795705080508 -1.46080677067707
 6 -1.42638129292929  3.47493972717272 -1.22545061976198
 6 -2.32124621402140  3.34124460346035 -0.25571347754776
 6 -2.05156742914291  2.05671660516052  0.41387031903190
 6 -1.18358833723372  4.66135239543954 -2.20077184518452
 6 -3.26678731523152  4.33036351925193  0.36306054575458
 6 -1.89386327752775  5.83808922712271 -2.42826655945595
 1 -3.45924441764176 -0.23069855975598  1.05058926352635
 1 -2.69202082848285 -3.22602772777278  0.98511886098610
 1 -3.03078289808981 -2.36793023742374  2.43181256995700
 1 -0.46884218901890 -2.54693345844584 -0.07179016901690
 1 -2.12401079077908 -0.58903520702070 -0.89964406680668
 1  1.60021798319832 -0.56138759255926  4.07459955905591
 1  2.77838517141714 -1.06050794209421  3.09896482588259
 1  2.92709152305231 -2.57207879077908  0.46432948614861
 1 -1.95942857215722 -1.16326560056006  4.17835489728973
 1 -0.57492726072607 -0.38307251085109  4.58048440494049
 1 -1.94104341814181  0.37208965566557  3.48885765106511
 1 -5.68148893609361 -1.22426055725573  2.25353964696470
 1 -6.00469923062306 -2.92310641524152  1.70013285958596
 1 -6.91711908870887 -1.64752039543954  0.84434079577958
 1  2.20463660306031  1.06332627452745  1.54789240054005
 1  1.04171412291229  1.59644188848885  2.68082605630563
 1  0.29733799139914  0.24491886168617 -0.26490852315232
 1  4.63058877807781 -1.32369542854285 -2.98811441334133
 1  4.17512834263426 -2.51107288648865 -1.70921802980298
 1 -5.88023016141614 -2.02249317391739 -2.76737020082008
 1  5.24484240554055 -1.21262174207421 -0.18694547084708
 1  5.62632407370737 -0.10906790289029 -1.10451493399340
 1  4.19272918441844  0.51474796689669 -3.95872410191019
 1  3.72678843044304  2.11623270197020 -3.39492182758276
 1  2.62961875117512  1.14129862776278 -4.24393754575458
 1  0.81986589658966  2.86731822832283 -2.76213710571057
 1 -6.88155724182418 -3.87417960186019 -0.58351737293729
 1 -7.84321258615862 -3.45240657115712 -2.13268632213221
 1  3.58058178567857  3.46324568556856  3.43141639583958
 1 -0.40499437823782  4.33572485198520 -2.82969086448645
 1 -4.15871446104611  4.36040262206221 -0.24888604010401
 1 -3.53916266596660  3.82335712931293  1.32270308170817
 1 -2.89349766596660  5.40924121522152  0.67854362426243
 1  8.58508420192019 -1.91972512671267 -0.78332896789679
 1 -1.60940386498650  6.37200765786579 -3.31625647784778
 1 -2.80659301220122  6.07071844764477 -1.78435434293429

