%nproc=4
%Mem=4GB
# td=(NStates=1) B3LYP/SVP 

TD

0 1
 8 -5.25104133413341  0.20358579817982 -3.23637342704270
 8  2.95699570507051  3.11726898159816  3.23970004840484
 8  3.36442479107911  0.95103050205020  2.98911079617962
 8  1.64187182668267 -7.29453572367237  1.29976848314831
 8  0.27719260726073 -6.78090451405140 -0.56385436833683
 8  1.84578162626263  4.01412453525353  0.05510501790179
 7 -2.34401401250125 -0.98433686388639  0.69354637123712
 7 -4.29355423682368  0.70668833533353 -1.11930028482848
 7  1.77327771937194 -0.64436600960096 -0.53545202280228
 7  2.64638017991799  1.89652539803980 -0.44798154485449
 6 -4.77848423962396  1.24792628962896  0.08660446024602
 6 -4.39592698549855  0.28738890419042  1.30054741244124
 6 -2.94464956055606  0.00169042574257  1.43251526452645
 6 -1.97133623032303  0.60255521272127  2.15943911351135
 6 -0.64174078437844  0.05541010551055  1.75428610621062
 6 -0.96922110991099 -0.97780083898390  0.88216003540354
 6 -6.25597795389539  1.24837262656266 -0.11014623002300
 6  0.67204581118112  0.29684036053605  2.44435345544554
 6 -6.53919443394339  0.77187643604360 -1.35520124882488
 6 -0.15746200230023 -1.87327606450645  0.24284636613661
 6  1.10589748594859 -1.84800434703470 -0.30153173537354
 6 -5.31068166846685  0.59544775947595 -2.15809312081208
 6  1.83049713491349 -2.96107664606461 -0.96451346064606
 6 -2.19899560046005  1.75995175207521  3.03018740894089
 6 -7.13509100230023  1.59212734193419  1.01884587048705
 6  3.09389572327233 -2.39141909310931 -1.23303454855486
 6  1.08049407670767  1.77829632303230  2.52155579147915
 6  3.00197827312731 -0.97556618221822 -1.08381236943694
 6  1.50860463066307 -4.45615157955796 -1.01848356525653
 6 -7.88724463046305  0.48992062966297 -2.03406179397940
 6  1.68320588618862 -5.05488642324232  0.38160415591559
 6  4.27102271127113 -2.94909337813781 -2.01282051335134
 6  3.99303017361736  0.08284768826883 -1.30619530193019
 6  2.54892551375137  1.84247183538354  2.93957985788579
 6  3.68319269706971  1.47029244074407 -1.07540410771077
 6 -9.09967495089509  0.48415057535754 -1.53228804410441
 6  1.04618968366837 -6.46460311051105  0.33471213021302
 6  4.64729356395640  2.54836159105911 -1.47327441054105
 6  3.87105637403740  3.75581610531053 -1.13464475877588
 6  2.75080665146515  3.32832068316832 -0.36506526922692
 6  5.89785339063906  2.36586142674267 -2.09433138823882
 6  4.26604222402240  5.18630350615062 -1.08155016841684
 6  6.78220827842784  3.31993767856786 -2.47432190909091
 1 -4.25586007210721  2.07171825192519  0.60426346664666
 1 -5.01376603350335 -0.60510198629863  1.36873161736174
 1 -4.82779961986199  0.86376037573757  2.05569247894789
 1 -2.76892593249325 -1.52855025052505 -0.06907382918292
 1 -3.27924892219222  0.82984490159016 -1.41309886078608
 1  0.39614404910491 -0.10013970197020  3.50860040814081
 1  1.34223823322332 -0.08022268966897  1.93218835163516
 1 -0.47928658955896 -3.04573203820382 -0.21956695439544
 1 -3.17730787608761  1.57686895099510  3.58907889758976
 1 -1.37224843994399  1.39260862476248  3.87551593949395
 1 -1.85002138323832  2.83455727552755  2.80611803360336
 1 -6.65662911381138  2.20825962946295  1.79730196319632
 1 -7.56025579257926  0.64958476767677  1.52122913361336
 1 -8.12803874107411  2.06168225132513  0.62192067226723
 1  1.02844555295529  2.29503153975398  1.59048711601160
 1  0.73224633713371  2.36916373837384  3.18663448764877
 1  1.48290261666167  0.28761940694069 -0.11658702400240
 1  2.08019581178118 -4.92518634903490 -1.97011162086209
 1  0.46605840334033 -4.67199704720472 -1.33710219361936
 1 -7.92719378117812  0.40620085068507 -3.11999793799380
 1  1.23265545444544 -4.64589576927693  1.34790236683668
 1  2.75884215431543 -4.90643784828483  0.52565037993799
 1  3.88688375067507 -3.90717817001700 -2.61095455655566
 1  5.25306640504050 -2.95848469866987 -1.29284290189019
 1  4.50361179427943 -1.99265149774978 -2.74703377697770
 1  4.96377599709971 -0.27888998349835 -1.72671884758476
 1 -9.30521412191219  0.76352380788079 -0.36505919571957
 1 -9.90432856645665  0.49189060476048 -2.21314741474147
 1  3.97517220372037  3.02895627932793  3.45112987868787
 1  6.10743421162116  1.44023617281728 -2.22274108910891
 1  5.21515221502150  5.18517128132813 -0.59853847374738
 1  4.44744676717672  5.54948171387139 -1.98810135503550
 1  3.35147281688169  5.70440004640464 -0.74093583518352
 1  1.42527983608361 -8.21648280538054  1.14161021592159
 1  7.87268971337134  3.02717825772577 -2.78827610091009
 1  6.57498938643864  4.41621713391339 -2.48172052455246

