%nproc=4
%Mem=3GB
# td=(NStates=1) B3LYP/SVP 

TD

0 1
 8 -3.28578548874887 -1.43535859135914 -2.83930458475848
 8  3.00793124792479  3.23335499399940  2.99108337923792
 8  3.50680498869887  1.49093622192219  4.40354479807981
 8  7.75616421932193 -1.45230134433443 -0.73388415021502
 8  6.86118027442744 -2.93718451335133 -2.09996644474447
 8 -2.61019192569257  1.59449493859386  1.52348240874087
 7 -0.36471221742174 -2.47805411971197  0.91037587838784
 7 -2.72938497649765 -1.21742687768777 -0.52655480008001
 7  1.06308785818582 -0.03066215651565 -0.91405634283428
 7 -1.02115126062606  1.37925333323332 -0.18061895979598
 6 -3.39323447314731 -1.42178974137414  0.75848282218222
 6 -2.70038866496650 -2.49113325952595  1.58339364616462
 6 -1.29877551925193 -2.10833864786479  1.71087907650765
 6 -0.65957575987599 -1.21374256595660  2.76008402890289
 6  0.76061717431743 -1.06721172217222  2.42692388698870
 6  0.86074876107611 -1.84914134883488  1.32247705170517
 6 -4.79574452105211 -1.82039768846885  0.30876776407641
 6  1.78145273667367 -0.30173050265027  3.12906506100610
 6 -4.87480384178418 -1.99140784918492 -1.10359069956996
 6  1.93277123352335 -1.89024721692169  0.25329760846085
 6  2.05568159005901 -0.90258217041704 -0.75076897839784
 6 -3.48272294219422 -1.48612057735774 -1.66961424482448
 6  3.06394745794579 -0.74487523582358 -1.75701960086009
 6 -1.34024259645965 -0.48671252825283  3.75220072837284
 6 -5.76360158425843 -2.16523300360036  1.43245425102510
 6  2.56820647754776  0.40983835203520 -2.47737234723472
 6  1.85905533793379  1.23818951095110  2.71522816441644
 6  1.38115148164816  0.84417106570657 -1.93163926992699
 6  4.26197154625463 -1.52266169526953 -2.06108573867387
 6 -5.94371870797080 -2.47622971337134 -1.98769221742174
 6  5.46988253925393 -1.07122886808681 -1.17341075797580
 6  3.22773286868687  1.08718712131213 -3.63103961316132
 6  0.47976040014001  1.92290743764376 -2.03785553065307
 6  2.85118375867587  1.99107869336934  3.49802514771477
 6 -0.58679251085109  2.21800643284328 -1.18143343124312
 6 -6.97492141864186 -3.35888965306531 -1.71754031273127
 6  6.72315188478848 -1.95694394949495 -1.40343103310331
 6 -1.23725238003800  3.51695392859286 -1.12844091879188
 6 -2.13751784118412  3.35237571657166 -0.00406831303130
 6 -1.98466073847385  2.08775970947095  0.52776170817082
 6 -1.15357533593359  4.60163642384238 -2.16792856085609
 6 -3.23087372387239  4.31829231213121  0.34803904360436
 6 -1.63409730093009  5.85123054125413 -2.11310504330433
 1 -3.57963645684568 -0.52092758265827  1.20110431503150
 1 -2.90212183858386 -3.57754287928793  1.04204455355536
 1 -3.12146196599660 -2.39655309970997  2.63047243594359
 1 -0.52756806160616 -3.12787155225523  0.07007401740174
 1 -2.11347973767377 -0.51604790829083 -0.70066416881688
 1  1.64614257565757 -0.26977843164316  4.22079417851785
 1  2.72943027592759 -0.64802669396940  2.98619354875487
 1  2.84129294319432 -2.51380296319632  0.34020707390739
 1 -2.18854148344834 -0.89056833083308  4.37607466926693
 1 -0.67960772877288 -0.12441664526453  4.55921227772777
 1 -1.81942125592559  0.49805225192519  3.25878464376438
 1 -5.55399618681868 -1.65337346854686  2.49110340334033
 1 -5.95557431813181 -3.45901000560056  1.23970681698170
 1 -6.71723910071007 -1.93347899129913  1.19789615131513
 1  2.26254239363936  1.17800774267427  1.67386499779978
 1  0.89784973647365  1.74005624992499  2.46418439213921
 1  0.22955121272127  0.30095446524652 -0.53357538983898
 1  4.35061078027803 -1.48301136013601 -3.08509411131113
 1  4.07153798359836 -2.66575835503550 -1.81566867486749
 1 -5.77662980138014 -2.11294221882188 -3.07803126692669
 1  5.13067098839884 -1.22099257915792 -0.15378215451545
 1  5.88762020332033  0.06995999989999 -1.38203268576858
 1  3.82323223472347  0.05609210131013 -4.13535176467647
 1  3.93339909150915  1.99629070777078 -3.52266460186019
 1  2.61524731403140  1.54019851775177 -4.48771192319232
 1  0.81621553155315  2.82000349684968 -2.67548844084408
 1 -6.94317340344034 -3.74323650755076 -0.81277029822982
 1 -7.67805607050705 -3.48814014451445 -2.43604665816582
 1  3.79613334083408  3.71224058505851  3.32115536973697
 1 -0.35420929972997  4.32909418891889 -3.01973986938694
 1 -3.72194078367837  4.59357593939394 -0.49795094659466
 1 -3.75304405410541  3.74250904450445  1.13465427682768
 1 -2.76225454165417  5.17003729482948  0.77546331623162
 1  8.44969066256626 -1.90870402460246 -0.71238187318732
 1 -1.44508743334333  6.44540499759976 -3.12327717991799
 1 -2.25577793069307  6.28041941774177 -1.35198110561056

