%nproc=4
%Mem=3GB
# td=(NStates=1) B3LYP/SVP 

TD

0 1
 8 -3.25302221242124 -1.38268332383238 -3.01850250455045
 8  3.17422787758776  3.19446110461046  3.20591486238624
 8  3.67086139433943  1.36789391769177  4.54882932653265
 8  7.69609821272127 -1.49994610881088 -0.66103686548655
 8  6.75477963436344 -2.82795359025903 -2.13760020812081
 8 -2.65395630213021  1.53021851095110  1.45044510501050
 7 -0.22613836003600 -2.37710402470247  0.99581442224222
 7 -2.64422646064606 -1.34182931793179 -0.70527267186719
 7  1.13016456585659  0.03759466916692 -0.85297023422342
 7 -1.05681482698270  1.28834424232423 -0.35469636753675
 6 -3.34401955165517 -1.40655821822182  0.58373534743474
 6 -2.60856948304830 -2.38222236843684  1.65391069786979
 6 -1.23831947364736 -1.99536735073507  1.86013400200020
 6 -0.56383618591859 -1.15648684038404  2.83815183568357
 6  0.79224033663366 -1.05113011401140  2.50909210381038
 6  0.95726841304130 -1.82432886758676  1.26431123512351
 6 -4.79432437903790 -1.84929057775778  0.20517740504050
 6  1.83132772417242 -0.19473980358036  3.13623577807781
 6 -4.93445980738074 -2.04951365976598 -1.16209655015502
 6  2.02564052045205 -1.85156334853485  0.31124340304030
 6  2.15240126202620 -0.90636254845485 -0.68315221672167
 6 -3.53560823072307 -1.52988495379538 -1.79093637703770
 6  3.08399946314631 -0.72526327462746 -1.78684258315832
 6 -1.33429200140014 -0.48979283628363  4.01563707200720
 6 -5.77589281338134 -2.05604208450845  1.32059306490649
 6  2.57502715961596  0.39294666286629 -2.48800341034103
 6  1.90785021742174  1.20626631863186  2.81189783138314
 6  1.47060042654265  0.91781843044304 -1.83189929592959
 6  4.19565491459146 -1.51512094119412 -2.03299292939294
 6 -5.93404774087409 -2.39007109750975 -2.01570501870187
 6  5.38553410441044 -1.17515926112611 -1.22929634653465
 6  3.13460355575558  1.03720212281228 -3.81563807300730
 6  0.46646907100710  1.96423157005701 -2.06023776887689
 6  3.03515215551555  1.93065265076508  3.68099344454445
 6 -0.65490932253225  2.17703233543354 -1.29804509240924
 6 -7.08220214671467 -3.13389715381538 -1.69656821552155
 6  6.63795336493649 -1.94108236333633 -1.34478516851685
 6 -1.44412306710671  3.50058229142914 -1.22379045374537
 6 -2.28518260766077  3.32056253525353 -0.19505741194119
 6 -2.03578585098510  2.00230116361636  0.47094602660266
 6 -1.21036101450145  4.47031329152915 -2.10581234923492
 6 -3.21505214171417  4.37163764666467  0.45568980868087
 6 -1.94888878007801  5.60786620482048 -2.23878761156116
 1 -3.39642813601360 -0.49077456735674  1.13763796839684
 1 -3.03419504590459 -3.47413253825383  1.41530187928793
 1 -3.18021784158416 -2.15606905130513  2.58458784748475
 1 -0.51818712351235 -2.97458622372237  0.16120313031303
 1 -1.76676506620662 -0.71084738823882 -0.80506460886089
 1  1.64845280668067 -0.44145559935994  4.07557965706571
 1  2.77072440534053 -0.68288017931793  3.16454138353835
 1  2.74467328122812 -2.66192777567757  0.42912596579658
 1 -1.78578120742074 -1.33202247624762  4.49801686348635
 1 -0.65018478647865  0.05032082848285  4.66946330283028
 1 -2.03563287708771  0.25760820752075  3.64634339963996
 1 -5.53205399259926 -1.39440757195720  2.08355264826483
 1 -5.75502426312631 -2.93365747034703  1.67189003530353
 1 -6.70366774357436 -1.85543118651865  0.82698906060606
 1  2.16586272567257  1.38114805670567  1.67842545384538
 1  0.97094704620462  1.75915816011601  2.84230220392039
 1  0.18291654925493  0.12781715151515 -0.37460949324933
 1  4.51443716291629 -1.66574963396340 -3.06129173107311
 1  4.03570440024002 -2.48796057525753 -1.75339244724472
 1 -5.81217335573557 -2.34371529612961 -3.01922538633863
 1  5.12510043134313 -1.06565704560456 -0.16543331963196
 1  5.55806724802480 -0.05372236833683 -1.40317479998000
 1  3.83339325082508  0.52053854595460 -4.37782601210121
 1  3.43202895449545  1.89917099579958 -3.61308364376438
 1  2.23087887718772  0.91504600250025 -4.63027617961796
 1  0.84207811781178  2.47619911641164 -2.88824971697170
 1 -7.46200528662866 -3.17893007690769 -0.60147916911691
 1 -7.55051331623162 -3.48937026752675 -2.62103515701570
 1  4.06439016651665  3.67275663666367  3.52647590179018
 1 -0.13131701050105  4.50735201470147 -2.65695359075908
 1 -4.11219980958096  4.53076965876588 -0.29844099559956
 1 -3.92319106880688  4.00891568516852  1.41854266566657
 1 -2.69605792199220  5.29293958505851  0.78718448834884
 1  8.36030172367237 -2.06883003720372 -0.92514314931493
 1 -1.58122104670467  6.51205166226623 -2.67328218041804
 1 -3.00506285918592  5.49420079587959 -1.80182609010901

