%nproc=4
%Mem=4GB
# td=(NStates=1) B3LYP/SVP 

TD

0 1
 8 -5.23544977497750 -0.08324288468847 -3.22989277897790
 8  2.99053905940594  2.79972722742274  2.98544462286229
 8  3.40888923752375  0.63828922792279  2.87680956605661
 8  1.68711635113511 -7.05123139323932  1.66717522382238
 8  1.07687257525753 -7.15262168576858 -0.52278026092609
 8  1.55200224832483  3.87434055685569  0.06422592999300
 7 -2.35456506760676 -0.95328375857586  0.68822583918392
 7 -4.33489837123712  0.53410107660766 -1.24953330813081
 7  1.72260265186519 -0.72881445444544 -0.53758223582358
 7  2.38479402130213  1.86873261876188 -0.57086383308331
 6 -4.63126951815182  1.18114961196120 -0.02131633183318
 6 -4.31521891469147  0.47188735403540  1.19999735743574
 6 -2.94258935453545  0.09200945764576  1.44449646264626
 6 -1.91996109280928  0.63308826602660  2.08975214481448
 6 -0.79142575287529 -0.12454789028903  1.78462914051405
 6 -1.05860004780478 -1.07685074397440  0.84131595099510
 6 -6.20060241634163  1.40886867616762 -0.11047626302630
 6  0.50801940854085  0.14089476597660  2.59812883298330
 6 -6.54220473497350  1.06833608200820 -1.35555128382838
 6 -0.20285654175418 -2.03967270417042  0.13091517301730
 6  1.08959585578558 -1.91321086768677 -0.35931751395140
 6 -5.32783338363836  0.34857307200720 -2.13347065856586
 6  1.89083316851685 -2.94018455685569 -0.96376338563856
 6 -2.03685938683868  1.67121287818782  3.14984937513751
 6 -6.97164465766577  2.07462559175918  0.99115310121012
 6  3.03713004670467 -2.37535748694869 -1.40101134623462
 6  1.18171419871987  1.56036452985299  2.58180181608161
 6  3.00456853215322 -0.88534716031603 -1.09534352255226
 6  1.56359012921292 -4.36970293469347 -0.83629534643464
 6 -7.84512041804180  0.96717835543554 -2.06318470627063
 6  1.82064963056306 -5.02817375197520  0.52049804530453
 6  4.27577318631863 -2.93398186698670 -1.97533676497650
 6  3.79900077067707  0.03886328982898 -1.41239592199220
 6  2.65788640984098  1.50555814401440  2.76194209410941
 6  3.46547092489249  1.49827523902390 -1.07223379067907
 6 -9.10235521892189  1.20060222052205 -1.47230204550455
 6  1.42105717041704 -6.49593624382438  0.40678933793379
 6  4.44371320592059  2.65580233513351 -1.36543362646265
 6  3.78486775517552  3.81260178387839 -0.98087938223822
 6  2.38908047884789  3.26805465656566 -0.47503626632663
 6  5.76681028632863  2.51787662826283 -1.96132808790879
 6  4.14522014181418  5.24249912571257 -0.96112812621262
 6  6.63765382298230  3.52422810761076 -2.40100457735774
 1 -4.13428791489149  2.03541462156216  0.04932797309731
 1 -4.96545120202020 -0.52227370347035  1.34481922612261
 1 -4.42345918581858  0.81390539023902  2.26469337903790
 1 -2.81490052995300 -1.32783017851785 -0.09110603240324
 1 -3.42059305660566  0.46943886098610 -1.44838238913891
 1  0.44186862156216 -0.08031771977198  3.72820236833683
 1  1.29431344074407 -0.51132579998000  2.06155128792879
 1 -0.43642230313031 -2.97747521252125 -0.20395539323932
 1 -3.11587173247325  2.01341260536054  3.34946493619362
 1 -1.54053526862686  1.73069243314331  3.92190057795780
 1 -1.81037741884188  2.69047286708671  2.53851127292729
 1 -6.43672712361236  2.68948775227523  1.62895512851285
 1 -7.34541430843084  1.18127793699370  1.63111012171217
 1 -7.84352028922892  2.89714579767977  0.46632511271127
 1  0.99349205760576  2.00299233583358  1.66922498979898
 1  0.60606371887189  2.42885970797080  3.23667949214921
 1  1.21773610001000  0.11365201020102 -0.47756312161216
 1  2.28957674987499 -4.68971280168017 -1.54574918461846
 1  0.58150994849485 -4.43894374187419 -1.37848633203320
 1 -7.47002806460646  0.37758798939894 -3.09498543674367
 1  1.41677386628663 -4.51799297899790  1.35513308990899
 1  2.78947521762176 -5.10679788428843  0.81105892079208
 1  4.09088415071507 -3.94468192039204 -2.35742920402040
 1  5.06429752815282 -3.07065591579158 -1.25311892949295
 1  4.68609004210421 -2.41785401800180 -2.83449252285229
 1  4.62278189768977  0.03746165166517 -1.96299247494750
 1 -9.36459005950595  1.71004846034603 -0.55104779457946
 1 -9.82303043664366  0.89658107380738 -2.07630373037304
 1  3.88928361486149  2.65964934863486  3.16510127582758
 1  5.88153162136214  1.45347749694969 -2.55326414141414
 1  5.01854255405541  5.24980774497450 -0.45780440034003
 1  4.34786680918092  5.67670443614361 -1.85569811471147
 1  3.38639630923092  5.81036064246425 -0.41380312191219
 1  1.67055436353635 -8.08474963206321  1.48455451035104
 1  7.65115756015602  3.23419895979598 -2.77862513581358
 1  6.29396128362836  4.56887239943994 -2.30854320682068

