%nproc=4
%Mem=4GB
# td=(NStates=1) B3LYP/SVP 

TD

0 1
 8 -5.25284151415141  0.07635307490749 -3.24450424012401
 8  3.13941394689469  2.92615987068707  3.15235131353135
 8  3.36762511111111  0.74039943894389  2.84643652875288
 8  1.39195683518352 -7.17300357045705  1.48911741804180
 8  0.35579046704670 -6.86062248584858 -0.50675865876588
 8  1.74004105220522  4.13554667746775 -0.02157264986499
 7 -2.26491610271027 -0.92696112631263  0.60540755735574
 7 -4.20380526192619  0.50914858135814 -1.18848720352035
 7  1.91758214981498 -0.60709228222822 -0.38213669126913
 7  2.46819236113611  1.84061980748075 -0.44641138783878
 6 -4.75047143834383  1.11432292929293  0.10818661846185
 6 -4.27669506230623  0.34875504080408  1.34025138283828
 6 -2.87566266186619 -0.01946168946895  1.37293930693069
 6 -1.95135423212321  0.49060401760176  2.24879804940494
 6 -0.66409301960196  0.02916748124812  1.80886156375638
 6 -0.88625281308131 -1.03678673757376  0.87931975137514
 6 -6.26072842894289  1.26364415371537 -0.15833104850485
 6  0.60357896449645  0.32878355485549  2.60268928902890
 6 -6.49850036453645  0.85067431583158 -1.39306503520352
 6 -0.18565482158216 -1.91795053195320  0.12615469696970
 6  1.09508640484048 -1.82862240884088 -0.33622520472047
 6 -5.24211481178118  0.42971118581858 -2.09777708920892
 6  1.90988507370737 -2.81903244164416 -0.93574058335834
 6 -2.13567926882688  1.60341609850985  3.34978936913691
 6 -7.11463895709571  1.65817394659466  0.91973595949595
 6  3.08880521422142 -2.29251920312031 -1.38003924902490
 6  1.06042206950695  1.70623911731173  2.61788542444244
 6  3.02860093539354 -0.86748537413741 -1.00973496169617
 6  1.46592036223622 -4.27539350375037 -0.98236995389539
 6 -7.77863376937694  0.77553919151915 -2.14326271407141
 6  1.80570813641364 -5.00508144274427  0.33247924342434
 6  4.24233984298430 -3.03798226702670 -1.98851808310831
 6  3.87425829642964  0.17360676417642 -1.29991467386739
 6  2.60738135933593  1.70484807300730  2.91505740564056
 6  3.72064644244424  1.42612802430243 -1.03456002330233
 6 -9.04985996939694  0.63335549584958 -1.57692250755075
 6  1.09737480218022 -6.41565821602160  0.32409106810681
 6  4.52706154075408  2.63769052395240 -1.53948103120312
 6  3.87170643904390  3.68799932363236 -1.02169346364636
 6  2.53108467926793  3.30517836893689 -0.42387114981498
 6  5.80937454275428  2.49109394999500 -2.22118407350735
 6  4.16578219801980  5.15805068086809 -1.17612962636264
 6  6.69310936853685  3.46725241004100 -2.49405388228823
 1 -4.23442792889289  2.24019509960996  0.18670171047105
 1 -4.97385204210421 -0.53125460156016  1.17203194739474
 1 -4.49418625852585  0.82291629132913  2.16422333203320
 1 -2.83353239313931 -1.42608000350035 -0.19757667946795
 1 -3.27027802510251  0.45867778487849 -1.37989554045405
 1  0.15628006270627  0.17340765276528  3.77965751385139
 1  1.38958296769677 -0.27531219861986  2.19664479727973
 1 -0.70516917781778 -2.94076154115412  0.09231423372337
 1 -3.18116826212621  1.66829809390939  3.74006399609961
 1 -1.48497971307131  1.31124048794880  4.21710009790979
 1 -1.83665004610461  2.75062888268827  3.18093551535153
 1 -6.67780123102310  2.64468327182718  1.58366059905991
 1 -7.52065183218322  0.67092690189019  1.43623063376338
 1 -8.24741067826783  2.07988407150715  0.54077255745575
 1  0.89352206060606  2.19722175877588  1.78191625892589
 1  0.63894700720072  2.40442726472647  3.44834065826583
 1  1.51637596399640  0.32427307230723 -0.23683904920492
 1  2.21146893909391 -4.85558938933893 -1.59445405510551
 1  0.39863166066607 -4.35231507900790 -1.29079756315632
 1 -7.74160522232223  0.76134636523652 -3.21963790199020
 1  1.22228441734173 -4.38790997069707  1.25621319791979
 1  2.84343061316132 -5.19853705820582  0.56213402830283
 1  3.97939300160016 -4.23283073527353 -2.06762022312231
 1  5.18147924632463 -3.01831068126813 -1.38852246984699
 1  4.31486291939194 -2.61223345594559 -2.87601667526753
 1  4.70885050455046 -0.04385648014801 -2.16091226692669
 1 -9.45086868736874  0.76507396289629 -0.41165385518552
 1 -9.86789492309231  0.65183659935994 -2.44581068106811
 1  4.10759544604460  2.84871825552555  3.35009977567757
 1  6.08021148934893  1.31838398759876 -2.27382619761976
 1  5.24049474927493  5.33501626582658 -0.66732535243524
 1  4.23567559005901  5.70585735143514 -2.02739528442844
 1  3.48604627422742  5.76086569296930 -0.64702644424442
 1  0.75853316141614 -7.97963912101210  1.32318837373737
 1  7.69040148454846  3.21960750065006 -2.95977325062506
 1  6.52613450095009  4.45341085328533 -1.91199355185518

