%nproc=4
%Mem=3GB
# td=(NStates=1) B3LYP/SVP 

TD

0 1
 8 -3.29854676487649 -1.37550260576058 -2.88963961826183
 8  3.37475793059306  3.08882054055405  2.76984125502550
 8  3.26409071727173  1.58923605190519  4.79488393199320
 8  7.56325492839284 -1.87983409760976 -0.25260602240224
 8  6.68136229262926 -2.81028182308231 -2.32051849995000
 8 -2.61145205170517  1.54837032613261  1.45219528002800
 7 -0.26107185338534 -2.47763407770777  0.85759059985999
 7 -2.70657269526953 -1.29549468446845 -0.57333947854785
 7  1.19194074347435  0.13229413911391 -0.81895683288329
 7 -1.03358250375037  1.43142855075508 -0.24714561246125
 6 -3.33178832853285 -1.40285784818482  0.62818979287929
 6 -2.61589021512151 -2.31317546374637  1.61407671447145
 6 -1.20764640634063 -2.10770858485849  1.76810479907991
 6 -0.57873767606761 -1.29045023672367  2.77507552805281
 6  0.80134124672467 -1.16077107810781  2.41505269986999
 6  0.97382006820682 -1.86246268096810  1.07834263826383
 6 -4.70089503610361 -1.94077972667267  0.21974886218622
 6  1.81432602400240 -0.45957628722872  3.14883703820382
 6 -4.85637199859986 -2.01775048344834 -1.09187952845285
 6  2.20445840224022 -1.84013220542054  0.23622590129013
 6  2.19699572147215 -0.81425333753375 -0.69894379587959
 6 -3.61693636353635 -1.53071503680368 -1.67177446084608
 6  3.11246230943094 -0.62150289858986 -1.76189008790879
 6 -1.18951752395240 -0.59687354435444  3.85822133043304
 6 -5.76807203130313 -2.04752123242324  1.40476148174817
 6  2.60914057095710  0.52432980118012 -2.52903751375138
 6  2.03640307270727  1.07942363436344  2.55433207480748
 6  1.41395476197620  1.02829947854785 -1.81491759775978
 6  4.26501185028503 -1.40205963506351 -2.01276090619062
 6 -5.96396073217322 -2.47880997139714 -1.92683613181318
 6  5.37673322432243 -1.15920766596660 -1.03365678257826
 6  3.24950504590459  1.20569897249725 -3.53933044224422
 6  0.43694611871187  2.07342248914892 -2.08938068316832
 6  2.96313495379538  1.88326791229123  3.50660600580058
 6 -0.65466929852985  2.31915654785479 -1.25262054995500
 6 -7.01147507400740 -3.14324808890889 -1.53233179187919
 6  6.65998556815682 -2.01525978107811 -1.34642533253325
 6 -1.45422407720772  3.54821705490549 -1.16719479417942
 6 -2.28346243564356  3.43092357135714 -0.11734964116412
 6 -1.99199147154715  2.04712564606461  0.51550048204820
 6 -1.34647462586259  4.53463972417242 -2.33516528452845
 6 -3.29737037353735  4.33090357325733  0.49086332603260
 6 -2.01600549174917  5.66886230443044 -2.45484921772177
 1 -3.43654214741474 -0.66949243914391  1.30712491709171
 1 -2.64986661306131 -3.31526665166517  1.05119546864686
 1 -3.12308212801280 -2.25679912431243  2.52512190089009
 1 -0.39362466726673 -2.92241100620062 -0.10159314931493
 1 -2.13732212191219 -0.54428073157316 -0.89713381578158
 1  1.43000096149615 -0.45993744754475  4.22689478857886
 1  2.78938627152715 -1.10777266856686  3.19281421082108
 1  3.08214702860286 -2.40325190809081  0.29498255145515
 1 -2.05161779107911 -1.10925019901990  4.34514157595760
 1 -0.55443521152115 -0.22823702730273  4.73349970647065
 1 -1.47735704950495  0.34743719041904  3.30168893419342
 1 -5.71597238443844 -1.39798792999300  2.30437473047305
 1 -5.55871463216322 -3.19486359095910  1.63724657095710
 1 -6.71514889168917 -2.08201384478448  1.03642000370037
 1  2.44758089748975  0.94276421832183  1.55572318361836
 1  0.99474942644264  1.52638488278828  2.52272024572457
 1  0.25514377197720  0.15515988578858 -0.45233726602660
 1  4.43378909810981 -1.25087814681468 -2.98253385528553
 1  4.04969579937994 -2.40015179437944 -1.84978208620862
 1 -6.01829396779678 -2.33089401400140 -2.95749921372137
 1  5.05114303560356 -1.35135561546155  0.00711393509351
 1  5.75685712701270 -0.14303129922992 -1.04524900740074
 1  4.04127403890389  0.53307980008001 -3.95747397689769
 1  3.81393714531453  2.29314039273927 -3.26200853625363
 1  2.62824861416142  1.52495699359936 -4.62481563356336
 1  0.85626953695370  2.73704520102010 -2.88106899889989
 1 -7.17337642374237 -3.29685186908691 -0.49294831603160
 1 -7.52804106900690 -3.66946827732773 -2.39161221472147
 1  3.79306303380338  3.55487484848485  3.62809606380638
 1 -0.68491237003700  4.00600187968797 -3.03805170057006
 1 -4.01364995459546  4.50379696149615 -0.34558571007101
 1 -3.70489923962396  3.93704849844984  1.45391620302030
 1 -2.71882019821982  5.37721801290129  0.57275304520452
 1  8.28505419891989 -2.14886804100410 -0.88390902590259
 1 -2.13667659225923  6.34816527362736 -3.32017686988699
 1 -2.78637098999900  5.89898127392739 -1.85013092059206

