%nproc=4
%Mem=3GB
# td=(NStates=1) B3LYP/SVP 

TD

0 1
 8 -3.36092300250025 -1.34161921742174 -3.02754340864086
 8  3.08584903970397  3.05468712721272  3.14773904480448
 8  3.88531283948395  1.32000912921292  4.38940338393839
 8  7.72172077497750 -1.31215732993299 -0.91163192499250
 8  6.60425458185819 -3.15019581448145 -1.70685713381338
 8 -2.82317322382238  1.48229371847185  1.30622068256826
 7 -0.27187293349335 -2.39017533183318  0.91315615641564
 7 -2.69558159615962 -1.21968710371037 -0.74176632123212
 7  1.16033758315832  0.05217612731273 -0.68870380758076
 7 -1.03199234473447  1.45135054295430 -0.11631252915292
 6 -3.39660481018102 -1.39795735813581  0.59363633753375
 6 -2.59756838293829 -2.31476562276228  1.56416172297230
 6 -1.12094773647365 -1.98610642464246  1.76825481408141
 6 -0.56395619791979 -1.14235542724272  2.75823384388439
 6  0.83886499909991 -1.14756975797580  2.49172036663666
 6  1.00750343654365 -1.88731516621662  1.31799660366037
 6 -4.72002694929493 -1.89850549924993  0.24927181448145
 6  1.91326591799180 -0.35429575917592  3.22968512301230
 6 -4.84180054145415 -1.98957766616662 -1.10496083658366
 6  2.03792174857486 -1.89758795099510  0.33000527922792
 6  2.05514153605361 -0.95062697489749 -0.64542844434443
 6 -3.57787245714571 -1.52065403070307 -1.79887717111711
 6  2.99887095029503 -0.65048579687969 -1.68636253515352
 6 -1.34109268146815 -0.31232508950895  3.81133664196420
 6 -5.75084030813081 -2.23368984928493  1.25116612221222
 6  2.48774843174317  0.42602997119712 -2.38999360936094
 6  2.05800523292329  1.02159785178518  2.68452509410941
 6  1.30053341984198  0.94933158175818 -1.75375148114811
 6  4.21613696279628 -1.45997542664266 -1.98539816991699
 6 -5.84276861296130 -2.39263135353535 -1.89892334053405
 6  5.42396794779478 -1.06352809800980 -1.23751716861686
 6  3.15376547194719  1.14377277987799 -3.59986649584958
 6  0.49365178927893  2.02943809070907 -2.00025177027703
 6  3.14470311061106  1.78185777127713  3.57520286548655
 6 -0.65630946254625  2.33025765796580 -1.13102839073907
 6 -6.96841076757676 -3.12438620272027 -1.66823538223822
 6  6.54685425502550 -1.91914016911691 -1.36044673467347
 6 -1.35273392819282  3.44556678987899 -1.20286836153615
 6 -2.28171226062606  3.27819829882988 -0.25987389358936
 6 -2.09735200760076  2.02745367886789  0.47063599559956
 6 -1.25782576097610  4.57333359355936 -2.24448621662166
 6 -3.26161679817982  4.33163364626463  0.32882712241224
 6 -1.99675356655666  5.55381079927993 -2.40830456325633
 1 -3.54976346954695 -0.37189267916792  1.14280848544854
 1 -2.79013063946395 -3.48137326232623  1.29900024912491
 1 -3.07660748054806 -2.17330077447745  2.63707309600960
 1 -0.49297460226023 -2.64595336043604  0.04706171617162
 1 -1.99580797049705 -0.49190549404940 -0.96689079147915
 1  1.61943990539054 -0.43627508130813  4.41800389948995
 1  3.00356768966897 -0.92490438173817  3.22837776717672
 1  2.76818563246325 -2.80434201710171  0.20360341354135
 1 -1.92108473777378 -1.02721199519952  4.32677973977398
 1 -0.72359212721272  0.21898769516952  4.57117347384739
 1 -1.92329164296430  0.42024447114711  3.42402116741674
 1 -5.53272405960596 -1.60715884708471  2.01371566456646
 1 -5.52029078977898 -3.19549365396540  1.53887673397340
 1 -6.79090646744674 -2.00488613201320  0.91549791149115
 1  2.18273441284128  1.14037397929793  1.49663727502750
 1  0.95520547204721  1.60187243154315  3.07207518121812
 1  0.24634289188919 -0.10067569776978 -0.08194022632263
 1  4.40175589478948 -1.51268432743274 -2.97058266016602
 1  4.07651848164816 -2.56503828302830 -1.61903901190119
 1 -5.70039217761776 -2.02142306690669 -2.88478194199420
 1  5.28011593289329 -1.08844932483248 -0.11021779807981
 1  5.77675911721172 -0.00049704580458 -1.69893437593759
 1  4.19709962146215  0.81992848494849 -4.00887911741174
 1  3.22360811241124  2.28395947464746 -3.42298463386339
 1  2.57574336363636  1.32026652455246 -4.59425257725773
 1  0.65672958295830  2.73785528202820 -2.70219111111111
 1 -7.28130721682168 -3.46234841874187 -0.57894691589159
 1 -7.60192845774577 -3.69786111661166 -2.43824687818782
 1  3.91641536903690  3.60900026102610  3.53365661986199
 1 -0.49525340414041  4.36594787428743 -2.86728462386239
 1 -3.92302089168917  4.82795937773777 -0.52586373787379
 1 -3.91690043974397  3.93741853545355  1.04143495489549
 1 -2.63715203140314  5.28930922202220  0.65924169406941
 1  8.38569426292629 -1.84059721392139 -1.00662129712971
 1 -1.68213113771377  6.26653711081108 -3.17593244544454
 1 -2.80460281318132  6.00735211101110 -1.71506741424142

