%nproc=4
%Mem=4GB
# td=(NStates=1) B3LYP/SVP 

TD

0 1
 8 -5.39701593159316 -0.00705526592659 -3.27550734043404
 8  3.00089009450945  2.94057131183118  3.33409948834883
 8  3.44426277487749  0.72893829282928  3.03320520562056
 8  1.46605424492449 -6.94136040614061  1.78045655195520
 8  0.88218310631063 -7.08444486808681 -0.56307429032903
 8  1.73499054715472  3.97030015281528  0.16511601900190
 7 -2.40669028012801 -0.95774420462046  0.62853987058706
 7 -4.29454433583358  0.73632129862986 -1.21803015781578
 7  1.79100949254925 -0.72715428842884 -0.43120159775978
 7  2.62147768966897  1.88244398989899 -0.61382812951295
 6 -4.75589198039804  1.14963646064606  0.06592239203920
 6 -4.36546393919392  0.30207037233723  1.32395975367537
 6 -2.86804189978998  0.03057331403140  1.39976198919892
 6 -1.91824092079208  0.65289024622462  2.12024519411941
 6 -0.68804541484148 -0.00556599209921  1.79421009860986
 6 -0.95919010681068 -1.02215527442744  0.85991781118112
 6 -6.24857721382138  1.34355214451445 -0.16362157755776
 6  0.66058466506651  0.16489716621662  2.48368738883888
 6 -6.65940645514551  0.82611185958596 -1.36209193789379
 6 -0.20233648974898 -2.01074981188119  0.15386746824682
 6  1.06923381958196 -1.87791733833383 -0.38771035323532
 6 -5.32360296059606  0.46731494619462 -2.09614692619262
 6  1.83484756995700 -2.92276281468147 -1.04485149444945
 6 -2.06647234813481  1.66082183908391  3.19575396559656
 6 -7.12886037923792  1.92422055125513  0.92132611851185
 6  3.12983931763176 -2.39141909310931 -1.38697994309431
 6  1.15374140144014  1.57064555795580  2.69454309020902
 6  3.03289136443644 -0.94856348194819 -1.07583157135714
 6  1.37340111031103 -4.35311127552755 -1.03737545444544
 6 -7.89040494649465  0.69552118971897 -2.14043243104310
 6  1.68234580018002 -4.99750068466847  0.30620661616162
 6  4.35409101810181 -3.01624009280928 -2.01716094739474
 6  3.94159503010301  0.10393979747975 -1.46024070647065
 6  2.66373699489949  1.63263085128513  3.12538843874387
 6  3.72295667346735  1.49872528402840 -1.22933950125013
 6 -9.09704468786879  0.84006616691669 -1.55317013231323
 6  1.26188125282528 -6.40109675987599  0.36945560456046
 6  4.52100093469347  2.70527728262826 -1.45611269436944
 6  3.79724899329933  3.76856738043804 -1.04267556185619
 6  2.56369794059406  3.32190004110411 -0.43299206190619
 6  5.76245985128513  2.45782062266227 -2.14472642774277
 6  4.23400902070207  5.31071594739474 -1.05896791019102
 6  6.63321337893789  3.38833451825182 -2.58416289318932
 1 -4.21351583768377  2.31069214931493  0.05799884018402
 1 -4.93486814371437 -0.64684616071607  1.04975972017202
 1 -4.81802864276428  0.92810681038104  2.04106101580158
 1 -2.78978801870187 -1.64172156765677  0.10995407360736
 1 -3.30353135043504  0.70380229732973 -1.59612716361636
 1  0.71658609330933 -0.33926361436144  3.60951049914991
 1  1.43608761816182 -0.30273494089409  1.86055118791879
 1 -0.72487114801480 -2.94372183718372 -0.32485748344834
 1 -2.99322946824682  1.69261052515251  3.60962095179518
 1 -1.42838405350535  1.35219458335834  4.25447383528353
 1 -1.78407478857886  2.57590140994099  2.97456487828783
 1 -6.69588303920392  2.48935773927393  1.84453668666867
 1 -7.84026379337934  1.00113992319232  1.48545555625563
 1 -7.86528246544654  2.75297138023802  0.35306378657866
 1  1.11958466686669  2.08390042664266  1.68913698099810
 1  0.56898001050105  2.15889271127113  3.37507333153315
 1  1.63804813121312  0.32126277127713 -0.16087145244524
 1  2.02476026822682 -4.91532536293629 -1.75633024272427
 1  0.21282307980798 -4.44824467196720 -1.33587207060706
 1 -7.77372843464346  0.26085631623162 -3.13676961516152
 1  1.07533972287229 -4.49230040974097  1.05558313491349
 1  2.75725199529953 -4.79092629712971  0.42591040594059
 1  4.07714277657766 -4.02144959715972 -2.23577703880388
 1  5.23347444584458 -2.97569641984198 -0.98722233983398
 1  4.49022045514551 -2.35705793839384 -3.01439051265127
 1  4.63799341884189 -0.20112220672067 -2.05748192389239
 1 -9.40617421792179  1.19051650715071 -0.48715140494049
 1 -9.98177631123112  0.61319273497350 -2.26902300230023
 1  4.05171985848585  2.95371875557556  3.56232099779978
 1  5.89611307950795  1.30805295449545 -2.33844265926593
 1  5.13018371817182  5.31158392259226 -0.53896251615162
 1  4.29704172667267  5.65871263696370 -2.06560910581058
 1  3.42125979557956  5.73472307870787 -0.41781352295230
 1  1.39428673677368 -7.90842199929993  1.71052710761076
 1  7.58535097949795  3.24254979487949 -2.88886615991599
 1  6.66628851635164  4.46000151235124 -2.26509886238624

