%nproc=4
%Mem=3GB
# td=(NStates=1) B3LYP/SVP 

TD

0 1
 8 -3.12413932413241 -1.45484053955396 -2.81981263556356
 8  2.84000445524552  3.24808646714671  3.12656692759276
 8  3.88448275647565  1.31618874717472  4.03504794839484
 8  7.68701730463046 -1.53438955315532 -0.72555331713171
 8  6.51529568596860 -2.99366016091609 -1.78373482158216
 8 -2.66114702120212  1.53998948804880  1.37632769326933
 7 -0.27782352855286 -2.44355066936694  0.86243108390839
 7 -2.60766280428043 -1.06804193919392 -0.51452359695970
 7  1.13735528492849  0.02231314101410 -0.75122005920592
 7 -0.91903104860486  1.45604101200120 -0.10341123902390
 6 -3.33271842154215 -1.32772033443344  0.76933390729073
 6 -2.57980660676068 -2.38013215941594  1.68734404120412
 6 -1.18082372407241 -2.07124493849385  1.84180216881688
 6 -0.54558436073607 -1.22937412911291  2.79630765126513
 6  0.81524263686369 -1.20748574957496  2.40037123172317
 6  0.94300698689869 -1.98465490019002  1.27509231323132
 6 -4.68862380898090 -1.77467311601160  0.25213210051005
 6  1.86500109150915 -0.43416374597460  3.14220637513751
 6 -4.74655101650165 -1.90907961636164 -1.11005134563456
 6  2.02813076947695 -2.00263845604560  0.23780605930593
 6  2.07525354725473 -0.99714162636264 -0.76004990649065
 6 -3.39860453035304 -1.46907887318732 -1.63208049144914
 6  2.99625068826883 -0.67644839313931 -1.81126502540254
 6 -1.15473404560456 -0.51648550555056  3.87251275957596
 6 -5.81373659775978 -2.05444192449245  1.21341234683468
 6  2.49711936883688  0.43073044124412 -2.54152876287629
 6  1.79635906830683  1.06391208320832  2.84221086268627
 6  1.41208457495750  0.91839848844884 -1.84748085408541
 6  4.24591994109411 -1.49565899499950 -2.07464709480948
 6 -5.71673600970097 -2.33676576697670 -2.03044649284928
 6  5.37071262226223 -1.15438718391839 -1.02100551745175
 6  3.06759685508551  1.15494389698970 -3.75329183838384
 6  0.51830425452545  1.99924507140714 -2.03966571167117
 6  2.93428206850685  1.87992757825783  3.37389273447345
 6 -0.61326515811581  2.32687731993199 -1.17602289018902
 6 -6.81820574707471 -3.13933769786979 -1.73741229992999
 6  6.59550912051205 -1.91071932703270 -1.21678236823682
 6 -1.40961961676168  3.51914414761476 -1.12497057175718
 6 -2.33949803920392  3.36112659165917 -0.11830973717372
 6 -2.07666993939394  2.03996492999300  0.46799573157316
 6 -1.19680965936594  4.64347060726073 -2.13031479947995
 6 -3.45215585208521  4.36490697359736  0.33567780748075
 6 -2.04114800600060  5.64421984018402 -2.42955668846885
 1 -3.38237673087309 -0.45818130803080  1.05721992659266
 1 -2.72733435983598 -3.50089521452145  1.39462981208121
 1 -3.08287810761076 -2.13569701410141  2.51741112981298
 1 -0.53289859465946 -2.86808557365737 -0.00481347134713
 1 -1.96837522722272 -0.21972827632763 -0.53999810221022
 1  1.73810177157716 -0.44932638643864  4.27878997809781
 1  2.94875220812081 -0.91522341364136  2.83848877827783
 1  2.85755456935694 -2.56822840574057  0.10730378357836
 1 -1.97786041534153 -0.94540381438144  4.58697575937594
 1 -0.48941870987099 -0.21781598519852  4.60982733923392
 1 -1.76063537733773  0.23725617231723  3.55259402470247
 1 -5.63984477167717 -1.48686681788179  2.18316260926093
 1 -5.87795655635564 -3.21302540714071  1.37724057035704
 1 -6.86372374917492 -1.93732937633763  0.82062842454245
 1  1.79009514891489  1.09281922382238  1.80134774607461
 1  0.74616456795680  1.46712895719572  3.07045501920192
 1  0.10797905550555  0.06156052585259 -0.50206223852385
 1  4.58331405060506 -1.28605166416642 -3.23892949484949
 1  3.91137196699670 -2.59354113331333 -2.12769987798780
 1 -5.57755989438944 -2.22032295689569 -3.05943940774077
 1  4.90687860916092 -1.47053753365336  0.07274049774977
 1  5.67887932923292 -0.01612860896090 -0.91969645214521
 1  4.07465737723772  0.82470896299630 -4.22335056455646
 1  3.04350010161016  2.36526760546055 -3.31856419181918
 1  2.31105689498950  1.30517501540154 -4.41039419141914
 1  0.67473138313831  2.78700019651965 -2.83164405640564
 1 -7.03228231433143 -3.68319050295030 -0.78498751995200
 1 -7.55553381828183 -3.58722005250525 -2.45541859535954
 1  3.65886961446145  3.54073343434343  3.64763801800180
 1 -0.30927480628063  4.51063234273427 -2.94737263266327
 1 -4.40600919051905  4.30859744154415 -0.42968411991199
 1 -3.75541429112911  3.93305809940994  1.35246605800580
 1 -3.20396871307131  5.36261655275528  0.41610738063806
 1  8.53110880438044 -2.03184633883388 -1.09696033103310
 1 -1.67811073567357  6.35494595169517 -3.24764961716172
 1 -3.14209656255626  5.79380075587559 -1.89990589808981

