%nproc=4
%Mem=4GB
# td=(NStates=1) B3LYP/SVP 

TD

0 1
 8 -5.36418264826483 -0.09577413781378 -3.21740152985299
 8  3.00949095459546  2.98497575227523  3.20732681108111
 8  3.41416976557656  0.77340273927393  2.90589247434743
 8  1.48854649414942 -7.00768703880388  1.67119562586259
 8  0.85805069306931 -7.10731715531553 -0.54059204210421
 8  1.69780682878288  3.89069219201920  0.15869537693769
 7 -2.28346795789579 -0.94938336853685  0.68064508110811
 7 -4.29831471287129  0.48909657615762 -1.16621497629763
 7  1.81088147974797 -0.62122369536954 -0.40525900350035
 7  2.49740528242824  1.78951469696970 -0.44164091079108
 6 -4.70806719791979  1.20774227122712 -0.03621782198220
 6 -4.40706809960996  0.28700886618662  1.29407676537654
 6 -2.88921401700170 -0.11808155145515  1.51385339833983
 6 -1.92290138683868  0.60424538173817  2.26414958455846
 6 -0.75207181748175 -0.05044047954795  1.89698037563756
 6 -0.97715190299030 -0.97953101200120  0.81255307470747
 6 -6.21363371947195  1.42415020432043 -0.26096131153115
 6  0.57934654125413  0.14790546704670  2.54294331443144
 6 -6.60206072057206  0.79456870527053 -1.41406713541354
 6 -0.22121837793779 -2.05780451735174  0.20899298079808
 6  1.03663055925593 -1.81512105870587 -0.34178576077608
 6 -5.35558615891589  0.28201641634163 -2.09647695919592
 6  1.87588167336734 -2.88953949234923 -1.04635164446445
 6 -2.01097679857986  1.69803556045605  3.20392478267827
 6 -6.98849634283428  2.15710383958396  0.79290327622762
 6  3.04256058975898 -2.22474242544254 -1.51944318941894
 6  1.15426145344534  1.62343083648365  2.69338297419742
 6  2.85289336463646 -0.82018064366437 -1.15310929912991
 6  1.51046481668167 -4.31644760916092 -1.07859957685769
 6 -7.89285519151915  0.80372200980098 -2.14437282508251
 6  1.77226479207921 -4.96920785538554  0.30680667616762
 6  4.15864147314732 -2.83643211201120 -2.18307753905391
 6  3.91731260186019  0.09221862536254 -1.35756043844384
 6  2.70117073827383  1.71546913511351  3.04336023592359
 6  3.64523890169017  1.41189660116012 -1.09059562686269
 6 -9.10003498689869  0.85230739103910 -1.59535435073507
 6  1.38075314001400 -6.42585923612361  0.43488214721472
 6  4.48968780338034  2.60227698259826 -1.47360444354435
 6  3.83030229862986  3.67708823252325 -1.03136443074307
 6  2.61936350715072  3.27451530263026 -0.33989275197520
 6  5.80593419871987  2.47031187178718 -2.08040999609961
 6  4.17612323212321  5.15176005180518 -1.07828984238424
 6  6.63351340894089  3.48851453625363 -2.49615409230923
 1 -4.24671915801580  2.19718079817982  0.17909094939494
 1 -4.91234589148915 -0.70891236733673  1.45569031323132
 1 -4.63691053095309  0.91847584728473  2.14443135283528
 1 -2.87478651855185 -1.61683907940794  0.01629470767077
 1 -3.30560155745575  0.43839575667567 -1.54301185208521
 1  0.69145358005801 -0.24845453345335  3.59670921902190
 1  1.44306831623162 -0.61218588598860  2.07144227702770
 1 -0.67861652255225 -3.13255072007201  0.24541954425443
 1 -3.16720686598660  2.16362762686269  3.19714970467047
 1 -1.80383159825983  1.34220358425843  4.44947333523352
 1 -1.42209859095910  2.55310913071307  3.07155457725773
 1 -5.93802725362536  2.82684148764876  1.15818805180518
 1 -7.82474224122412  1.62295210441044  1.69686669736974
 1 -7.60814675187519  3.07120320342034  0.32195067526753
 1  1.06935964436444  2.14578661526153  1.67995606290629
 1  0.64129724222422  2.12741956395640  3.42902872707271
 1  1.66002032843284  0.40170081508151 -0.33055842114211
 1  1.91689948214821 -4.86327015741574 -1.96678128782878
 1  0.34338613611361 -4.31638148564857 -1.11956043944394
 1 -7.77333839563956  0.33543377397740 -3.29728566676668
 1  1.00829301820182 -4.33738491819182  0.91348892549255
 1  2.91073734383438 -4.78192539703970  0.68657647254725
 1  3.70863592589259 -3.80171762396240 -2.71413487458746
 1  5.02870396879688 -3.04854370457046 -1.54825844344434
 1  4.50278171127113 -2.20759299189919 -3.04240331393139
 1  4.77884750425043 -0.22048414291429 -2.10534671037104
 1 -9.36306990749075  1.12883033853385 -0.55137782758276
 1 -9.97086522012201  1.05205662136214 -2.12927902790279
 1  4.13943863036304  2.88949233293329  3.20922568826883
 1  6.13935740394039  1.36729887908791 -2.24597341234123
 1  5.00624132393239  5.30868363256326 -0.38250687058706
 1  4.31661368386839  5.41097786348635 -2.13234577947795
 1  3.31085875547555  5.63124273067307 -0.36656839843984
 1  1.19476678477848 -7.91939309640964  1.83022907780778
 1  7.61154359875988  3.27016255615562 -2.91896917021702
 1  6.65625751325132  4.50542605480548 -2.31938429092909

