%nproc=4
%Mem=3GB
# td=(NStates=1) B3LYP/SVP 

TD

0 1
 8 -3.25300221042104 -1.26678173367337 -2.83086374067407
 8  2.74536499129913  3.09259091759176  3.35286955785579
 8  3.86743105130513  1.30360748904890  4.33638808240824
 8  7.70034863776378 -1.22522863706371 -1.06573733553355
 8  6.49523367976798 -3.17408820372037 -1.77138358645865
 8 -2.57205811231123  1.79693518261826  1.45169523002300
 7 -0.36506225242524 -2.41470778507851  0.89766460726073
 7 -2.64795683368337 -1.19731486648665 -0.56057820242024
 7  1.13910545994599  0.09108001770177 -0.68802373957396
 7 -0.98107725322532  1.51379678757876 -0.18453935183518
 6 -3.33871902160216 -1.25179274167417  0.62475944984498
 6 -2.67120574667467 -2.29248339453945  1.66058136493649
 6 -1.26388202990299 -2.05846366036604  1.83978196679668
 6 -0.55573537583758 -1.27341853355336  2.83560158065807
 6  0.80753186578658 -1.18115311631163  2.50727192179218
 6  0.86902958915892 -1.92151858655866  1.25232003600360
 6 -4.69488443504351 -1.88102375107511  0.25531241854185
 6  1.87796238763876 -0.54803513311331  3.20018217271727
 6 -4.81181754315432 -2.04220292869287 -1.16839718021802
 6  2.06015397179718 -1.93896208840884  0.23298557725773
 6  2.14577059895990 -0.89129104130413 -0.59291319281928
 6 -3.57803247314731 -1.55557752305231 -1.66174345774577
 6  3.02818388158816 -0.70568131643164 -1.81911581048105
 6 -1.22548112031203 -0.57592144914491  3.97167267556756
 6 -5.72935815991599 -2.27994447474747  1.27440844644464
 6  2.52889254615462  0.39942731093109 -2.51384599459946
 6  1.89700913331333  1.03625931793179  2.93837047864786
 6  1.40262362886289  0.88611526012601 -1.80506661266127
 6  4.11041639073907 -1.51637106620662 -1.99045867596760
 6 -5.90303463956396 -2.54348643904390 -1.95162861106111
 6  5.41580713171317 -0.97394914011401 -1.20485390229023
 6  3.21196129152915  1.05792419501950 -3.69434594379438
 6  0.55151757585759  2.03596874377438 -2.04749649474948
 6  2.93892253255326  1.78696828232823  3.65163050825083
 6 -0.54165799739974  2.32252688488849 -1.24364965286529
 6 -6.82930685718572 -3.39772353645365 -1.73084164286429
 6  6.63205277487749 -1.96253450855085 -1.52104279427943
 6 -1.34391304610461  3.62504473767377 -1.28793686838684
 6 -2.28681277067707  3.52428290729073 -0.31827973417342
 6 -2.04177645004500  2.12153308680868  0.42292122412241
 6 -1.12807278567857  4.58070433063306 -2.22997476547655
 6 -3.28660929742974  4.40718120102010  0.23270751045105
 6 -1.99979387058706  5.66318173637364 -2.57754148694869
 1 -3.56775526872687 -0.34346983688369  1.14100830543054
 1 -2.84523615001500 -3.46052117711771  1.26468681778178
 1 -3.02164198399840 -2.00592403680368  2.68571796049605
 1 -0.50185549034903 -2.90275904100410  0.06800381038104
 1 -1.95516390609061 -0.53402970647065 -0.67850195259526
 1  1.82361032243224 -0.62790424422442  4.26176827592759
 1  2.82911024392439 -0.98570046134613  2.84274920432043
 1  2.85968478237824 -2.77593917681768  0.10928398159816
 1 -2.19917254655466 -1.18872814681468  4.41657871967197
 1 -0.49041880988099 -0.31326553015301  4.69351570807081
 1 -1.77187650145014  0.26689913661366  3.43587235253525
 1 -5.69491027822782 -1.48956708790879  2.08110240324032
 1 -5.42387114781478 -3.38813291789179  1.76525937223722
 1 -6.83265064186419 -2.23478912231223  1.02426878857886
 1  1.89349548894890  1.33241318321832  1.74725233653365
 1  0.93990394189419  1.54979722402240  3.50464843854385
 1  0.42275053265326  0.40292466226623 -0.08709074137414
 1  4.51144686388639 -1.44953801280128 -3.01864746664666
 1  3.91168199799980 -2.49119089828983 -1.90362747074707
 1 -5.61323346174617 -2.05639656425643 -2.95058852265227
 1  5.34676259755976 -0.97060754065406 -0.03494027032703
 1  5.42669411071107  0.18078108200820 -1.41523600610061
 1  3.99725963746375  0.21973846594659 -4.45587381688169
 1  3.54708045964596  2.05720679937994 -3.32618495389539
 1  2.47206299559956  1.26480097799780 -4.53678683068307
 1  0.80071398139814  2.67929942644264 -2.81624251625163
 1 -7.03169225532553 -3.87770995489549 -0.86807582878288
 1 -7.38097636253625 -3.75328665916592 -2.59470252375238
 1  3.57109083658366  3.63109247024702  3.58262151635164
 1 -0.23373725252525  4.71178245774577 -2.86359425482548
 1 -4.19544813441344  4.76632321412141 -0.51369252075208
 1 -3.75928467816782  4.03961875547555  1.16385719711971
 1 -2.77313562976298  5.49884017511751  0.51749751965197
 1  8.23180887438744 -2.13845699989999 -0.97033766876688
 1 -1.63018594319432  6.18578903600360 -3.36348120032003
 1 -3.02084443734373  5.96608798459846 -1.94896080358036

