%nproc=4
%Mem=3GB
# td=(NStates=1) B3LYP/SVP 

TD

0 1
 8 -3.11900881108111 -1.37274232973297 -2.84739539383938
 8  3.16345680048005  3.01389304780478  3.12798706960696
 8  4.07954226242624  1.22310943924392  4.15750019361936
 8  7.79207781068107 -1.54576069026903 -0.69436019781978
 8  6.69479363576358 -2.98430922582258 -2.01385783388339
 8 -2.63089399589959  1.75445093419342  1.53017307780778
 7 -0.33065881208121 -2.39131544584458  0.91858669946995
 7 -2.68989102710271 -1.14776991199120 -0.55414755935594
 7  1.07517906730673  0.07222813251325 -0.75114005120512
 7 -1.09562870837084  1.40739614751475 -0.23475437333733
 6 -3.35972112181218 -1.29448701110111  0.69696667056706
 6 -2.74975360146015 -2.33450759695970  1.72967827462746
 6 -1.28594423612361 -1.96664447844785  1.80642863146315
 6 -0.64617441974197 -1.11805299699970  2.79553757425743
 6  0.72687379998000 -1.12533753475348  2.47456865146515
 6  0.98456114231423 -1.95483191789179  1.25961076507651
 6 -4.64346929352935 -1.81884753345335  0.28728561586159
 6  1.87039163056306 -0.44466479607961  3.14666682118212
 6 -4.73601996339634 -1.94620332873287 -1.10661100160016
 6  2.03910186658666 -1.90518871107111  0.34210648934894
 6  1.97349337123712 -0.92732464466447 -0.61100500200020
 6 -3.38185285518552 -1.52790475577558 -1.62934021742174
 6  3.00446150935094 -0.68775952425243 -1.63974787368737
 6 -1.37265583778378 -0.39191304830483  3.87635314361436
 6 -5.83416864096410 -2.03495997629763  1.16181718731873
 6  2.56244590149015  0.46673404160416 -2.31466607660766
 6  1.97371680408041  1.04385007700770  2.88054469606961
 6  1.31868523502350  0.96583323192319 -1.85242134813481
 6  4.29156450555055 -1.45286471557156 -1.96149577967797
 6 -5.62977731383138 -2.48348043844384 -2.13192664086409
 6  5.43131868286829 -1.08729047424742 -1.09525294219422
 6  3.15382547794779  1.05111351395140 -3.54922143134313
 6  0.47972039613961  1.97072221912191 -2.05972771787179
 6  3.25074371467147  1.66570615611561  3.41206655185519
 6 -0.64306813841384  2.26696132833283 -1.26328161606161
 6 -6.80911483798380 -3.18700246434643 -1.89355791449145
 6  6.58902847244724 -1.99013726882688 -1.36469715971597
 6 -1.52949160396040  3.45711794499450 -1.26564463916392
 6 -2.35333942334233  3.43117359635964 -0.16139404560456
 6 -2.16250852325233  2.11011194469447  0.44793372537254
 6 -1.45879585798580  4.63238949914992 -2.31651341934193
 6 -3.44994563106311  4.23677416031603  0.32821706140614
 6 -2.33273716491649  5.67744316251625 -2.37731146394639
 1 -3.41777027022702 -0.25957144704470  1.14727893249325
 1 -2.64285591199120 -3.35387051205120  1.29579992909291
 1 -3.06023584338434 -2.31059450385039  2.74153354205421
 1 -0.51119642444244 -3.00231899699970  0.15229223922392
 1 -1.85136352605261 -0.27712401590159 -0.63566766916692
 1  1.88659662106211 -0.49802125592559  4.30740283938394
 1  2.81376870977098 -1.08968085938594  2.71737666706671
 1  2.84245305920592 -2.79050063296330 -0.07051399819982
 1 -2.12143477277728 -0.89359863386339  4.27971503330333
 1 -0.61188095609561  0.05374117051705  4.68253460996100
 1 -1.92932224602460  0.48976142284228  3.12804156945695
 1 -5.72943373057306 -1.52579071027103  2.35504979797980
 1 -6.08434719541954 -3.17237134173417  1.55027787408741
 1 -7.09008638543854 -1.72170781418142  0.69472583428343
 1  1.97533367276728  1.33988393029303  1.77612522382238
 1  1.21646159765977  1.80054229852985  3.30180815451545
 1  0.21205946354635  0.12197656745674 -0.33636566886689
 1  4.60741646084609 -1.21874493349335 -2.87157275917592
 1  4.16338716851685 -2.59854163336334 -2.03042015001500
 1 -5.61949408780878 -2.11889281388139 -3.07947141094109
 1  5.35696361766177 -1.15475595549555  0.05381860556056
 1  5.87892933423342 -0.00728772487249 -1.28504298679868
 1  4.15969588108811  0.38694518661866 -3.94446267576758
 1  3.52658841044104  2.03097417611761 -3.48726106150615
 1  2.36987277657766  0.99085358325833 -4.35514866686669
 1  0.77046095609561  2.69943143964396 -2.90668156015602
 1 -7.14909399549955 -3.33684586848685 -0.83044206540654
 1 -7.31806007090709 -3.66038736923692 -2.80692374587459
 1  4.18081180868087  3.43015237623762  3.28386164036404
 1 -0.77870174897490  4.34978625812581 -3.17746564196420
 1 -4.40898948854885  4.26941352315232 -0.40283143464346
 1 -3.68335708540854  3.62378717231723  1.29816062746275
 1 -3.02401071727173  5.23499379047905  0.63920969086909
 1  8.41944763826383 -2.20515366956696 -1.15563619861986
 1 -2.23968689328933  6.30150060716072 -3.30117496969697
 1 -3.24946729962996  5.93309468526853 -1.75416132363236

