%nproc=4
%Mem=3GB
# td=(NStates=1) B3LYP/SVP 

TD

0 1
 8 -3.36758366856686 -1.31689674517452 -2.79367002130213
 8  2.68924937973797  3.13146480498050  3.11203547444744
 8  3.51594590279028  1.48260538883888  4.44545898949895
 8  7.83294189708971 -1.63259937413741 -0.77091785358536
 8  6.81493564996500 -2.84491528642864 -2.46348279637964
 8 -2.57675858235824  1.68689417851785  1.49042910341034
 7 -0.31259700590059 -2.40883719801980  0.91556639743974
 7 -2.71689372737274 -1.23405854085409 -0.57619976457646
 7  1.18464001340134  0.09660056975698 -0.59835477267727
 7 -0.95646479197920  1.50334574247425 -0.20496139403940
 6 -3.43209835953595 -1.29245680808081  0.60815778967897
 6 -2.67570619671967 -2.31719586578658  1.57543285008501
 6 -1.26268190989099 -2.07359517351735  1.80966895549555
 6 -0.68316811911191 -1.23076426812681  2.75362338283828
 6  0.72765387798780 -1.17287228822882  2.45199639423942
 6  0.95082776897690 -1.87373380808081  1.23963876787679
 6 -4.79775472207221 -1.79875552425243  0.31350823812381
 6  1.82163675507551 -0.48582891249125  3.08552070657066
 6 -4.97391375277528 -1.91241995039504 -1.01355169566957
 6  2.11960991739174 -1.84339253145315  0.37224950365037
 6  2.20051607350735 -0.91618353055306 -0.61748565006501
 6 -3.67424209410941 -1.52298426372637 -1.59671695509551
 6  3.11117218041804 -0.68498924722472 -1.79887378627863
 6 -1.32443101530153 -0.38333219021902  3.87688319661966
 6 -5.81034625872587 -2.20768724902490  1.30983198879888
 6  2.63044270117012  0.35890325852585 -2.41371598159816
 6  1.89096852925293  1.01448714071407  2.70343698529853
 6  1.50010337683768  0.90828747734773 -1.81247735373537
 6  4.34514986408641 -1.52400182928293 -2.01774140424042
 6 -5.95956029212921 -2.51374346474647 -1.91714516271627
 6  5.53345889688969 -1.26503824902490 -1.12028544544454
 6  3.33139323472347  0.99737814041404 -3.59824633383338
 6  0.69010143424342  1.92125727262726 -1.98822056715672
 6  2.79160780108011  1.87360694619462  3.57404274947495
 6 -0.49825365696570  2.32261689388939 -1.22260754865487
 6 -6.91465539203920 -3.42752651675168 -1.70417897659766
 6  6.74162373197320 -1.96039429452945 -1.50759144914491
 6 -1.37620627542754  3.50390262346235 -1.26800487518752
 6 -2.22281637103710  3.43703418241824 -0.23835174137414
 6 -1.90160243264326  2.18187912141214  0.49703863586359
 6 -1.26726670507051  4.61669792999300 -2.12381414941494
 6 -3.28406904340434  4.37004748764876  0.31792603230323
 6 -2.08746263746375  5.64482990119012 -2.36889062186219
 1 -3.69196768996900 -0.30819630953095  0.98184238883888
 1 -2.59081070747075 -3.29895502050205  1.04234458355836
 1 -3.12793261306131 -2.22875632003200  2.61892128082808
 1 -0.53330863566357 -3.08192695779578  0.31243825382538
 1 -2.16594498419842 -0.28937524102410 -0.88737283968397
 1  1.73772173357336 -0.55431688548855  4.26090818991899
 1  2.88122545544554 -0.77282917421742  2.85651058045805
 1  2.82061087498750 -2.96841842474247  0.47428048124812
 1 -2.27684031333133 -0.75607488148815  4.21892895469547
 1 -0.76257602560256 -0.25293949754976  4.72905926242624
 1 -1.40442975677568  0.59981242794279  3.14488325362536
 1 -5.76325711291129 -1.63574170537054  2.21654594759476
 1 -5.81546030673067 -3.28781288588859  1.55650849714972
 1 -6.84935231203120 -1.95460110351035  0.89524588628863
 1  2.30417655705571  1.30715065696570  1.60033764506451
 1  0.96305625712571  1.49354159845985  2.94283225692569
 1  0.43092134973497  0.32431680148015 -0.04069610191019
 1  4.33026874607461 -1.34349740874087 -3.05375097699770
 1  4.12866369616962 -2.52336411561156 -1.95549265726573
 1 -5.64855699409941 -2.23751467606761 -2.89474293809381
 1  5.22265018631863 -1.47096757665767 -0.26949372567257
 1  5.79267070837084 -0.17037403350335 -1.26909139163916
 1  3.99535944744474  0.14454094619462 -3.96613484298430
 1  3.87270302190219  2.03171425012501 -3.47465980138014
 1  2.75197098639864  1.48115261316132 -4.39200235223522
 1  0.81231514151415  2.68479997649765 -2.78908980098010
 1 -7.18389747584759 -3.84270645454545 -0.70742976417642
 1 -7.54458272317232 -3.89352068256826 -2.53989704320432
 1  3.37579130663066  3.72632199319932  3.57532078627863
 1 -0.32757663646365  4.63737501700170 -2.85081297669767
 1 -4.04954354395440  4.59132571437144 -0.36083723522352
 1 -3.62237098679868  4.06516130973097  1.30797160856086
 1 -2.78642695889589  5.24151444254425  0.54856062596260
 1  8.45757145064507 -2.07930108430843 -1.31791242624262
 1 -1.91426435103510  6.52804326142614 -3.09030388258826
 1 -3.09539189208921  5.75457683348335 -1.83650955845585

