%nproc=4
%Mem=4GB
# td=(NStates=1) B3LYP/SVP 

TD

0 1
 8 -5.41475770577058 -0.01782634303430 -3.23799358905891
 8  3.05721572707271  2.94150140484048  3.24573065146515
 8  3.27076542514251  0.77323272227223  3.04474635973597
 8  1.40244788428843 -7.23662993309331  1.54782328862886
 8  0.72392728072807 -7.04123054665467 -0.60533851675168
 8  1.78932598069807  3.96950007280728  0.06592610001000
 7 -2.32109172027203 -0.90301873207321  0.62490950755075
 7 -4.39615449684969  0.50558822532253 -1.26354470927093
 7  1.68626901850185 -0.73431500450045 -0.55585406300630
 7  2.48957449934993  1.83922966846685 -0.63927067376738
 6 -4.79412580378038  1.12677417441744  0.08780458025803
 6 -4.36498389118912  0.35334549984999  1.29521687938794
 6 -2.87905300090009  0.13171342804280  1.33006501950195
 6 -1.85547464416442  0.67008196539654  2.07551072067207
 6 -0.65725233553355 -0.05284071957196  1.82316299389939
 6 -0.96798098589859 -0.95565862476248  0.77576939633963
 6 -6.31386374247425  1.40261805110511 -0.12392760816082
 6  0.61316992359236  0.27294797129713  2.52920194029403
 6 -6.64599511401140  1.03005225362536 -1.38580430913091
 6 -0.20200645674567 -2.01008974587459  0.19272135363536
 6  1.05455235143514 -1.90021956855686 -0.35647722992299
 6 -5.50005060536054  0.40679889458946 -2.10971828332833
 6  2.01792587778778 -2.91635217361736 -0.84332134143414
 6 -2.02415811671167  1.64709046594660  3.07402179237924
 6 -7.16976446964696  1.93475160436044  0.94561854775478
 6  3.13937027072707 -2.27127707890789 -1.35159640474047
 6  1.14880090739074  1.74716320972097  2.41477511341134
 6  3.01633970927093 -0.86745537113711 -1.11637562576258
 6  1.53689745994599 -4.35973193759376 -0.94700641754175
 6 -7.96336224222422  0.81056269386939 -2.00894928272827
 6  1.91514908050805 -5.09677061166117  0.44047004250425
 6  4.36699230823082 -2.91173964276428 -1.95690492179218
 6  3.91098196879688  0.12566196969697 -1.44566924932493
 6  2.52089271047105  1.73962155035504  2.95283118301830
 6  3.53686806460646  1.48722413391339 -1.17202376967697
 6 -9.11597658105811  0.68472063236324 -1.38480329562956
 6  1.27200226492649 -6.62938958915892  0.35461412041204
 6  4.61373020762076  2.64219097399740 -1.42967005010501
 6  3.96566583498350  3.78351887558756 -0.95120641494149
 6  2.63291486228623  3.34128197929793 -0.52451121382138
 6  5.90207381268127  2.47135197579758 -1.97045900100010
 6  4.37531315111511  5.23306818261826 -1.02295430883088
 6  6.70513057065707  3.49104478927893 -2.37334181108111
 1 -4.32539702580258  2.20436151625163  0.13807684798480
 1 -4.69510416731673 -0.62566404250425  1.31426617081708
 1 -4.74678151805180  0.78334233393339  2.19090600030003
 1 -3.02382142204221 -1.48141553705371  0.14758783698370
 1 -3.48238923622362  0.51730364746475 -1.33299084998500
 1  0.59145358005801 -0.06028571657166  3.64177372547255
 1  1.37666167556756 -0.38774344174417  1.89422455525553
 1 -0.52724138503850 -3.07860532553255  0.08353335563556
 1 -3.19877002230223  1.76081734583458  3.45106509620962
 1 -1.37934915001500  1.63741310521052  3.91307969586959
 1 -1.92960934203420  2.62441626142614  2.76166358815882
 1 -6.47092054295430  2.60048885238524  1.61683391639164
 1 -7.63084285128513  1.15626543574357  1.58718572927293
 1 -7.89953589078908  2.37255333843384  0.37357583778378
 1  1.22863557195720  2.23737577417742  1.40427849514951
 1  0.49859297179718  2.56350317231723  3.03049887408741
 1  1.31038536493649  0.13665431043104 -0.07987335263526
 1  1.79157694989499 -4.85677950835084 -1.74206881658166
 1  0.26276807430743 -4.46101594909491 -0.73358184158416
 1 -8.12844390619062  0.77915814641464 -3.13724966316632
 1  1.50722291119112 -4.71539271897190  1.26788436503650
 1  2.97242351245125 -5.12343954845485  0.78574638953895
 1  4.22935799809981 -3.99641709390939 -1.99479294039404
 1  5.37180827922792 -2.87530638083808 -1.36153977157716
 1  4.55460689378938 -2.57435966856686 -3.01210028362836
 1  4.62264188368837 -0.26897899239924 -2.11848802450245
 1 -9.18173177367737  0.64988244374437 -0.41458414821482
 1 -9.93243137673767  0.07475889158916 -1.92629872987299
 1  3.87870255675568  2.85553893759376  3.59587435313531
 1  6.13740720892089  1.47394954415442 -2.46368518351835
 1  5.28771947174717  5.52800556475648 -0.30504912481248
 1  4.57765978847885  5.42274904060406 -2.01457400230023
 1  3.61628929852985  5.74546415281528 -0.47466920852085
 1  1.35028233633363 -8.18796995409541  1.27673372827283
 1  7.76391883628363  3.29525506540654 -2.81131840514051
 1  6.42872475997600  4.47250276247625 -2.26631898439844

