%nproc=4
%Mem=4GB
# td=(NStates=1) B3LYP/SVP 

TD

0 1
 8 -5.25740197019702  0.15595103470347 -3.23676346604660
 8  3.01705171067107  2.87558481318132  2.91465754415442
 8  3.40938928752875  0.67656305530553  2.76733861896190
 8  1.68567620712071 -7.14076034613461  1.46853535983598
 8  0.42774766276628 -6.88413483708371 -0.48797678057806
 8  1.63802085018502  3.90596371917192  0.14557406480648
 7 -2.39479909100910 -1.05037346754675  0.69045606220622
 7 -4.33187806920692  0.54958262476248 -1.18893724852485
 7  1.83122351395140 -0.60937251025103 -0.47845632323232
 7  2.58400394229423  1.93297904340434 -0.47762450915092
 6 -4.72012840404040  1.18410990799080  0.07224302410241
 6 -4.44512190499050  0.29034920022002  1.28364572227223
 6 -2.86988208380838  0.02858311501150  1.42967498049805
 6 -1.91143023972397  0.55931088828883  2.16318948854885
 6 -0.74055066536654 -0.02519795529553  1.76567724532453
 6 -1.07371155895590 -1.07254031293129  0.79107092649265
 6 -6.22524488058806  1.31437922722272 -0.05724093949395
 6  0.56413502010201  0.15432610911091  2.48475749584959
 6 -6.60640115461546  0.97642689108911 -1.33265899459946
 6 -0.13763001910191 -1.96121485838584  0.19322140364036
 6  1.12492938913891 -1.87986753335334 -0.42353393559356
 6 -5.41462206250625  0.45120333503350 -2.07515482698270
 6  1.95566965216522 -2.92888342674267 -0.87955496479648
 6 -2.16273197409741  1.71265702260226  3.11395578577858
 6 -7.14620211341134  1.81561969116912  1.04805879177918
 6  3.17075340904090 -2.32492244344434 -1.20344158925893
 6  1.16267229452945  1.51484997839784  2.61651528742874
 6  3.00017809310931 -0.83155178077808 -0.95872986118612
 6  1.55094886508651 -4.35254121852185 -0.96141785868587
 6 -7.82525843184319  0.73936557415742 -2.07194558235824
 6  1.70033759935994 -5.08867980258026  0.40016601210121
 6  4.46762237123712 -2.96126459525953 -1.72446167746775
 6  4.00694156475648  0.10192959645965 -1.23012769516952
 6  2.59595021622162  1.54571215941594  2.76259215911591
 6  3.76623100090009  1.50226563806381 -1.00264683198320
 6 -9.02224720812081  0.91507366766677 -1.59759457475748
 6  1.16033109780978 -6.38808545874587  0.33883254225423
 6  4.56979581418142  2.60769752465246 -1.31063814691469
 6  3.79777904630463  3.75807633133313 -1.07715901020102
 6  2.53650522132213  3.32357020812081 -0.46009477217722
 6  5.87604120942094  2.55546038663866 -2.04596655175518
 6  4.17089270907091  5.24297917371737 -1.27114912831283
 6  6.58404846244624  3.53371905670567 -2.58537301420142
 1 -4.34484897099710  2.33009408950895  0.20199323962396
 1 -4.97862251915191 -0.64326580268027  1.08389313351335
 1 -4.76497333723372  0.75844984468447  2.17023393309331
 1 -2.96008504840484 -1.59122651815181 -0.06962388418842
 1 -3.35985698299830  0.54481639873987 -1.47303485438544
 1  0.57744217891789 -0.38982867086709  3.30384993309331
 1  1.35972998239824 -0.38584325172517  1.98334346714671
 1 -0.62945160606061 -3.04146161116112 -0.07798279597960
 1 -3.27121726702670  1.75980724482448  3.45517550725073
 1 -1.50904211931193  1.57823718761876  4.06512490039004
 1 -1.93627000810081  2.77031085088509  2.73716113791379
 1 -6.63703715461546  2.63941274477448  1.64160639363936
 1 -7.40201996899690  1.02532234143414  1.71441845254525
 1 -8.05685162236224  2.32644872797280  0.72360084028403
 1  0.87533024142414  2.34015605220522  1.64036210351035
 1  0.86960007250725  2.12992981498150  3.35027085128513
 1  1.35548987538754  0.35946659165917 -0.43693905920592
 1  2.34287207940794 -4.79421325172517 -1.63062767246725
 1  0.46303810131013 -4.33848369586959 -1.15279376277628
 1 -7.79768082988299  0.20609083968397 -3.07679361756176
 1  0.96886907580758 -4.57208838853885  1.14809238583858
 1  2.83009928002800 -5.20445765026503  0.67956577147715
 1  4.25324038633863 -3.99533698589859 -1.88193165426543
 1  5.39715081348135 -2.80905975617562 -1.14091770937094
 1  4.60726215931593 -2.51528376097610 -2.72091116471647
 1  5.02367198669867 -0.24116621112111 -1.53812998869887
 1 -9.36360996149615  1.12828028352835 -0.61419410921092
 1 -9.78161629522952  0.92013342904290 -2.37255335533553
 1  3.86007069356936  2.71609499319932  3.01452621832183
 1  6.26273974217422  1.56162831203120 -1.85897471247125
 1  5.06360706050605  5.40991375557556 -0.68657727762776
 1  4.51573359585959  5.50876764246425 -2.20683322822282
 1  3.44554222382238  6.11436104250425 -0.93370511211121
 1  1.34269157725773 -7.95393655075507  1.44756081098110
 1  7.68746119051905  3.24075961586159 -3.04958223152315
 1  6.11602348984898  4.44183969616962 -2.43876622912291

