%nproc=4
%Mem=4GB
# td=(NStates=1) B3LYP/SVP 

TD

0 1
 8 -5.25842207220722  0.10572601220122 -3.20512030173017
 8  3.01277128262826  2.77095435013501  3.16584266266627
 8  3.30833918251825  0.52322772177218  3.33468535363536
 8  1.54865250475048 -7.12932920302030  1.49972847914791
 8  0.71984687268727 -7.08040446404640 -0.53491147404740
 8  1.68801584968497  4.06616973977398 -0.00510100270027
 7 -2.39557916901690 -0.96469489968997  0.51247826442644
 7 -4.30297517891789  0.71109877637764 -1.25294364916492
 7  1.79084947654765 -0.71373294629463 -0.39055753335334
 7  2.53116865876588  1.94492023752375 -0.59318606530653
 6 -4.76339273047305  1.30707220422042  0.00565636543654
 6 -4.41636902970297  0.30211037633763  1.32147950565057
 6 -2.98334342994299 -0.02346208950895  1.35279729272927
 6 -1.98528762546255  0.60850580778078  2.11686485608561
 6 -0.77738434873487 -0.02122755825583  1.79139981758176
 6 -1.05999018681868 -0.89382244114411  0.77578939833983
 6 -6.22253460956096  1.35048283758376 -0.13212842824282
 6  0.55286389298930  0.09388006450645  2.55436445654565
 6 -6.62950346484648  0.94009325772577 -1.32984871357136
 6 -0.21255751185119 -1.95793453035304  0.07827990949095
 6  1.11002789898990 -1.88128767536754 -0.36356793899390
 6 -5.40281088138814  0.50987920262026 -2.09894720622062
 6  1.94706879207921 -2.90965150355035 -0.97870487978798
 6 -2.10854655555556  1.61103686058606  3.26270066026603
 6 -7.03469096229623  1.96914504370437  0.84444843074307
 6  3.15335166886689 -2.34969492069207 -1.34255550065007
 6  1.17087311461146  1.52203069646965  2.60571420732073
 6  3.06331440674067 -0.90006863246325 -1.05365935413541
 6  1.64126789698970 -4.38713467786779 -0.88973068996900
 6 -7.90722662866287  0.82218385598560 -1.99159754755476
 6  1.97279484508451 -5.07588852345234  0.38919491499150
 6  4.41857746674668 -3.02162063086309 -1.82697192849285
 6  4.00073094369437  0.19766917041704 -1.23382806520652
 6  2.58563918511851  1.52640022822282  3.04790068996900
 6  3.65460983878388  1.54730014151415 -1.03262983028303
 6 -9.13022800620062  0.88761092139214 -1.39776459175918
 6  1.35584064876488 -6.56052270247025  0.41801046004600
 6  4.48729756435644  2.67210396529653 -1.46545362846285
 6  3.77745701410141  3.82443296699670 -1.16429772407241
 6  2.48382995379538  3.35807365846585 -0.56369513221322
 6  5.78942254755476  2.54098893949395 -2.14862681778178
 6  4.17063268306831  5.26766164196420 -1.44202621602160
 6  6.65131518911891  3.45796148094809 -2.57680215711571
 1 -4.29202368846885  2.33660474057406  0.36184922522252
 1 -5.08146280318032 -0.46270774687469  1.13869861406141
 1 -4.76584342424242  0.69688368806881  2.14580148984899
 1 -2.78689772967297 -1.51638903440344 -0.18880580238024
 1 -3.28306930423042  0.79171108820882 -1.46666421732173
 1  0.38918335303530 -0.11553124112411  3.68545809390939
 1  1.35588959835984 -0.62674734213421  2.12016714951495
 1 -0.97006566746675 -2.88194565956596 -0.08140313801380
 1 -3.30754089938994  1.71596286038604  3.55950594029403
 1 -1.56206742184218  1.16647601150115  4.13385177307731
 1 -1.59050543164316  2.52285610541054  2.76852427422742
 1 -6.55540899179918  2.73533233673367  1.62345457845785
 1 -7.71168093509351  1.40914072327233  1.46725373607361
 1 -7.80435637283728  2.55495157825783  0.29996847704771
 1  1.11920462886289  1.97923996059606  1.66364443174317
 1  0.55284839733973  2.33164998699870  3.26395221942194
 1  1.15792011841184  0.19407005200520 -0.40768613391339
 1  2.28329612181218 -4.93978780918092 -1.64544915461546
 1  0.51226302380238 -4.68674852235223 -1.01309979337934
 1 -8.20989205100510  0.36941717231723 -3.02709864806481
 1  1.53462565146515 -4.68202938263826  1.42719029562956
 1  3.13478974907491 -5.23059026352635  0.58594640954095
 1  4.25950101240124 -4.05807325952595 -2.27888134923492
 1  5.21604270267027 -2.90060891109111 -0.92167578517852
 1  4.94180561366137 -2.35586781938194 -2.63929300290029
 1  5.02580219971997 -0.28307040154015 -1.54840101580158
 1 -9.24006760726073  1.08131558705871 -0.40856354615462
 1 -10.06132426602660  0.61499291499150 -1.95394149414942
 1  3.91666635313531  2.77241062476248  3.36604136983698
 1  6.12868633683368  1.44455660486049 -2.55368418341834
 1  5.16198689848985  5.40998376257626 -1.07705632553255
 1  3.98290031253125  5.68143490919092 -2.54029657455746
 1  3.54212188178818  5.87243685008501 -0.81022276387639
 1  1.08019532763276 -7.97748890599060  1.57717377227723
 1  7.53385582998300  3.03840938083808 -2.83449072237224
 1  6.63935582308231  4.76282179437944 -2.57780013251325

