%nproc=4
%Mem=3GB
# td=(NStates=1) B3LYP/SVP 

TD

0 1
 8 -3.24992190239024 -1.36523157865787 -2.94828548284828
 8  2.98336879167917  3.18223988248825  3.28612288318832
 8  3.91581588978898  1.34769189748975  4.25057950155016
 8  7.70265886878688 -1.57764387858786 -0.66491725352535
 8  6.71631578797880 -3.00332112701270 -1.96463291139114
 8 -2.68082898939894  1.69292478157816  1.34447450795080
 7 -0.29979572577258 -2.52584889918992  1.03749859065907
 7 -2.69211124912491 -1.15458059305931 -0.58065020962096
 7  1.04404595399540  0.04477538723872 -0.78797373457346
 7 -1.10148929442944  1.43290869876988 -0.27675857375738
 6 -3.40505565526553 -1.36392395479548  0.60163713761376
 6 -2.57015564166417 -2.35644979117912  1.68922422922292
 6 -1.18066370807081 -2.08955676967697  1.86386437503750
 6 -0.53652345464546 -1.21038222992299  2.79147716821682
 6  0.71961307390739 -1.09122412341234  2.45561675627563
 6  0.94049673587359 -1.84406084078408  1.29531433543354
 6 -4.69151409800980 -1.93569921862186  0.18841572887289
 6  1.89242383378338 -0.42469279887989  3.21928408290829
 6 -4.81792815421542 -2.04372308070807 -1.13811415191519
 6  2.05340329672967 -1.75238343054305  0.29672195089509
 6  1.98495451735174 -0.93696560876088 -0.80140404190419
 6 -3.43659832973297 -1.53108507380738 -1.71805908930893
 6  2.94176523972397 -0.67739848814881 -1.84016791569157
 6 -1.22066063826383 -0.43139699669967  3.91477698599860
 6 -5.79018424252425 -2.27938441874187  1.27675868146815
 6  2.44690434733473  0.38823619181918 -2.55364997499750
 6  1.93619305170517  1.07236292829283  2.79280592219222
 6  1.32251561806181  0.90842749134914 -1.97026313231323
 6  4.16249159825983 -1.46554598369837 -1.93225285538554
 6 -5.76385072117212 -2.58158024842484 -1.98246169436944
 6  5.40593614461446 -1.12209395459546 -1.09506292319232
 6  3.07312740814081  1.04035243784378 -3.84822133133313
 6  0.52274469856986  2.01676682358236 -2.01381312641264
 6  3.05637427772777  1.85624521002100  3.54122946814681
 6 -0.63094692629263  2.33093772597260 -1.17766305420542
 6 -6.83183711021102 -3.19642340644064 -1.62093065176518
 6  6.65399496909691 -1.98125638073807 -1.34246493649365
 6 -1.41728038283828  3.54935716891689 -1.22396047074707
 6 -2.39512360176018  3.50433091209121 -0.21599950615062
 6 -2.08825109750975  2.06906784028403  0.37107603960396
 6 -1.18222820122012  4.72018827902790 -2.10267203520352
 6 -3.43587422392239  4.31396187908791  0.31088532823282
 6 -1.71560545174517  5.83783920212021 -2.25443917671767
 1 -3.59570806400640 -0.49457494739474  1.43595780038004
 1 -2.75065669206921 -3.36154127912791  1.14011436053605
 1 -3.21185100490049 -2.28138158255826  2.74767415611561
 1 -0.55816112091209 -2.89347811291129  0.01773878387839
 1 -2.02859124882488 -0.52589889338934 -0.80443454585459
 1  1.88516647804780 -0.44902635643564  4.41210330943094
 1  2.78309564246425 -1.09100099139914  2.93512844224422
 1  2.77523633753375 -2.64038562146215  0.45605865906591
 1 -2.07276990629063 -1.01194046804680  4.20406746854685
 1 -0.57658742674267 -0.41568577217722  4.84515087158716
 1 -1.96237555135514  0.32439488618862  3.44785355065507
 1 -5.30112089928993 -1.81958008920892  2.32517681068107
 1 -5.69706846754675 -3.57004110871087  1.40695354165417
 1 -6.91054843164316 -1.82805844924492  0.97272363406341
 1  2.03459959935994  1.06895683758376  1.76594420572057
 1  1.06022597409741  1.52255449974997  2.89387736143614
 1  0.19509776737674  0.34124849464947 -0.30440247254726
 1  4.40864658385839 -1.57883094209421 -2.99865546744674
 1  3.98730956075608 -2.53547532673267 -1.72052916091609
 1 -5.48344048244824 -2.47062798739874 -3.17560102390239
 1  5.15802372367237 -0.91703218311831  0.05978920262026
 1  5.76823826512651  0.01733473737374 -1.22076655915592
 1  4.05463537503750  0.57041353345335 -4.03934216371637
 1  3.44434018561856  1.99093017171717 -3.78349068446845
 1  2.50308609790979  0.95734023192319 -4.71493464546455
 1  0.82715662566257  2.69590108660866 -2.79167005900590
 1 -7.12741182728273 -3.39243142704270 -0.57661668286829
 1 -7.63199146404641 -3.87241857235723 -2.39329238273827
 1  3.68270199769977  3.48231759275928  3.90131338553855
 1 -0.38699257805781  4.36923820332033 -2.91434933033303
 1 -4.27929651925193  4.70219680148015 -0.57197834933493
 1 -4.10548929862986  3.64551934553455  1.20865167656766
 1 -2.97335565176518  5.20667095819582  0.70598636853685
 1  8.43960965446545 -2.26623977817782 -0.89432006700670
 1 -1.42281520612061  6.60993145024502 -2.88632348454845
 1 -2.53791614451445  6.32004338013801 -1.50600650815081

