%nproc=4
%Mem=4GB
# td=(NStates=1) B3LYP/SVP 

TD

0 1
 8 -5.56103233323332  0.02231767136714 -3.43728351805181
 8  2.96294630013001  3.09055631033103  3.13132921132113
 8  3.39479782838284  0.87236263526353  3.10788267336734
 8  1.62514015351535 -7.14744101420142  1.53831233753375
 8  0.77763265126513 -7.12038846244624 -0.48357634053405
 8  1.87999504760476  4.01301442424242  0.20365987338734
 7 -2.35239485058506 -0.96745517571757  0.63661067766777
 7 -4.47340222162216  0.61811947844784 -1.39930828562856
 7  1.76701709330933 -0.69408098109811 -0.59304778237824
 7  2.57287282918292  1.93358910441044 -0.54520126682668
 6 -4.83718010921092  1.15082657965797 -0.05352955315532
 6 -4.48151554435444  0.27283744904490  1.19525688338834
 6 -2.97802289788979  0.04900515721572  1.30230224322432
 6 -1.95233433013301  0.63675863306331  2.11747491709171
 6 -0.64302091239124  0.11314587908791  1.73812449004900
 6 -1.00225441324132 -0.99717277617762  0.78843066246625
 6 -6.24634699079908  1.29838762806281 -0.18416363176318
 6  0.65390399699970  0.25515619211921  2.51375039513951
 6 -6.73034354885489  0.93444269266927 -1.33777950665067
 6 -0.15162141824182 -2.07235597249725  0.22190427192719
 6  1.12882977917792 -1.92214176077608 -0.33452503470347
 6 -5.56635723602360  0.42922113681368 -2.24459177067707
 6  1.92746683188319 -2.91181171957196 -0.90567757705771
 6 -2.19374507540754  1.70115587248725  3.13071746194619
 6 -6.98394588778878  1.97215534473447  0.91436542244224
 6  3.12236857055706 -2.34379433063306 -1.40745199029903
 6  1.10235626292629  1.73017151055106  2.53719735563556
 6  3.04622269756976 -0.87830645624562 -1.14242823102310
 6  1.59074284448445 -4.38368433283328 -1.00527224412441
 6 -8.15411131713171  0.65977761536154 -1.87954634243424
 6  1.77649521512151 -5.04320525512551  0.37641363686369
 6  4.31065667466747 -3.06506497529753 -2.09447867916792
 6  3.93220409100910  0.13957336083608 -1.51417610001000
 6  2.58405902710271  1.80537812601260  2.94323022292229
 6  3.68946332413241  1.51942735423542 -1.16575314261426
 6 -9.23019800320032  0.82786494679468 -1.14092890819082
 6  1.33035810051005 -6.56502315251525  0.43290194919492
 6  4.63221205580558  2.54285104000400 -1.38791587468747
 6  3.91602087048705  3.74622514621462 -0.87763905820582
 6  2.70974254505451  3.29458730983098 -0.30031879457946
 6  5.81330493579358  2.43888872947295 -2.15185714081408
 6  4.48235385518552  5.19416429222922 -0.75891790519052
 6  6.77630768836884  3.34054973977398 -2.43366784368437
 1 -4.18259274537454  2.09518059815982  0.01593463376338
 1 -4.95049970687069 -0.64869634573457  1.11234597879788
 1 -4.89856669656966  0.80977497719772  2.01737864756476
 1 -2.89550859075908 -1.60773816931693  0.11369444764477
 1 -3.53487448474847  0.31774369146915 -1.78701625252525
 1  0.31788622332233 -0.14617430543054  3.63261280938094
 1  1.36843085248525 -0.35378004540454  1.94967009980998
 1 -0.55508416931693 -3.10499796479648 -0.00383538123812
 1 -3.36179632493249  1.64349561366137  3.42957294699470
 1 -1.72038325342534  1.64880424432443  4.03572196009601
 1 -2.02607898899890  2.91189500930093  2.80665808760876
 1 -6.21283473437344  2.42448125162516  1.45187742074207
 1 -7.49228899589959  0.96349615881588  1.41780879157916
 1 -7.83677961516152  2.60355643874387  0.48245672587259
 1  1.09199190759076  2.23561559815982  1.52416048334833
 1  0.57799091159116  2.49459628162816  3.07993381758176
 1  1.57506183258326  0.32464310931093 -0.42372773807381
 1  2.31604939713971 -4.78052188258826 -1.65256986668667
 1  0.76398819631963 -4.57731757925793 -1.35945442884288
 1 -8.16046710851085  0.45065529612961 -2.79723566176618
 1  1.07040922982298 -4.60476165586559  1.12564014061406
 1  2.78059432953295 -5.12968017251725  0.80237805270527
 1  4.12255731803180 -4.11635908810881 -2.03291675277528
 1  5.03167426582658 -3.12681153135314 -1.23157677527753
 1  4.64784621772177 -2.73458569116912 -3.13728280188019
 1  4.93368298779878 -0.24700679517952 -1.96923309900990
 1 -9.45764936543654  1.01223867936794 -0.07815050485049
 1 -10.11893002660266  0.74253566926693 -1.56740284028403
 1  3.82838752525253  3.03687707140714  3.74461922762276
 1  6.07986145434543  1.36239838903890 -2.62762157715772
 1  5.39671037083708  5.12397516171617  0.10355173527353
 1  4.93848587108711  5.39270603630363 -1.68174071897190
 1  3.59395706530653  5.80897050345034 -0.46618836043604
 1  1.59572688078808 -8.12610376747675  1.50871692659266
 1  7.77585002940294  3.06231177107711 -2.97839511281128
 1  6.65408729622962  4.44114962716272 -2.32214456695670

