%nproc=4
%Mem=3GB
# td=(NStates=1) B3LYP/SVP 

TD

0 1
 8 -3.36377328752875 -1.42062711821182 -2.93860451475147
 8  2.86068652345235  3.24591625012501  3.16289055995600
 8  3.58374268246825  1.55323245154515  4.35741018461846
 8  7.76310491339134 -1.64313042724272 -0.80526128792879
 8  6.61304546094609 -3.25065586048605 -1.86424287238724
 8 -2.49360026652665  1.59178466756676  1.63560362086209
 7 -0.22541828802880 -2.51533784808481  0.87498233903390
 7 -2.63157519551955 -1.09326446144614 -0.71275341994199
 7  1.19099064846485  0.08414932463246 -0.67970290749075
 7 -0.94652379787979  1.40676608450845 -0.19012991089109
 6 -3.28530368006801 -1.33799136153615  0.57356433033303
 6 -2.60589921602160 -2.36587073327333  1.51729703650365
 6 -1.24369001070107 -2.07466528052805  1.74020200880088
 6 -0.55566536883688 -1.22335352705271  2.73224124462446
 6  0.85001611421142 -1.10803580458046  2.45299649424943
 6  0.96970965716572 -1.89875631033103  1.23449825382538
 6 -4.65567051365137 -1.80061571027103  0.24943183048305
 6  1.84840943234323 -0.24033436303630  3.06019817431743
 6 -4.84331069246925 -1.95863457185719 -1.07247758825883
 6  2.13166112251225 -1.89282747494749  0.29242152085209
 6  2.17301332323232 -0.87655956815682 -0.65947984948495
 6 -3.52045671557156 -1.43272523782378 -1.65819310271027
 6  3.08654971817182 -0.63975472377238 -1.78195209410941
 6 -1.34461303350335 -0.50804466146615  3.79265477377738
 6 -5.60633585768577 -2.18099457975798  1.28884989058906
 6  2.46801645854586  0.36804417261726 -2.46860147014701
 6  1.68849828222822  1.27029272127213  2.77000364196420
 6  1.30610397689769  0.97727437603760 -1.77087319331933
 6  4.32144749384938 -1.52201163026303 -2.15255488558856
 6 -5.83496783288329 -2.40481257165717 -2.00215366356636
 6  5.46361191219122 -1.19621136633663 -1.18899231613161
 6  3.06841693709371  1.11419982258226 -3.73793030223022
 6  0.51666409050905  1.98508365526553 -2.03264500960096
 6  2.79604824512451  1.99251883738374  3.54983032823282
 6 -0.59166299789979  2.28030266246625 -1.17858314621462
 6 -6.97526145264526 -3.19259302340234 -1.66066462516252
 6  6.65056462606261 -2.10294854995499 -1.39941063106311
 6 -1.45688434323432  3.48598083128313 -1.20453852855286
 6 -2.26143023242324  3.31026150515051 -0.10941884808481
 6 -2.00208248064806  2.03883481698170  0.50986991899190
 6 -1.25028500690069  4.58701496169617 -2.06548831683168
 6 -3.36145678217822  4.21827231013101  0.48138237793779
 6 -1.97252114331433  5.67823324152415 -2.37112084488449
 1 -3.24821331453145 -0.57780327022702  1.22703690829083
 1 -2.70766239263926 -3.37022214721472  0.90592094119412
 1 -3.07464728452845 -2.65703914831483  2.27261665036504
 1 -0.42038734353435 -3.00159892499250 -0.09484247424743
 1 -2.01605999569957 -0.44296059955996 -0.86383048544854
 1  1.63036099749975 -0.50807226102610  4.21140323942394
 1  2.92293962686269 -0.73653554485449  2.81540647004700
 1  3.03469228312831 -2.53725530843084  0.38762181538154
 1 -1.91771440074007 -1.01892116611661  4.51330839263926
 1 -0.54311407940794  0.00762655905591  4.42148850535053
 1 -1.98371768556856  0.34274672137214  3.08115688098810
 1 -5.52427321452145 -1.64148227942794  2.36700099309931
 1 -5.76953571427143 -3.26042014661466  1.56766961326133
 1 -6.57268464526453 -1.65792143554355  0.92006836853685
 1  1.98401454085409  1.42765270717072  1.57717532883288
 1  0.83207315881588  1.72745498979898  3.31389936363636
 1  0.52652090969097  0.38711308110811  0.06682465016502
 1  4.63893961316132 -1.54944800380038 -3.17849345124512
 1  4.03427425722572 -2.43134491369137 -1.99518662666267
 1 -5.66699883828383 -2.09122004660466 -3.09647311111111
 1  5.10775869716972 -1.27802828272827 -0.14788156445645
 1  5.96565800710071 -0.22112910901090 -1.32242672517252
 1  4.01318122962296  0.57041353345335 -4.29843807330733
 1  3.67916366796680  2.10665174387439 -3.35403773917392
 1  2.26135192449245  1.30138463636364 -4.44118727072707
 1  0.79211312131213  2.65541703820382 -2.79300019201920
 1 -7.07534662076208 -3.62212439633963 -0.54810383158316
 1 -7.74526279117912 -3.44681601210121 -2.45133818731873
 1  3.49758348584859  3.79363872487249  3.72846610081008
 1 -0.66453033183318  4.23269454895490 -2.99653754915492
 1 -4.03246183578358  4.39369595139514 -0.28875002650265
 1 -3.94934368406841  3.70475526912691  1.45634644604460
 1 -2.97254557075708  5.23342363346335  0.60886665656566
 1  8.47635332883288 -2.32693584778478 -0.75958659365937
 1 -1.73524644924492  6.21983244034403 -3.27750260246025
 1 -2.66618897179718  6.13728510431043 -1.45956186368637

