%nproc=4
%Mem=4GB
# td=(NStates=1) B3LYP/SVP 

TD

0 1
 8 -5.26604283428343  0.08836427602760 -3.26486627632763
 8  2.99644965046505  2.94089134383438  3.38616469486949
 8  3.38796714531453  0.78346374537454  2.87858974407441
 8  1.58397603710371 -7.16926319641964  1.53606211251125
 8  0.61453634163416 -7.08125454905491 -0.43267125002500
 8  1.69659670777078  4.03867699049905  0.11981148854886
 7 -2.40545015611561 -1.06628505870587  0.56947396399640
 7 -4.32316719811981  0.64961262776278 -1.23793214801480
 7  1.95087547914791 -0.75469704270427 -0.28830730833083
 7  2.45194073597360  1.90747649314931 -0.56739348604861
 6 -4.69768615981598  1.17828932593259 -0.00900510071007
 6 -4.33974136693669  0.26378654395440  1.36213357105711
 6 -2.99222431803180 -0.08943868716872  1.39892190519052
 6 -1.95353445014501  0.56064102130213  2.10476364596460
 6 -0.80545715601560 -0.02290772627263  1.79483016061606
 6 -0.95313950175018 -1.08944200310031  0.80975279467947
 6 -6.17825018111811  1.34741253055306 -0.17516273167317
 6  0.52252085868587  0.21122179867987  2.50022904300430
 6 -6.56897741224122  0.90660990939094 -1.33772950165016
 6 -0.19640589668967 -2.02737147404740  0.14163624512451
 6  1.11533843004300 -1.95410495709571 -0.33199478167817
 6 -5.34548514881488  0.46574478917892 -2.19219653115312
 6  1.98432251745175 -2.95680621902190 -0.90843785308531
 6 -2.17782348324832  1.66234199109911  3.16928131833183
 6 -7.05382287548755  1.98203633283328  0.95738972487249
 6  3.19599593329333 -2.30147009820982 -1.27511875697570
 6  1.11520754805481  1.66577507090709  2.68891252715272
 6  3.11008908420842 -0.95173379897990 -1.03605759395940
 6  1.70804457465747 -4.39592555695569 -0.98419013591359
 6 -7.94161006700670  0.90566220382038 -1.96835522332233
 6  1.84823238883888 -5.07547848244824  0.32900889638964
 6  4.41748735773577 -3.00231870067007 -1.93415264656466
 6  3.86944781538154  0.13261266476648 -1.46801148354835
 6  2.56011663286329  1.72126971517152  2.96576247614761
 6  3.56617099489949  1.47544295579558 -1.17895446274627
 6 -9.19064404780478  1.07437959825983 -1.49690450575057
 6  1.31690675537554 -6.52534918511851  0.42535119411941
 6  4.47126596119612  2.66920367526753 -1.55512259535954
 6  3.76336560496050  3.75862638633863 -1.12669396369637
 6  2.55209678047805  3.32010986208621 -0.49521828452845
 6  5.73728733403340  2.47935277587759 -2.17281923702370
 6  4.17955357515752  5.22998787458746 -0.95168718211821
 6  6.62765282288229  3.45538122292229 -2.62354683158316
 1 -4.20779526562656  2.20372145224522  0.09952299259926
 1 -5.13552820972097 -0.59713118921892  1.34217896209621
 1 -4.65075191509151  1.04300830053005  2.16970388008801
 1 -2.75210425032503 -1.81355875137514 -0.06693361516152
 1 -3.44982597989799  0.84118603570357 -1.67269482038204
 1  0.38620305500550 -0.16335602360236  3.45682523062306
 1  1.33191720112011 -0.39866453385339  2.01166629942994
 1 -0.70799946084608 -2.90803826882688 -0.19178417611761
 1 -3.07602774807481  1.83321458555856  3.29284927462746
 1 -1.51758297339734  1.50635999989999  4.05701408930893
 1 -1.72144852595260  2.48515233503350  2.71858928072807
 1 -6.40051350225022  2.31557036053605  1.69274150715072
 1 -7.78214798179818  1.23063287248725  1.47950496119612
 1 -7.61397733493349  2.97193327642764  0.52835131533153
 1  0.84339704810481  2.13846588318832  1.81159922722272
 1  0.49142225472547  2.28792561456146  3.37009283348335
 1  1.55205953235324  0.23426407140714 -0.12883824912491
 1  2.42060985318532 -4.88697252765277 -1.73562817251725
 1  0.57657945544554 -4.67459730723072 -1.52723120652065
 1 -7.77533859565957  0.63781401200120 -3.14616055425543
 1  1.36454864376438 -4.43978515821582  1.04379195579558
 1  2.84438070817082 -4.96406361086109  0.75700351525152
 1  4.36664172647265 -4.06099355155516 -2.01424488558856
 1  5.37468856725673 -2.76023487368737 -1.52872649024902
 1  4.51026245934593 -2.50375260786079 -3.12403147674767
 1  4.97805742524253 -0.28259035353535 -1.93369954565456
 1 -9.32459606010601  1.18737619311931 -0.37329001880188
 1 -9.95327346094609  0.67474889058906 -2.18360446044604
 1  3.99362404890489  2.71606499019902  3.32044681038104
 1  6.24257772597260  1.37603975317532 -2.14876369136914
 1  5.25126582638264  5.28278104230423 -0.51584020392039
 1  4.24786680918092  5.65613237893789 -2.04168671357136
 1  3.31972964256426  5.91652125852585 -0.40883262486249
 1  0.94012132023202 -7.99600075717572  1.62985904080408
 1  7.70243268766877  3.26514205410541 -3.11310858415842
 1  6.27048893639364  4.59230474267427 -2.74937729022902

