%nproc=4
%Mem=3GB
# td=(NStates=1) B3LYP/SVP 

TD

0 1
 8 -3.22331924212421 -1.34749980548055 -2.88910956525653
 8  2.98837929272927  3.09418107660766  3.17899217011701
 8  3.87929223742374  1.44580170847085  4.34871931553155
 8  7.83129173207321 -1.40439655385539 -0.94568533033303
 8  6.62982713911391 -2.92289308420842 -2.10156660476048
 8 -2.75412631913191  1.60303579267927  1.36400646114611
 7 -0.26393213941394 -2.43948026232623  0.91929677047705
 7 -2.66275831383138 -1.07551268626863 -0.53355550015002
 7  1.16415796519652  0.12646355605561 -0.63677861506151
 7 -1.12859200470047  1.47729313721372 -0.20856175407541
 6 -3.43512866256626 -1.22577013941394  0.65819279317932
 6 -2.62466109220922 -2.31445559175918  1.61104641144114
 6 -1.24773041474147 -1.96651446544654  1.85938392699270
 6 -0.56646644894489 -1.29015020672067  2.91710973147315
 6  0.86210732333233 -1.28185318631863  2.57028822342234
 6  1.01942462866287 -1.97218365306531  1.24072887688769
 6 -4.75858080468047 -1.86664231293129  0.25161204850485
 6  1.94729932133213 -0.44878520812081  3.21320347484748
 6 -4.78755511691169 -1.97705641404140 -1.08119846034603
 6  2.03645160156016 -1.98741693389339  0.33781606030603
 6  2.02101812371237 -0.88482039423942 -0.58469237073707
 6 -3.41257592749275 -1.43377534283428 -1.70024730813081
 6  2.95900696389639 -0.65021576987699 -1.76645054395440
 6 -1.25939451165117 -0.65210906790679  4.06226173447345
 6 -5.78248347244724 -2.12736921722172  1.18516952255226
 6  2.54689434633463  0.43897126532653 -2.40412502250225
 6  2.08476790919092  0.97736342834283  2.85298193979398
 6  1.28629199569957  0.87516416501650 -1.81551765776578
 6  4.14093944304430 -1.53488291739174 -1.95545517561756
 6 -5.73819815591559 -2.55801789218922 -1.99230267846785
 6  5.31677722872287 -1.14190593579358 -1.03219663656366
 6  3.12821291669167  1.04155255785579 -3.56573308250825
 6  0.47662008610861  2.01014616151615 -2.10692243734373
 6  3.04165280558056  1.78701828732873  3.54821016621662
 6 -0.69340317191719  2.31944657685769 -1.24574986288629
 6 -6.85363929042904 -3.28140190429043 -1.76357491619162
 6  6.66180575017502 -2.00704895999600 -1.41034172417242
 6 -1.43346200100010  3.55516774997500 -1.27906598129813
 6 -2.30800488988899  3.51142162116212 -0.23173107930793
 6 -2.13026529892989  2.10516144964496  0.43146207820782
 6 -1.23619359775978  4.50919717991799 -2.31806357435744
 6 -3.43439407590759  4.46009649254925  0.07372161186119
 6 -1.84933882508251  5.75707112531253 -2.37548128092809
 1 -3.37617611081108 -0.32472796269627  1.41643584818482
 1 -2.79638126452645 -3.25535066006601  1.25294564366437
 1 -3.19904972477248 -2.30157360176018  2.44491388008801
 1 -0.68220352515252 -2.62684144924492 -0.11452444244424
 1 -2.03316170587059 -0.11617792129213 -0.84296839923992
 1  1.97549551095109 -0.62059351315132  4.35931803090309
 1  2.62924025692569 -1.09185107640764  2.80799572897290
 1  2.82154096799680 -2.80794237713771  0.39607266046605
 1 -1.95354798409841 -1.33045231923192  4.50169723152315
 1 -0.56240600860086 -0.60668487208721  4.83575993249325
 1 -1.63051236503650  0.26425887258726  3.69939870517052
 1 -5.48054884208421 -1.38590672187219  2.03690798379838
 1 -5.54885364606461 -3.23307741234123  1.50872371867187
 1 -6.85061243804380 -2.22926857025703  0.81315767746775
 1  1.70850699009901  1.17642758465847  1.73351096239624
 1  1.01862181368137  1.35669791409141  3.20319829352935
 1 -0.01123286568657  0.00876524632463 -0.15173720602060
 1  4.31074679387939 -1.62522558155816 -3.12293789568957
 1  3.93113394319432 -2.69779155835584 -1.64407151515152
 1 -5.49607174557456 -2.31704262886289 -3.00397386118612
 1  5.03201112241224 -1.23364384428443 -0.01941871817182
 1  5.65272671397140  0.05216822072207 -1.04161864436444
 1  4.22163207470747  0.77246373847385 -4.02065029452945
 1  3.49354510611061  2.06377745644564 -3.31197353275328
 1  2.29521531083108  0.65920041794179 -4.39824297629763
 1  0.59666357635764  2.68759025552555 -2.98459935193519
 1 -7.17032611871187 -3.54198638253825 -0.80785980718072
 1 -7.51353961886189 -3.67889922042204 -2.57734078757876
 1  3.75652938043804  3.59150851185119  3.57619087328733
 1 -0.65698957775778  4.35133641314131 -3.02854074947495
 1 -4.11552014161416  4.35418200000000 -0.86805795729573
 1 -4.20474922462246  4.10974576817682  0.87186799819982
 1 -2.95802411861186  5.33801409250925  0.34086985688569
 1  8.46762245574558 -2.21698485268527 -1.04156479147915
 1 -1.51248417301730  6.40551100820082 -3.13944879707971
 1 -2.56232858575858  6.08738011381138 -1.62393830133013

