%nproc=4
%Mem=3GB
# td=(NStates=1) B3LYP/SVP 

TD

0 1
 8 -3.24273118331833 -1.28215327082708 -2.82508316261626
 8  3.26063651845184  3.08121978047805  2.97383165406541
 8  3.68251255945595  1.55830295859586  4.58847329092909
 8  7.82666126902690 -1.55771188538854 -0.80610137193719
 8  6.84955911231123 -2.93424421932193 -2.30548699679968
 8 -2.62749365586559  1.61189667876788  1.60375043554355
 7 -0.23080882708271 -2.43984029832983  0.88314315511551
 7 -2.69729176717672 -1.24675981098110 -0.53176532113211
 7  1.05883743314331  0.00741165086509 -0.75496043324332
 7 -0.97508665416542  1.42029743764376 -0.14078497639764
 6 -3.43629877957796 -1.33087064946495  0.63827080098010
 6 -2.70910953705371 -2.36245039123912  1.51583689048905
 6 -1.28522416411641 -1.97883569756976  1.70636862546255
 6 -0.72769257155716 -1.15286647834784  2.77142516301630
 6  0.71162227482748 -1.16192119311931  2.45374656925693
 6  0.90352303850385 -1.87640407510751  1.27820262426243
 6 -4.83962890949095 -1.86244189288929  0.26962384968497
 6  1.80920551195119 -0.37446777637764  3.21943409790979
 6 -4.83589995139514 -1.87509621802180 -1.07324766526653
 6  2.03595155155516 -1.89128732093209  0.34464674337434
 6  2.12687870977098 -0.91547345954595 -0.64656855835584
 6 -3.53519818971897 -1.34911687698770 -1.62730001340134
 6  3.14630569376938 -0.61907265556556 -1.73631753065306
 6 -1.37798637083708 -0.43114697169717  3.87649315761576
 6 -5.80100532463246 -2.27281376167617  1.33558456405641
 6  2.53784344124412  0.44448181638164 -2.33906851685169
 6  1.96343577597760  1.03015870787079  2.86291293289329
 6  1.36157952445245  0.90152680128013 -1.70445655165517
 6  4.27847319641964 -1.50362979207921 -1.98379800990099
 6 -5.81118545464546 -2.26514860526053 -2.07270071827183
 6  5.54269982098210 -1.14808655385539 -1.17704112101210
 6  3.16700679607961  1.07624602720272 -3.57147365656566
 6  0.55284770887089  1.89891503840384 -1.91676342144214
 6  3.06907554785479  1.94545413091309  3.61688703390339
 6 -0.57002083368337  2.18420305250525 -1.05483077097710
 6 -6.95807973447345 -3.01621538563856 -1.78843740244024
 6  6.80204977457746 -1.99999825492549 -1.55281597159716
 6 -1.47904655945595  3.40895312851285 -1.29888796349635
 6 -2.36787087648765  3.25147562656266 -0.20383829002900
 6 -2.13902617501750  2.07911884538454  0.51918085008501
 6 -1.33898387678768  4.39571583178318 -2.33620538853885
 6 -3.50090072657266  4.16346682958296  0.20261450115011
 6 -1.99481337253725  5.61028644684469 -2.48084181698170
 1 -3.38427692089209 -0.42955844574457  1.27939214381438
 1 -2.96111773817382 -3.56640176517652  1.12652300140014
 1 -3.30478029782978 -2.33599704410441  2.52674206290629
 1 -0.40108541334133 -2.98420718581858  0.16518352835284
 1 -2.02030041974197 -0.41210751425143 -0.57978208060806
 1  1.48915687708771 -0.44021547534753  4.30333243234323
 1  2.73862119501950 -0.97760965226523  2.93243817321732
 1  2.94070288418842 -2.47582916581658  0.54334738793879
 1 -2.24083671297130 -0.97124639863986  4.15951301310131
 1 -0.61254102210221 -0.46883108670867  4.81239759625963
 1 -1.59629894369437  0.79796224292429  3.49608837413741
 1 -5.54778556575657 -1.83277140834083  2.36228052105211
 1 -6.16832559325933 -3.50279438403840  1.32095494179418
 1 -6.70189756655666 -1.75629127252725  1.03451981368137
 1  2.09647578697870  1.13283322522252  1.78583619491949
 1  0.97177712921292  1.72603484778478  2.88922689638964
 1  0.27724598219822  0.40702507230723 -0.19665169746975
 1  4.44040976017602 -1.53777683668367 -2.99621522342234
 1  4.16085691549155 -2.57305908510851 -1.97044415241524
 1 -5.45527766616662 -1.92515343994399 -3.19254271807181
 1  5.48060598189819 -1.04056453635364 -0.09428620492049
 1  5.98151959325933 -0.07076407250725 -1.33405788828883
 1  3.78919883138314  0.37645413751375 -4.15172340184018
 1  3.65194094569457  1.95335641434143 -3.28730106550655
 1  2.41692748204820  1.26002049994999 -4.51286443844384
 1  0.73148705870587  2.51584308080808 -2.84228512051205
 1 -7.27147623372337 -3.25200738463846 -0.74745376657666
 1 -7.62040030493049 -3.47872920342034 -2.57665071857186
 1  3.90914464196420  3.56238559955996  3.50512376657666
 1 -0.43179705850585  4.11212249174917 -2.97626552195220
 1 -4.30084867446745  4.31654823662366 -0.55941709320932
 1 -3.92125087478748  3.65026982058206  0.96807761916192
 1 -3.14770308650865  5.12688297939794  0.59592536243624
 1  8.69405509900990 -1.99792294649465 -1.14899553455346
 1 -1.73638656325633  6.23172362946295 -3.49679453165317
 1 -2.77072942584258  5.83711508730873 -1.61301720922092

