%nproc=4
%Mem=3GB
# td=(NStates=1) B3LYP/SVP 

TD

0 1
 8 -3.11871878207821 -1.29389444494449 -2.81273192749275
 8  3.20508096289629  3.07135879437944  3.13687795869587
 8  3.96995130333033  1.28371549984998  4.30890533413341
 8  7.67117572047205 -1.42302841704170 -0.81454221602160
 8  6.50911506790679 -3.18125892079208 -1.63915036313631
 8 -2.79780068656866  1.77705319441944  1.41411147164716
 7 -0.21018676487649 -2.45099141344134  0.94769961076108
 7 -2.62498453645365 -1.25671080608061 -0.59512165676568
 7  1.19846139553955  0.09700060976098 -0.65392032923292
 7 -0.95098424392439  1.59235464336434 -0.06477737563756
 6 -3.39743489318932 -1.42463002540254  0.72322929682968
 6 -2.66547517361736 -2.39175332153215  1.55320062686269
 6 -1.17045268696870 -2.02593040704070  1.73167115571557
 6 -0.57655745804580 -1.16847803950395  2.76005402590259
 6  0.81309242184218 -1.16552155315532  2.49819101370137
 6  0.92013469966997 -1.74416085078508  1.18463326732673
 6 -4.76208115471547 -1.96916256495650  0.27514440174017
 6  1.86899149054906 -0.34293462306231  3.25858801330133
 6 -4.84179054045405 -2.00758946734673 -1.07126746724672
 6  2.11591954835484 -1.81042923512351  0.24094637333733
 6  2.10691671357136 -0.95753766596660 -0.71961586308631
 6 -3.41740641054105 -1.48023998929893 -1.63795107850785
 6  2.98212927612761 -0.63665441374137 -1.83430732963296
 6 -1.22310088228823 -0.61513537053705  3.91481698999900
 6 -5.78850407450745 -2.27776425672567  1.24469547514751
 6  2.48981863876388  0.50540790899090 -2.47980259025903
 6  1.96699613201320  1.09691538353835  2.84787142874287
 6  1.21597496399640  0.89025567416742 -1.83480958695870
 6  4.16579192829283 -1.44978440754075 -2.04355398549855
 6 -5.86293062916292 -2.42836492689269 -2.01258470667067
 6  5.37935348634863 -1.14688643384338 -1.12618603550355
 6  3.08326842224222  1.11191959455946 -3.74294080328033
 6  0.51759418351835  1.99685483238324 -1.96244798989899
 6  3.24203284358436  1.78535812131213  3.45334067926793
 6 -0.62327615921592  2.39303393559356 -1.20764605250525
 6 -6.85908983548355 -3.24916868096810 -1.86863542224222
 6  6.56925649524953 -2.08970722582258 -1.26692738273827
 6 -1.48513716851685  3.50582281548155 -1.28013608830883
 6 -2.43250734013401  3.42748322732273 -0.22617052325233
 6 -2.10553282568257  2.20821175467547  0.47231616361636
 6 -1.14983496189619  4.57585384558456 -2.18909067706771
 6 -3.72474311081108  4.24778526142614  0.16467070677068
 6 -1.90886477767777  5.75475089328933 -2.43166689948995
 1 -3.56395488868887 -0.45775126502650  1.35284948954896
 1 -2.50238186458646 -3.53747887288729  1.03190353945395
 1 -3.11866168596860 -2.77631107550755  2.35688507720772
 1 -0.47277258205821 -2.60365913101310 -0.06480947094709
 1 -1.95591398109811 -0.39152545604560 -0.65343944634463
 1  1.65533349474947 -0.47890934473447  4.27150925002500
 1  2.80614794769477 -0.94010590189019  2.95688061746175
 1  2.90484929882988 -2.60631221412141  0.14347740094009
 1 -1.89423205250525 -1.18538781278128  4.75179224102410
 1 -0.41580134813481  0.11863766016602  4.60728708520852
 1 -1.82884219801980  0.02717516421642  3.32155092039204
 1 -5.67159794699470 -1.51414954615462  2.00410470347035
 1 -5.71706046674667 -3.27410151475148  1.73083592989299
 1 -6.73392076887689 -2.26581222462246  0.66660302200220
 1  2.23509964936494  1.06450639253925  1.69264687598760
 1  1.15405535703570  1.66720896519652  3.13787176087609
 1  0.37699595719572  0.43939830963096 -0.09083111541154
 1  4.51164688388839 -1.23795685468547 -2.86117171907191
 1  4.06997782758276 -2.49925170437044 -2.07771487948795
 1 -5.95305744414441 -2.16183710831083 -3.10776424022402
 1  5.04952287358736 -1.27729820972097 -0.22291906820682
 1  5.65774721602160 -0.05472246834683 -1.45600008250825
 1  3.97690760226023  0.51277776987699 -4.09831806130613
 1  3.37098284988499  2.11026210491049 -3.48361069646965
 1  2.45696148544854  1.29658415631563 -4.47961111311131
 1  0.59995390539054  2.61981347784779 -2.95341623362336
 1 -7.18290737683768 -3.87436962086209 -0.92763178437844
 1 -7.70321858675868 -3.17962929342934 -2.71075412891289
 1  4.12489621712171  3.66312567356736  3.44018727292729
 1 -0.19070294909491  4.51137241674167 -2.89384728012801
 1 -4.61064965456546  4.31106768856886 -0.50735188668867
 1 -4.25266401610161  3.75719051265126  1.01169198059806
 1 -3.41776009220922  5.26829712081208  0.57427319721972
 1  8.45917161066107 -1.98585173937394 -1.05851648664867
 1 -1.63960688528853  6.40657111421142 -3.22974782698270
 1 -2.78348070097010  6.10070144594459 -1.73388929642964

