%nproc=4
%Mem=3GB
# td=(NStates=1) B3LYP/SVP 

TD

0 1
 8 -3.44302121232123 -1.31385644114411 -2.89297995229523
 8  3.13686414121412  3.17787944644464  3.12159643054305
 8  3.62640694889489  1.43961108940894  4.48305274887489
 8  7.76550515341534 -1.79372548674867 -0.53678444024402
 8  6.64817897429743 -2.91033182808281 -2.16047249534954
 8 -2.72481338783878  1.67296278537854  1.48525858635864
 7 -0.24593033923392 -2.49016533083308  0.98523336413641
 7 -2.70670270827083 -1.34027916291629 -0.67209935453545
 7  1.13056460586059  0.13091400110011 -0.68020295749575
 7 -1.17026617211721  1.43629903780378 -0.24651554945495
 6 -3.32177732743274 -1.39008657105711  0.60551752565257
 6 -2.62212083818382 -2.30147429362936  1.63282858965897
 6 -1.17205284698470 -2.12361017501750  1.85503349194920
 6 -0.53899370167017 -1.16893808550855  2.80267828832883
 6  0.77111822442244 -1.10058505950595  2.37321851645165
 6  0.97848053425343 -1.90257669236924  1.14309911391139
 6 -4.73670861746175 -1.88200384908491  0.33347023432343
 6  1.96864145554555 -0.35786611621162  3.07712986748675
 6 -4.86731309270927 -2.07976668506851 -1.07836817731773
 6  2.09755771217122 -1.94165235743574  0.24510678937894
 6  2.09572559445945 -0.94394630683068 -0.62508641014101
 6 -3.57227189708971 -1.53763572887289 -1.71803908730873
 6  3.04874593779378 -0.55100584888489 -1.65386928582858
 6 -1.20284885708571 -0.37488134513451  3.90527603590359
 6 -5.76061128522852 -2.30541702200220  1.31028203380338
 6  2.64534419131913  0.48619598779878 -2.40345495549555
 6  2.07232666506651  1.09999569156916  2.64529117071707
 6  1.36625999249925  0.97571422002200 -1.71717782378238
 6  4.19267461656166 -1.38698812791279 -1.99289891999200
 6 -5.91326566266627 -2.57117920832083 -1.95955940414041
 6  5.46398194919492 -1.08086983218322 -1.20935435233523
 6  3.12786288168817  1.13000140274027 -3.60945745494549
 6  0.52180460456046  2.04411955885589 -2.00756250135013
 6  3.05422406270627  1.86847643314331  3.52849819501950
 6 -0.61892572417242  2.27775240744074 -1.27683297119712
 6 -7.05123905040504 -3.33038680278028 -1.75816437513751
 6  6.61814138373837 -2.07761601670167 -1.34613530353035
 6 -1.44437309210921  3.45029726292629 -1.31861993669367
 6 -2.38846293569357  3.35872635163516 -0.29292719891989
 6 -2.09989226162616  2.09566049954995  0.47678661066107
 6 -1.14859483788379  4.64749100930093 -2.24496626462646
 6 -3.43331396789679  4.34470495339534  0.14497873757376
 6 -1.73700759195920  5.86552197039704 -2.16752048484849
 1 -3.46959545274527 -0.28454394429443  0.99397360196020
 1 -2.70981260766077 -3.49842496749675  1.20532088118812
 1 -3.22695251505150 -2.34389783418342  2.60133952265227
 1 -0.59548485328533 -3.09527829292929  0.12170918091809
 1 -2.19951834153415 -0.40465676917692 -0.69445354775478
 1  1.78700666206621 -0.27540899469947  4.22507460656066
 1  2.76180351325133 -0.93250514181418  3.02083701310131
 1  3.03187200110011 -2.50743232613261  0.35401845504550
 1 -1.90998362766277 -1.12893216721672  4.26335339713971
 1 -0.40856062406241 -0.15776998059806  4.60649700620062
 1 -1.82460177397740  0.44696714341434  3.42760152545255
 1 -5.82996378357836 -1.80323845504550  2.38600289328933
 1 -5.60847960866087 -3.34290839543954  1.36709955625563
 1 -6.81918929572957 -2.03856950035004  0.88267462916292
 1  2.46494263366337  1.30320026192619  1.56372398369837
 1  1.01470142164216  1.59633187748775  2.71379935363536
 1  0.32783104070407  0.31947631743174 -0.17428946124612
 1  4.46162188138814 -1.09009206820682 -3.08025362726273
 1  4.17289811961196 -2.50188196739674 -1.90397750575058
 1 -5.75379751815181 -2.48567949254925 -2.96226969076908
 1  5.05513343464346 -1.12208268816882 -0.16197297359736
 1  5.69870131143114  0.06390939483948 -1.40072455495550
 1  3.86006591809181  0.37533402550255 -4.12649087858786
 1  3.49865561716172  2.12693377207721 -3.48353068846885
 1  2.45593138243824  1.19615411331133 -4.53569672167217
 1  0.91778568856886  2.74351584808481 -2.78600949294929
 1 -7.33703278937894 -3.58140032393239 -0.72244126532653
 1 -7.77057532243224 -3.44680601110111 -2.50325337883788
 1  3.92549627712771  3.54716407740774  3.55747900210021
 1 -0.39142302110211  4.47636891639164 -2.98056595199520
 1 -4.03532212181218  4.74271085288529 -0.68856000750075
 1 -4.21159990969097  3.88840363396340  1.00245105650565
 1 -3.21221953815382  5.28991928302830  0.67931370127013
 1  8.47696338983899 -2.41225437963796 -0.95244587958796
 1 -1.49731265586559  6.67889834693469 -2.97780263246325
 1 -2.36994934783478  6.13197457325733 -1.17512341984198

