%nproc=4
%Mem=3GB
# td=(NStates=1) B3LYP/SVP 

TD

0 1
 8 -3.29951686188619 -1.40409546504650 -2.82353300760076
 8  3.31395184998500  3.06895855435544  3.07773204410441
 8  3.66341064926493  1.30444757305731  4.49066350995100
 8  7.57301590449045 -1.62643875807581 -0.54634539633963
 8  6.64459861626163 -2.85569636453645 -2.16777322542254
 8 -2.57298820532053  1.70044553365337  1.44217427792779
 7 -0.22378812501250 -2.37716403070307  0.93418825962596
 7 -2.77408944694469 -1.23744887988799 -0.52580472507251
 7  1.14274582398240 -0.00118920922092 -0.82436737393739
 7 -0.95043418891889  1.48425383328333 -0.20894179207921
 6 -3.35758090779078 -1.25518308070807  0.67946492039204
 6 -2.64230285638564 -2.27859200540054  1.60735604240424
 6 -1.16305194689469 -1.99778759275928  1.83160114871487
 6 -0.56491629392939 -1.25926711841184  2.88380640114011
 6  0.82647375997600 -1.18572357335734  2.44839603420342
 6  1.01094378057806 -1.82838927362736  1.20721552555256
 6 -4.77190213681368 -1.93674932363236  0.37873476077608
 6  1.82357694909491 -0.33549387898790  3.10588274277428
 6 -4.78340470187019 -2.10791950035004 -1.00069040954095
 6  2.12239019541954 -1.90525871807181  0.31349362806281
 6  2.15303132503250 -0.90049196139614 -0.67865176667667
 6 -3.58875354525452 -1.58258022332233 -1.66461374477448
 6  3.03023408660866 -0.71445219351935 -1.88265216411641
 6 -1.35696426862686 -0.51147500450045  3.88696420472047
 6 -5.86533175727573 -2.11251773207321  1.31899290489049
 6  2.59388904580458  0.53717108530853 -2.55073968396840
 6  1.90152958535854  1.19591528352835  2.80678732033203
 6  1.36241960846085  0.94279092769277 -1.81004711071107
 6  4.27026237533753 -1.48677810691069 -2.10970060016002
 6 -5.84601893799380 -2.40262235263526 -2.07335078327833
 6  5.36573212421242 -0.98742048724873 -1.18451186808681
 6  3.33940403580358  1.22475087768777 -3.56683319251925
 6  0.53314573867387  2.03458860576058 -2.00289203430343
 6  2.96196483678368  1.73910349584959  3.60338568376838
 6 -0.53352718431843  2.27977260946095 -1.14881016891689
 6 -6.93650757725773 -3.16600036413641 -1.80108866756676
 6  6.57533710331033 -1.99249750485048 -1.31448213821382
 6 -1.38730738553855  3.56585881908191 -1.26385446014601
 6 -2.33514760416042  3.38727920692069 -0.23314122032203
 6 -1.99428170057006  2.07549848334834  0.50100903290329
 6 -1.36780675907591  4.47950421062106 -2.34475624362436
 6 -3.35631626812681  4.18848933183318  0.15499973967397
 6 -2.15705959715972  5.60648606680668 -2.36760049284928
 1 -3.24324281748175 -0.41428691859186  1.16118032263226
 1 -2.68230985738574 -3.22888801380138  1.01076142524252
 1 -3.11732155195520 -2.20098354275428  2.59434882358236
 1 -0.39774507930793 -2.76879564466447  0.00347735773577
 1 -2.19466785648565 -0.35088139163916 -0.55882998539854
 1  1.81170913231323 -0.50211166496650  4.13340543964396
 1  3.07466479937994 -0.91986387768777  2.94312924232423
 1  2.72561137503750 -2.74186576947695  0.39906295949595
 1 -2.17526015531553 -1.23854312831283  4.27345440724072
 1 -0.72333210121012 -0.27163136673667  4.55420177667767
 1 -1.67306662046205  0.49821226792679  3.48920768606861
 1 -5.52627341454145 -1.75462359355936  2.31039533253325
 1 -6.22073083378338 -3.21587569216922  1.47566041234123
 1 -6.90386776357636 -1.56294193759376  0.80481684338434
 1  1.84535067446745  1.35074501640164  1.78762637393739
 1  0.89115906740674  1.54005624992499  3.01474944864486
 1  0.40750900850085  0.15761013081308 -0.12294432673267
 1  4.51936765596560 -1.51768482748275 -3.11961756365637
 1  4.14383521332133 -2.49880165936594 -1.71919902790279
 1 -5.62571470987099 -2.23357428202820 -3.16723018681868
 1  4.99393731503150 -1.31055153505351 -0.08216499279928
 1  5.77436887818782  0.02546555045505 -1.42904738723872
 1  4.11738164966497  0.72040853295330 -4.15106333583358
 1  3.65267101870187  2.05478655735574 -3.10602293769377
 1  2.55607139643964  1.50614511241124 -4.36660981298130
 1  0.94416832683268  2.82252374887489 -2.62128302030203
 1 -7.09873895999600 -3.40855303920392 -0.59976899809981
 1 -7.70121838673867 -3.51388271877188 -2.58427148064806
 1  4.01392512001200  3.33834319531953  3.70529378357836
 1 -0.91500537933793  4.12310358985899 -3.37579547494749
 1 -3.88208679827983  4.80426700850085 -0.78681983348335
 1 -4.15496424612461  3.75677047064706  0.95083589498950
 1 -2.87782609880988  5.04406469756976  0.49614538443844
 1  8.29664535803581 -2.11195434963496 -0.79198983398340
 1 -2.08776170077008  6.07638809590959 -3.37955280748075
 1 -2.66967932083208  6.03173454925493 -1.48455436293629

