%nproc=4
%Mem=4GB
# td=(NStates=1) B3LYP/SVP 

TD

0 1
 8 -5.37522375237524 -0.01081564196420 -3.25075486518652
 8  3.14558456395640  2.81169842454245  3.09833591199120
 8  3.46225457405741  0.57460285928593  3.04077596269627
 8  1.16906454595460 -7.15653192329233  1.54724323062306
 8  0.37494238223822 -6.83658008160816 -0.55493347624762
 8  1.83335038313831  4.08235135793579  0.14479398679868
 7 -2.36877648874887 -0.92676110631063  0.55720273687369
 7 -4.43961884328433  0.51873954045405 -1.17603595839584
 7  1.84356474807481 -0.56445801880188 -0.47382586018602
 7  2.67102264416442  1.95654139963996 -0.40055680238024
 6 -4.85632202340234  1.20095159215922  0.04517031683168
 6 -4.31882927572757  0.33712387768777  1.28342570027003
 6 -2.86255135073507  0.07110736743674  1.33095510851085
 6 -1.92181127782778  0.62395735293529  2.09701287088709
 6 -0.67721433173317  0.10779534403440  1.78506918451845
 6 -0.95225941374137 -0.86773983288329  0.70242206160616
 6 -6.35405776187619  1.14173196249625 -0.14036925232523
 6  0.56938554515452  0.26013669016902  2.46051507160716
 6 -6.74532504700470  0.61199044744474 -1.31787751645165
 6 -0.13370962706271 -1.93844258115812  0.13891597309731
 6  1.13729062526253 -1.80249979657966 -0.27653923612361
 6 -5.51238183848385  0.28764697939794 -2.07908522002200
 6  2.03965805100510 -2.83552409080908 -0.91461847114711
 6 -2.13204890579058  1.78873463036304  3.11290568076808
 6 -7.31735922912291  1.87081521072107  0.81058504440444
 6  3.11403773747375 -2.27069702090209 -1.49176042114211
 6  1.17868389568957  1.57965645904590  2.65185882178218
 6  3.18167624292429 -0.79649827542754 -1.13219720792079
 6  1.60038380858086 -4.23917988238824 -0.95722743964396
 6 -8.03556946294630  0.43862550015002 -1.98390677847785
 6  1.67409497509751 -5.01150208480848  0.35483147864786
 6  4.30474608360836 -2.90585905470547 -2.08424765606561
 6  4.07953882448245  0.11262066556656 -1.34867955035504
 6  2.71414203540354  1.56106369456946  2.97790369026903
 6  3.80204458225823  1.54423983548355 -1.05823239053905
 6 -9.21408639203920  0.47102926322632 -1.38169298459846
 6  0.95084014871487 -6.47808445864586  0.45337399639964
 6  4.70258909350935  2.68627538243824 -1.36606368946895
 6  3.96682595099510  3.89739026272627 -0.99644093839384
 6  2.74262583338334  3.42663051415142 -0.40364912761276
 6  5.97991159645965  2.50259510011001 -2.04599655475548
 6  4.32464808460846  5.30328520432043 -1.25510752415242
 6  6.86402646024602  3.33821950675068 -2.48414289118912
 1 -4.43347783388339  2.18276935703570  0.26385942624262
 1 -4.92647730463046 -0.56466794289429  1.30945568976898
 1 -4.61322816271627  0.88376237593759  2.10390730043004
 1 -2.61886092599260 -1.24391178667867 -0.32286920872087
 1 -3.44865586288629  0.81761367846785 -1.55741329222922
 1  0.46549098379838 -0.09201888988899  3.55502505060506
 1  1.47004101350135 -0.47329199659966  2.19183431623162
 1 -0.61159982088209 -2.91676914191419 -0.04485948364836
 1 -3.25330547584758  1.62703396749675  3.33689367906791
 1 -1.74418563366337  1.63536290019002  4.14150253815382
 1 -1.93387976907691  2.77897171697170  2.92963038483848
 1 -6.76957040794079  2.67238604210421  1.43601583458346
 1 -7.75533530053005  1.07886769596960  1.44986199689969
 1 -8.31404734193419  2.23806989008901  0.27094557475748
 1  1.20281298969897  2.07113915051505  1.75628369566957
 1  0.61421453395340  2.39553637563756  3.27617344154415
 1  1.57765209160916  0.42356300130013 -0.12029739503950
 1  2.15471326352635 -4.69139296969697 -1.82246685638564
 1  0.48340013751375 -4.28901874937494 -1.33115159855986
 1 -7.98554961676168 -0.00322009140914 -3.07253319151915
 1  1.26669885878588 -4.47535871557156  1.17467504410441
 1  2.70022629272927 -5.10811801630163  0.56901471637164
 1  3.84839990229023 -3.78711616381638 -2.57630109120912
 1  5.14292539093909 -3.04237308750875 -1.31438505610561
 1  4.42755418851885 -2.26951918451845 -2.91874094769477
 1  5.08398801830183 -0.20848294279428 -1.48080425612561
 1 -9.55346894739474  0.58276573207321 -0.22258494829483
 1 -9.97162529612961  0.46186760246025 -1.91773787378738
 1  4.06793147964796  2.70251363506351  3.22929769546955
 1  6.46466993519352  1.65936808600860 -2.13249206420642
 1  5.33656435623562  5.56505927012701 -0.94475309520952
 1  4.38676069856986  5.60601736743674 -2.29619216411641
 1  3.60681835143514  5.89900950735073 -0.66838858045805
 1  0.53821112921292 -7.89671082818282  1.68243429832983
 1  7.77670011441144  2.89848538843884 -2.73083035633563
 1  6.57758964646465  4.40794630683068 -2.44619697219722

