%nproc=4
%Mem=3GB
# td=(NStates=1) B3LYP/SVP 

TD

0 1
 8 -3.15548245844584 -1.54362941844184 -2.84439509380938
 8  3.40084053885389  2.96998865736574  3.10085435633563
 8  3.49170347854785  1.32130925922592  4.67950239383938
 8  7.66922552545254 -1.82547866206621 -0.50008076987699
 8  6.73761791819182 -2.74431522642264 -2.38805525362536
 8 -2.55966687318732  1.76705219431943  1.61581164166417
 7 -0.38129387558756 -2.33730004430443  1.02744758555856
 7 -2.65448748674867 -1.15761089608961 -0.50357250185018
 7  1.14463601300130  0.07311822152215 -0.81114605180518
 7 -1.09832897839784  1.43250865876588 -0.16390728862886
 6 -3.36853200290029 -1.22184974737474  0.65052202610261
 6 -2.71075970207021 -2.22608675487549  1.69005431223122
 6 -1.31660730243024 -1.93476129012901  1.93176116471647
 6 -0.52461226352635 -1.11983317501750  2.82860088058806
 6  0.80278139073907 -1.16798179917992  2.44184537913791
 6  0.87966065226523 -1.84065049974997  1.19957476147615
 6 -4.66571151775178 -1.89645529422942  0.19365625292529
 6  1.91870646204620 -0.43479380898090  3.11387354185419
 6 -4.66625298669867 -2.16372508090809 -1.04360470097010
 6  2.02845080148015 -1.97476566876688  0.12499477817782
 6  2.05248127002700 -0.87743965616562 -0.68239214071407
 6 -3.39013368326833 -1.56720868616862 -1.67161444484448
 6  3.02717378057806 -0.74104485278528 -1.74052795169517
 6 -1.13163173537354 -0.37326118311831  3.95795130343034
 6 -5.88869409350935 -1.93556003630363  1.16962796839684
 6  2.60311996889689  0.44500186838684 -2.40771538153815
 6  2.01603103550355  0.95068076007601  2.72416905850585
 6  1.36737010351035  0.98003465206521 -1.87212331833183
 6  4.18046339543954 -1.44097352645264 -2.06871650175017
 6 -5.71614595069507 -2.66424851525153 -2.04159760796080
 6  5.41595714671467 -1.07750949614961 -1.19924334123412
 6  3.29429952535254  1.29090749334933 -3.57525403460346
 6  0.43903632773277  2.02792793969397 -2.03615536063606
 6  3.05172381268127  1.78567815331533  3.60602594779478
 6 -0.74061789338934  2.16392102430243 -1.22500778867887
 6 -6.89736366286629 -3.38464222832283 -1.77509606830683
 6  6.61028059765977 -2.00066832193219 -1.44848553855386
 6 -1.53816247104710  3.47736997019702 -1.23365143984398
 6 -2.35493958335834  3.45562604160416 -0.18969687588759
 6 -2.03884615701570  2.15132606610661  0.47816674867487
 6 -1.40568054645465  4.62241850205020 -2.22438420642064
 6 -3.45736637313731  4.33219370227023  0.21984622432243
 6 -2.09718360956096  5.72125754395440 -2.57061079387939
 1 -3.63916240944094 -0.20429591949195  1.17984218881888
 1 -3.03848547494750 -3.28697382238224  1.47168751785178
 1 -3.22037185698570 -2.06324976937694  2.64564395309531
 1 -0.53721902670267 -2.61463022812281  0.08181519151915
 1 -1.95961435113511 -0.41175747924792 -0.60676477887789
 1  1.74699266066607 -0.68761021482148  4.24759685878588
 1  2.71109844274427 -0.91220311161116  2.87990291969197
 1  2.62566138003800 -2.79793137603760  0.43464651785178
 1 -2.31570419971997 -0.92474174817482  4.16399346114611
 1 -0.36752652065206 -0.44940914451445  4.88119447594760
 1 -1.31307062086209  0.56479892659266  3.55684444974497
 1 -5.75036582378238 -1.11381951315131  1.93348764176418
 1 -5.93502226292629 -3.00479458405841  1.73944679097910
 1 -6.76170354715472 -1.76032167556756  0.65724208590859
 1  2.30242638203820  0.92445238713871  1.59890750205021
 1  0.96261621312131  1.31898414271427  2.82415038873887
 1  0.36561481908191  0.26169053885388 -0.11851388368837
 1  4.34340005920592 -1.38702176117612 -3.16250185208521
 1  4.30117094689469 -2.71857363656366 -2.10037714571457
 1 -5.33492563096310 -2.19124004860486 -3.00227369116912
 1  5.09061698299830 -1.44106458635864 -0.08559533583358
 1  5.58771021232123 -0.10394739083908 -1.32075655815582
 1  3.89390930243024  0.53697018911891 -3.96528475797580
 1  3.61423717531753  2.24563564226423 -3.10885322072207
 1  2.48879466876688  1.61429592749275 -4.42314546654665
 1  0.66993090309031  2.66525802230223 -2.80907179917992
 1 -7.21120020612061 -3.84841702560256 -0.68718773997400
 1 -7.72567083198320 -3.36523785428543 -2.60968402190219
 1  3.98127185468547  3.42557191819182  3.57419067326733
 1 -0.54089796859686  4.38821010051005 -2.95308320372037
 1 -4.16543513311331  4.68824540634063 -0.49537068856886
 1 -4.06157490719072  3.79918471207121  0.92084289568957
 1 -3.07432574877488  5.29394968606861  0.59127489738974
 1  8.47839353285329 -2.36728988318832 -0.72611324632463
 1 -1.82652557715772  6.28744920202020 -3.34082893509351
 1 -3.12290464336434  6.01428280408041 -2.00834674217422

