%nproc=4
%Mem=3GB
# td=(NStates=1) B3LYP/SVP 

TD

0 1
 8 -3.11537844804480 -1.29485454095410 -2.80184083838384
 8  2.88621907670767  3.17630928942894  3.21067533843384
 8  3.90334464266427  1.29493662196220  4.16924136773677
 8  7.73613221612161 -1.28026414061406 -0.95390615241524
 8  6.66667082348235 -3.13847464236424 -1.78494494259426
 8 -2.65940684718472  1.68176366546655  1.46434649514952
 7 -0.29081482768277 -2.50159647394739  0.91345618641864
 7 -2.63186522452245 -1.21742687768777 -0.60567271187119
 7  1.14659620902090  0.01226213591359 -0.64339927712771
 7 -1.01548069356936  1.52561796969697 -0.15649654755476
 6 -3.37844299399940 -1.39296685908591  0.60769774367437
 6 -2.70282890899090 -2.32360650685069  1.66558186498650
 6 -1.27034267596760 -2.01034884888489  1.85423341194119
 6 -0.56239604190419 -1.20708189988999  2.84183220372037
 6  0.79384049664966 -1.16280128112811  2.48303949854986
 6  0.81703438963896 -1.97345378007801  1.21322612661266
 6 -4.73279822642264 -1.92810845954595  0.19951683898390
 6  1.87244183558356 -0.38155848544854  3.14217637213721
 6 -4.82031839323932 -1.96915562396240 -1.15991633213321
 6  1.89030698709871 -1.95607379957996  0.30743302200220
 6  2.04649067096710 -0.98025993819382 -0.57831173267327
 6 -3.43018768866887 -1.50099206450645 -1.72185946934693
 6  3.05003606680668 -0.63026377467747 -1.68084198309831
 6 -1.19753832603260 -0.59328318531853  3.94907041534153
 6 -5.79929515361536 -2.06847332763276  1.24900590619062
 6  2.56903656055606  0.40133750195020 -2.45496010601060
 6  1.94870430283028  1.10324601660166  2.74696133773377
 6  1.37802116861686  0.82166881548155 -1.71715782178218
 6  4.28518386748675 -1.55272470157016 -1.93781341144114
 6 -5.89438377447745 -2.37833992439244 -2.07491093929393
 6  5.42758830983098 -1.00630237543754 -1.31939535643564
 6  3.12124221962196  1.14554295689569 -3.52651916111611
 6  0.59272169626963  2.00520566746675 -1.93180492559256
 6  3.11835047534753  1.77212679817982  3.35315066026603
 6 -0.49566339793979  2.27831246344634 -1.19569485738574
 6 -6.87012093859386 -3.14058782288229 -1.71940049874987
 6  6.63902347194719 -1.92070032513251 -1.37347803780378
 6 -1.54604325912591  3.45371760496050 -1.27726580128013
 6 -2.40422451185119  3.34757523652365 -0.23492139833983
 6 -2.02931520392039  2.06874780828083  0.52825175717572
 6 -1.32169214761476  4.53220948114811 -2.28032980098010
 6 -3.41134177067707  4.29422990589059  0.19420366006601
 6 -1.91670556175618  5.74101952015202 -2.38687242004200
 1 -3.44055254845485 -0.51328681858186  1.28163236783678
 1 -2.93132475887589 -3.40073519851985  1.38546889598960
 1 -3.16528634843484 -2.30229367376738  2.63091247994799
 1 -0.46415171997200 -2.75103386848685 -0.12621561156116
 1 -1.93102149184918 -0.31402770627063 -0.64327843024302
 1  1.78927688908891 -0.17711916571657  4.17575967506751
 1  2.79890722362236 -0.94879677097710  2.94929985938594
 1  2.88371718561856 -2.44296587948795  0.41219427262726
 1 -1.77784041334133 -1.25215448944895  4.62392945474547
 1 -0.46821658965897 -0.12832703630363  4.58508486498650
 1 -1.79003831763176  0.27360980768077  3.62300106540654
 1 -5.27907869506951 -1.37957608880888  2.12458675167517
 1 -6.04141290199020 -3.20276438103810  1.35144799109911
 1 -6.80801817861786 -1.53351899529953  1.00306666836684
 1  2.00106624602460  1.32853279517952  1.68931654295430
 1  0.96395634713471  1.63265550985098  3.04135210891089
 1  0.01748000560056  0.04200857065707 -0.22246427872787
 1  4.47811353055306 -1.60630368936894 -2.99378498039804
 1  3.95907673747375 -2.61929370857086 -1.58395550355035
 1 -5.62496463486349 -2.20873179777978 -3.17607107090709
 1  5.14280220152015 -0.87298777867787 -0.26648342464246
 1  5.77336877817782 -0.02629962606261 -1.71335581808181
 1  3.88008792029203  0.79571606370637 -4.00810904040404
 1  3.45693144474448  2.20318139683968 -3.39000133553355
 1  2.38756454575458  1.06100059795980 -4.31882503450345
 1  0.66950086008601  2.56310780728073 -2.77331822382238
 1 -6.92604169026903 -3.56183836773677 -0.61595061626163
 1 -7.55857412231223 -3.47103843434343 -2.51346439993999
 1  3.47948167566757  3.48247760876088  3.93464671887189
 1 -0.71908578737874  4.24485576507651 -3.10829872527253
 1 -4.15516410601060  4.51486806860686 -0.57684883638364
 1 -3.87765651535153  3.97488228182818  1.31415222662266
 1 -2.89846816301630  5.28169846094609  0.21860763066307
 1  8.37164285778578 -2.00540369456946 -1.07577821282128
 1 -1.71450437503750  6.56101655875588 -3.08766361856186
 1 -2.74391674457446  5.78206958275828 -1.54226013351335

