%nproc=4
%Mem=4GB
# td=(NStates=1) B3LYP/SVP 

TD

0 1
 8 -5.42305853585359  0.01455689528953 -3.30220000970097
 8  3.13308331383138  2.89285654035403  3.13203928232823
 8  3.27801615021502  0.71352675167517  3.11201308640864
 8  1.72941058055806 -7.15139140924092  1.39050755705571
 8  0.59612450045005 -6.97461388498850 -0.54826280918092
 8  1.74276132423242  3.93465658845885  0.10254976237624
 7 -2.34230384148415 -0.82739116931693  0.61907892449245
 7 -4.35247012841284  0.62673033953395 -1.19671802660266
 7  1.81000139173917 -0.68355992899290 -0.44690316791679
 7  2.58760430233023  1.80227597309731 -0.50698744544454
 6 -4.79622601380138  1.19079057605761 -0.01954615481548
 6 -4.40918831163116  0.43052321762176  1.31047840554055
 6 -2.97567266286629  0.13003326002600  1.29797181018102
 6 -2.00371946864686  0.63853881108111  2.20940411001100
 6 -0.71358796909691  0.10782534703470  1.83270394799480
 6 -0.98533272107211 -0.88666172507251  0.85889770917092
 6 -6.34957731383138  1.30318810811081 -0.14402961836184
 6  0.59200780738074  0.30777145364536  2.47862688278828
 6 -6.70659117361736  0.80451970037004 -1.43810953965397
 6 -0.15687194329433 -1.89807854475448  0.20044212571257
 6  1.11040793699370 -1.84156370297030 -0.30745232743274
 6 -5.44699529982998  0.35444365906591 -2.11421873337334
 6  1.96847093229323 -2.94636517491749 -0.90728773807381
 6 -2.11562726362636  1.79753551045104  3.18286267646765
 6 -7.27368486168617  1.85899402860286  0.92899688558856
 6  3.10695702940294 -2.35755570677068 -1.30077132223222
 6  1.17512353965397  1.71317981138114  2.57650128602860
 6  3.05162323762376 -0.90130875647565 -1.05917990619062
 6  1.58776254645465 -4.38862482688269 -1.02154387128713
 6 -7.98177408340834  0.72702434003400 -2.05203359115912
 6  1.76087365296530 -5.05249618421842  0.36700269576958
 6  4.35880148914892 -2.93299176797680 -1.98025725702570
 6  3.93792466306631 -0.01335193169317 -1.35071975437544
 6  2.64624524572457  1.70099768796880  2.95278117801780
 6  3.73795817361736  1.38941435293529 -1.16184275157516
 6 -9.18311329472947  0.67779994029403 -1.39967478277828
 6  1.28322338703870 -6.45920257045705  0.31859051805180
 6  4.58193702830283  2.61384813971397 -1.50398748184818
 6  3.88762803120312  3.70122064576458 -1.00294158845885
 6  2.62694426522652  3.25638348944894 -0.41675043774377
 6  5.89311291659166  2.43545838643864 -2.06754870997100
 6  4.35201082088209  5.08520339613961 -0.94222623602360
 6  6.63532358995900  3.47940362516252 -2.54101857875788
 1 -4.38632311841184  2.27894897499750  0.27391043134313
 1 -4.96281093799380 -0.42770424652465  1.18680342454245
 1 -4.67144398429843  1.04460846054605  2.18844575427543
 1 -2.77572661256126 -1.35201259675968 -0.17241416321632
 1 -3.35499649694970  0.53293521062106 -1.46925447634763
 1  0.44840927562756  0.05114542654265  3.53431297939794
 1  1.34723873327333 -0.56278094549455  2.35691082388239
 1 -0.69132779367937 -2.89261672667267 -0.02463746144614
 1 -3.23818396369637  2.02180344444444  3.43371336103610
 1 -1.66480769586959  1.62395175907591  4.09951833973397
 1 -1.49386576767677  2.57445126492649  2.69112653445345
 1 -6.66951040194019  2.33804260776078  1.62991522452245
 1 -7.60896066306631  0.92793260246025  1.60397740844084
 1 -8.08763470067007  2.48373445654565  0.40483896409641
 1  1.07688039643964  2.29052108870887  1.44643271057106
 1  0.64127724022402  2.53263008500850  3.21691751595159
 1  1.68361268766877  0.45101574657466 -0.42772813811381
 1  2.06880467266727 -4.94784861526153 -1.75247985768577
 1  0.41744354185419 -4.42787263476348 -1.35988447184718
 1 -8.05387644944494  0.70751098169817 -2.94710064826483
 1  1.07862005090509 -4.52840402010201  1.06569414601460
 1  2.91609787988799 -5.09645685018502  0.76451426632663
 1  4.26949201150115 -4.06201365356536 -2.16785024612461
 1  5.24935603400340 -2.75521437163716 -1.42135575317532
 1  4.51295272837284 -2.43162539513951 -3.05946502010201
 1  4.97970759025903 -0.12238433293329 -1.94500067576758
 1 -9.21593519401940  0.72024948044805 -0.32099478927893
 1 -10.22394052765277  0.73784520022002 -1.88563466346635
 1  4.15377006350635  2.95382876657666  3.63504827052705
 1  6.27175064326433  1.40536268546855 -1.99662847784778
 1  5.35023572337234  5.34853761796180 -0.52633125302530
 1  4.32967498999900  5.48312507820782 -2.01599414431443
 1  3.53792146174617  5.73111271767177 -0.60316205780578
 1  1.35366267436744 -7.99945110221022  1.33080913581358
 1  7.60954339873987  3.24694023392339 -2.66848412171217
 1  6.44689657715772  4.59755526772677 -2.66229858235824

