%nproc=4
%Mem=3GB
# td=(NStates=1) B3LYP/SVP 

TD

0 1
 8 -3.16390330053005 -1.30468552405241 -2.83833448774877
 8  3.06321677647765  3.15919757825783  3.16167043794379
 8  3.65617992619262  1.32671980028003  4.29444388798880
 8  7.59714831773177 -1.35173128732873 -0.65070583238324
 8  6.60172432883288 -3.21024181908191 -1.70508695679568
 8 -2.60585149164916  1.66161165026503  1.43287334783478
 7 -0.34972071827183 -2.32588890319032  0.90295513631363
 7 -2.64144618261826 -1.13730886588659 -0.50662280688069
 7  1.24587613701370  0.07032794249425 -0.75274021122112
 7 -1.04890403590359  1.49816522442244 -0.33945484338434
 6 -3.38117326702670 -1.30418798119812  0.66895386928693
 6 -2.67307593369337 -2.34072821902190  1.64227953475348
 6 -1.25244088578858 -1.99749756375638  1.82224021262126
 6 -0.49606940924092 -1.33208440014001  2.88328634913491
 6  0.91161227382738 -1.21647664866487  2.49284047864787
 6  1.00503318951895 -1.87278371307131  1.18541334533453
 6 -4.74990993759376 -1.94734038273827  0.26388327562756
 6  1.93204779617962 -0.36941727132713  3.07174932943294
 6 -4.72411877327733 -1.99181789018902 -1.12342268276828
 6  2.14582253865387 -1.90885907810781  0.16772905160516
 6  2.20747676957696 -0.89747165936594 -0.68508240974097
 6 -3.48632330223022 -1.45700766606661 -1.68705598899890
 6  2.98212927612761 -0.69628037633763 -1.88667256615662
 6 -1.16782535473547 -0.67002085908591  4.00216572487249
 6 -5.85180040414041 -2.11634811511151  1.26985799139914
 6  2.47732738963896  0.44849221742174 -2.54776938693869
 6  1.75587501990199  1.11820751275128  2.90554719631963
 6  1.36749011551155  0.98491514011401 -1.85151125712571
 6  4.23157850695069 -1.50683011211121 -2.23097272737274
 6 -5.83252758885889 -2.45893798419842 -2.00346379457946
 6  5.33973952495250 -1.18839058425843 -1.26315973287329
 6  3.09949004440444  1.12421082368237 -3.69559606880688
 6  0.47236966106611  1.98952409930993 -2.09525127022702
 6  2.86891553185319  1.96376596209621  3.52913825902590
 6 -0.68645247684768  2.29769440164016 -1.34020930883088
 6 -6.77993191969197 -3.41214497859786 -1.64601316001600
 6  6.52905247484748 -2.01886014111411 -1.29424011401140
 6 -1.39655831063106  3.52487472067207 -1.28924699939994
 6 -2.22390648004800  3.40236071507151 -0.13320122632263
 6 -2.01117338973897  2.15702663616362  0.41722065406541
 6 -1.17423740214021  4.62272853305331 -2.16158792679268
 6 -3.29772040854085  4.27932841574157  0.33376761646165
 6 -1.97689158035804  5.79685510371037 -2.27237096989699
 1 -3.60838933213321 -0.28357384728473  1.32079628422842
 1 -2.88113974037404 -3.36601172617262  1.11435178427843
 1 -3.23150297009701 -2.47251069546955  2.63416280498050
 1 -0.58518382318232 -2.73028179327933 -0.04764775477548
 1 -2.04826321602160 -0.26123242674267 -0.58687278967897
 1  2.06527448884888 -0.91991344514451  4.22824492359236
 1  2.92168950185018 -0.57932982428243  2.63334826422642
 1  2.80490930483048 -2.78312989588959  0.23235628882888
 1 -1.68942157145715 -1.23203247724772  4.58690575237524
 1 -0.51816158415842 -0.46802100570057  4.82904926142614
 1 -1.86255556935694  0.14477692439244  3.47790655595560
 1 -5.88145893309331 -1.50855898709871  2.23193748674867
 1 -5.79773853455346 -3.08531263586359  1.77706055235523
 1 -6.69323670047005 -2.05083072647265  0.87260362206221
 1  1.45104124352435  1.30426036793679  1.69488710001000
 1  0.75837578907891  1.29404164846485  3.44287226092609
 1  0.33089134673467  0.24181855165517 -0.27735976827683
 1  4.65762148134814 -1.14646770577058 -3.16741234313431
 1  4.11723255305531 -2.61508328752875 -2.10198730673067
 1 -5.83607574597460 -2.01061198579858 -3.08082154595460
 1  4.93586150745075 -1.37704818471847 -0.16001277757776
 1  5.74130557185719 -0.07927492359236 -1.33422790529053
 1  4.01359127062706  0.56551304340434 -4.32656088558856
 1  3.43685943754375  2.11615269396940 -3.44464680008001
 1  2.30475626492649  1.34609910781078 -4.37165031703170
 1  0.73754766476648  2.74260575707571 -3.02323321532153
 1 -7.08718780488049 -3.85900808470847 -0.49995901710171
 1 -7.45310357525753 -3.80969229972997 -2.51206425992599
 1  3.60343407090709  3.54099346034603  3.72825607980798
 1 -0.65708958775878  4.59526080558056 -3.18554645004500
 1 -4.20980957055706  4.23727030883088 -0.37332848434843
 1 -3.54106285598560  3.83006780038004  1.44955576697670
 1 -3.19929824602460  5.63005329642964  0.40785655555556
 1  8.31855754925493 -2.17596075027503 -0.68148878387839
 1 -1.76118904350435  6.39391984908491 -3.20432528472847
 1 -2.82679503240324  6.24515589138914 -1.70072598009801

