%nproc=4
%Mem=3GB
# td=(NStates=1) B3LYP/SVP 

TD

0 1
 8 -3.31292820302030 -1.05396045154515 -2.81734238853885
 8  3.15649610441044  3.14603626212621  3.10813508440844
 8  3.75411972017202  1.40615774407441  4.36202064566457
 8  7.67869647254725 -1.69458557275728 -0.56773753555356
 8  6.65541969836984 -2.95167596249625 -2.11742819091909
 8 -2.71068197469747  1.61350683978398  1.43265332583258
 7 -0.25042078827883 -2.42137845214521  0.92935777657766
 7 -2.62644468246825 -1.04783991899190 -0.56292843744374
 7  1.16460801020102  0.07129803950395 -0.66553149034904
 7 -1.06129527502750  1.44155956385639 -0.19657055495550
 6 -3.36135128482848 -1.35320288268827  0.67143411731173
 6 -2.60009863596360 -2.36956110231023  1.63171847864786
 6 -1.15474111581158 -2.10393820782078  1.79161715031503
 6 -0.48646844914491 -1.31738292999300  2.92253027352735
 6  0.76348746134613 -1.14256925792579  2.51584277887789
 6  0.98724141034103 -1.90248668336834  1.28809361336134
 6 -4.71863681028103 -1.83840948964896  0.27920480778078
 6  1.85614020542054 -0.41672200180018  3.28180033453345
 6 -4.73435979737974 -1.89788849724972 -1.07896823732373
 6  1.98165612201220 -1.83971216341634  0.37726000470047
 6  2.11327734963496 -0.90056196839684 -0.69113301480148
 6 -3.50344501440144 -1.32813477877788 -1.63874115751575
 6  2.99677074027403 -0.66043679197920 -1.71176507540754
 6 -1.24370294249425 -0.48036189318932  4.01396690499050
 6 -5.68531375547555 -2.32725920622062  1.23284429002900
 6  2.41778143504350  0.36921428962896 -2.59478408840884
 6  2.05200463286329  1.07330302230223  2.81509815141514
 6  1.35234860136014  0.94429107770777 -1.84964107010701
 6  4.19324467356736 -1.49701913101310 -2.08382801290129
 6 -5.71863619971997 -2.42438452885289 -2.03255670387039
 6  5.36593214421442 -1.10184192939294 -1.11234465136514
 6  3.01007110251025  0.94792319491949 -3.86800330953095
 6  0.36462888698870  1.99231437833783 -2.07429917501750
 6  3.06252489278928  1.89701928742874  3.42671801700170
 6 -0.61307513911391  2.26598123032303 -1.19958524642464
 6 -6.73136706320632 -3.30751451555156 -1.86947550625063
 6  6.68368793839384 -1.97507576267627 -1.31898258825883
 6 -1.49700835563556  3.48515074827483 -1.26401447614761
 6 -2.48328241764176  3.31126160516052 -0.21374928112811
 6 -2.12369464186419  2.02061299479948  0.45233416541654
 6 -1.17434741314131  4.63351961216122 -2.23026479447945
 6 -3.59484012051205  4.26485696859686  0.13771801150115
 6 -1.78045193639364  5.80400581878188 -2.25412914571457
 1 -3.22001049424942 -0.31809729962996  0.97535173977398
 1 -2.71916354275427 -3.37964308930893  1.02074242334233
 1 -3.33936375617562 -2.42831627602760  2.55199458815882
 1 -0.38288359315932 -2.88563732883288  0.01141815181518
 1 -2.22348073777378 -0.09433573707371 -0.37546164856486
 1  1.59004696609661 -0.43926538033803  4.42542464156416
 1  2.85841317421742 -0.81002289358936  2.98381331073107
 1  2.81296010991099 -2.52866444934493  0.41786483968397
 1 -2.21223385268527 -1.15481475547555  4.28781584338434
 1 -0.60581034903490 -0.34981918551855  4.95021137763776
 1 -1.65025433923392  0.48312075877588  3.40655942124212
 1 -5.69279006620662 -1.63431156235624  2.21181547454746
 1 -5.61127988868887 -3.29041314591459  1.43230607690769
 1 -6.73970134693469 -2.34707035043504  0.92003836553655
 1  2.24020015941594  0.95897583948395  1.69127673897390
 1  0.99951990349035  1.61718396269627  3.07700567426743
 1  0.26232449004900  0.29035340514051 -0.18924095639564
 1  4.42091781098110 -1.39955301430143 -3.11162676457646
 1  4.08901973177318 -2.63004478367837 -1.82297940594059
 1 -5.47865000340034 -2.05367629222922 -3.15714917871787
 1  4.76863478477848 -1.06239671957196 -0.07233400970097
 1  5.45507694899490 -0.03092008810881 -1.26885136763676
 1  3.70106001750175  0.40015650775078 -4.05993422292229
 1  3.47274302590259  1.87470854955496 -3.71585392079208
 1  2.27374316361636  0.94380887878788 -4.63167631963196
 1  0.72787669766977  2.54676617311731 -2.86666755875587
 1 -6.84909399549955 -3.77478966286629 -0.93171219241924
 1 -7.44430269516952 -3.59572090259026 -2.52282533603360
 1  4.03774750225022  3.46085544654465  3.49275252945295
 1 -0.52602648144815  4.57276855635564 -2.96488438383838
 1 -4.30600919051905  3.82435901770177 -0.76899805130513
 1 -4.22450119981998  3.88714350795080  1.02013282468247
 1 -3.35871418761876  5.45162545364536  0.03353912381238
 1  8.35245093859386 -2.20239339353935 -0.71625226022602
 1 -1.63098602320232  6.62885334243424 -2.85619047124712
 1 -2.68368072097210  6.03147452325233 -1.82200810831083

