%nproc=4
%Mem=4GB
# td=(NStates=1) B3LYP/SVP 

TD

0 1
 8 -5.33091932193219 -0.11835639603960 -3.28789857955796
 8  3.19172917841784  2.82044929962996  3.33515959435944
 8  3.32399074767477  0.52202760176018  2.84207609270927
 8  1.56187382688269 -7.17451372147215  1.53249175547555
 8  1.16625151315132 -7.26548297189719 -0.82008999189919
 8  1.80774782288229  4.02314543734373  0.14242374977498
 7 -2.35803541464146 -0.80937936813681  0.66766378297830
 7 -4.32282716411641  0.45909357585759 -1.33624197899790
 7  1.77121751335134 -0.67100867386739 -0.38894737233723
 7  2.49148469036904  1.94430017551755 -0.61898864556456
 6 -4.64836122732273  1.18312980998100 -0.14260846104610
 6 -4.42848024082408  0.44845501080108  1.18616597429743
 6 -2.92952804840484  0.16426668336834  1.36641865486549
 6 -1.96279537623762  0.75733069026903  2.25327849744974
 6 -0.72055866616662  0.03804836933693  1.94282496009601
 6 -0.99724391219122 -0.86929998889889  0.85711753115312
 6 -6.19403175927593  1.38903669296930 -0.25260047544754
 6  0.55026363296330  0.27399807630763  2.64070309040904
 6 -6.60781129562956  0.76428567696770 -1.36271199989999
 6 -0.19940619671967 -1.88854759165917  0.35858794029403
 6  1.06578347454746 -1.73474302090209 -0.28121970417042
 6 -5.38933953425343  0.16680489518952 -2.18585589708971
 6  1.80757484268427 -2.82998353675368 -0.88102511181118
 6 -2.10805650655066  1.90153591049105  3.13200759095910
 6 -6.98605609880988  2.27659578877888  0.72335632153215
 6  2.98361469516952 -2.39705965716572 -1.27701894699470
 6  1.12221824912491  1.68902739613961  2.72362599849985
 6  3.00391846714671 -0.97144577017702 -1.03043703190319
 6  1.41706547674767 -4.32115808020802 -0.96744846174617
 6 -8.00266617261726  0.54975661326133 -1.94057244504450
 6  1.57368493409341 -5.02899383398340  0.40237623312331
 6  4.17741335033503 -2.97198566736674 -1.99687891919192
 6  3.84853572417242  0.05102450595060 -1.31626630903090
 6  2.65538615981598  1.59401698989899  3.01469736963696
 6  3.61528590639064  1.48941435293529 -1.11732830013001
 6 -9.20740572397240  0.73638579887989 -1.30236505180518
 6  1.45686075077508 -6.59932658285829  0.23094175317532
 6  4.55697453205321  2.58613536843684 -1.47383446654665
 6  3.90038930733073  3.77805832953295 -1.04880617491749
 6  2.59866143694369  3.39547739883988 -0.38554731743174
 6  5.68824242954295  2.47828266886689 -2.22185414051405
 6  4.31124674447445  5.18135301110111 -0.90605261866187
 6  6.57376743434343  3.47149283408341 -2.65239971687169
 1 -4.09511399749975  2.12854393449345 -0.12712967266727
 1 -5.11323598049805 -0.45874735083508  1.11040578477848
 1 -4.71064790469047  1.10624462416242  2.03149005870587
 1 -2.93654269416942 -1.48849624512451  0.12946602480248
 1 -3.36154715201520  0.88035995309531 -1.83216076697670
 1  0.61498593329333 -0.23043273127313  3.74746429452945
 1  1.31692570197020 -0.24620928832883  2.01030616341634
 1 -0.59916857775778 -2.97918538353835  0.25207020932093
 1 -3.12609275457546  2.08058932303230  3.59697968766877
 1 -1.60473168826883  1.64491385528553  4.00381876977698
 1 -1.73454983608361  2.97052087188719  2.88385580738074
 1 -6.42044549544955  3.16625542904290  1.19645187818782
 1 -7.69362912991299  1.65516532573257  1.35980299099910
 1 -7.80903684088409  3.04724080718072  0.36452493269327
 1  1.04965767416742  2.02248428502850  1.77252531983198
 1  0.47201031353135  2.37895471747175  3.51781760596060
 1  1.65269959635964  0.40387103210321 -0.05868123342334
 1  2.02174996719672 -4.99402323272327 -1.82326693639364
 1  0.47660945844584 -4.45608545604560 -1.26841532493249
 1 -7.75424648644865  0.20945117571757 -3.03171911011101
 1  0.87521971087109 -4.70473165286529  1.21056863346335
 1  2.72914918501850 -4.79653685818582  0.65263307820782
 1  3.89665472777278 -4.11329878207821 -2.07189065016502
 1  4.91698279667967 -3.05980483068307 -1.15735935353535
 1  4.59382081518152 -2.36889912251225 -2.89337841144114
 1  4.66525614511451 -0.20714280878088 -1.81329750545054
 1 -9.28721232173217  0.97201465696570 -0.17535022482248
 1 -10.05321345494549  0.29374078977898 -1.89938603860386
 1  4.08066275277528  2.72390577427743  3.40600536623662
 1  6.00221368956896  1.47122927212721 -2.60842965796580
 1  5.36857755755575  5.34477724192419 -0.30584920482048
 1  4.50227224972497  5.76453321902190 -1.79453199809981
 1  3.46944461406141  5.84765437183718 -0.28471021262126
 1  1.33935124322432 -8.10208136523652  1.27938399329933
 1  7.36331877627763  3.07745328522852 -3.38994626792679
 1  6.69918180568057  4.48160367256726 -2.16442879537954

