%nproc=4
%Mem=4GB
# td=(NStates=1) B3LYP/SVP 

TD

0 1
 8 -5.30132636263626  0.00939637923792 -3.28233802350235
 8  3.01364136963696  2.88853610831083  3.03023910231023
 8  3.38242659125913  0.71595699469947  2.67302918801880
 8  1.45455309480948 -7.21194746484648  1.36663516981698
 8  0.31864675267527 -6.92232865646565 -0.48396637953795
 8  1.65126217431743  3.97549067186719 -0.04316480908091
 7 -2.28973858495850 -0.90005843604360  0.67404442104210
 7 -4.31595647704771  0.53780144664466 -1.23368172297230
 7  1.89408980058006 -0.68786035903590 -0.31175965356536
 7  2.57686322822282  1.95439118461846 -0.59325607230723
 6 -4.81375776697670  1.11689318631863 -0.03957815801580
 6 -4.33850124292429  0.32646281158116  1.25785314301430
 6 -2.86160125572557 -0.02120186348635  1.39205121812181
 6 -1.87436653335334  0.64203916111611  2.08206137573757
 6 -0.62021863216322  0.05450001450145  1.90185086268627
 6 -0.91437562536254 -0.94926798569857  0.96411823122312
 6 -6.27925028112811  1.24355214451445 -0.11837705310531
 6  0.58260686728673  0.21496217271727  2.65647466756676
 6 -6.70680119461946  0.75437468586859 -1.31887761646165
 6 -0.19131538763876 -1.92722145904590  0.20947302880288
 6  1.04106100230023 -1.81451099769977 -0.20042162436244
 6 -5.40784138443844  0.45812402710271 -2.10167747924792
 6  1.86546063126313 -2.86452699109911 -0.88553556285629
 6 -2.16491219211921  1.73324908180818  3.17331172137214
 6 -7.10967846104611  1.86245437463746  0.85721970787079
 6  3.10916725042504 -2.25363531473147 -1.28544979007901
 6  1.11589761706171  1.61249974337434  2.50285392129213
 6  3.13752182748275 -0.88627725332533 -0.92283627182718
 6  1.57631140134013 -4.26941290569057 -0.96154787168717
 6 -7.96870277627763  0.63928556615662 -2.03209159695970
 6  1.79626719231923 -5.08373930853085  0.34036003150315
 6  4.18792440144014 -3.06354482328233 -1.96983621492149
 6  3.92403327392739  0.21931133463346 -1.30382506490649
 6  2.61443206440644  1.70089767796780  2.74215011491149
 6  3.76320069786979  1.55897130863086 -1.04595116241624
 6 -9.14534951835184  0.60314247454745 -1.40524533983398
 6  1.12398746344634 -6.47132378257826  0.26989564856486
 6  4.68076691129113  2.68701545644564 -1.37348443154315
 6  3.90990025842584  3.80521104480448 -1.08187948224822
 6  2.57095866666667  3.35253310441044 -0.47218598129813
 6  5.91718532383238  2.50916575717572 -2.11607356245625
 6  4.37336295609561  5.35031990779078 -0.99156116951695
 6  6.85529558715872  3.44209989478948 -2.31147562446245
 1 -4.60430491659166  2.16049712981298  0.20221326162616
 1 -4.83222787968797 -0.79374085018502  1.15769051325133
 1 -4.77280412031203  0.92843684338434  2.05934284398440
 1 -2.76943598349835 -1.48721611711171  0.10765384358436
 1 -3.51330232753275  0.48481039813981 -1.66953450435043
 1  0.52569700440044 -0.18680836883688  3.69909945804580
 1  1.34949895929593 -0.55273994139414  2.16600173297330
 1 -0.51701036193619 -3.16578404340434  0.19981498379838
 1 -3.22783292859286  1.68807007110711  3.33636362606261
 1 -1.58919013411341  1.55820518441844  4.03578196609661
 1 -2.04953133423342  2.74783860366037  2.71384880668067
 1 -6.57329077997800  2.76276508000800  1.44863709670967
 1 -7.49920968796880  1.20965077427743  1.71656866756676
 1 -8.04412034923492  2.37578366146615  0.64643312351235
 1  0.92903561196120  2.08328036463646  1.62303037033703
 1  0.55786889938994  2.17966478847885  3.11990781498150
 1  1.81017534393439  0.21517216221622  0.24613924862486
 1  2.11627942014201 -4.83842767316732 -1.65129973967397
 1  0.59375117261726 -4.40048989648965 -1.25959444284428
 1 -7.92930399219922  0.04552478307831 -2.99636557475748
 1  1.49690187908791 -4.37969914961496  1.15469304590459
 1  2.77675394549455 -5.08553575807581  0.73510132503250
 1  3.60403546584658 -3.97903535573557 -2.74987844894489
 1  5.20069116751675 -3.73256210641064 -1.23689730733073
 1  4.79825125822582 -2.28562079467947 -2.56813588718872
 1  4.86543616311631 -0.28655074957496 -1.93406958265827
 1 -9.17825142564256  1.00219767526753 -0.24178686848685
 1 -10.18162629622962  0.63191460716072 -1.96036213621362
 1  4.04267895439544  2.75230861456146  2.84352911861186
 1  6.16829029722972  1.54679682888289 -2.29806862186219
 1  5.13592429222922  5.56453921812181 -0.19202782268227
 1  4.64113613611361  5.78751551725173 -2.01388393329333
 1  3.44860252985299  5.83159276567657 -0.64119586118612
 1  1.14019132723272 -8.09781093819382  1.24124017891789
 1  7.82386483088309  2.94474001390139 -2.76683395669567
 1  6.82147403490349  4.53633914611461 -2.02248460096010

