%nproc=4
%Mem=3GB
# td=(NStates=1) B3LYP/SVP 

TD

0 1
 8 -3.39010592079208 -1.41521657715772 -2.83008366266627
 8  2.89054950975098  3.14244590309031  3.13408767966797
 8  3.78486279447945  1.45422255055506  4.27507195079508
 8  7.87953655655566 -1.41779789398940 -0.85535629742974
 8  6.68236239263926 -2.95640643554355 -1.97875432353235
 8 -2.56605751225123  1.56736222532253  1.45200526102610
 7 -0.35793153935394 -2.40291660596060  0.89168400920092
 7 -2.73765580358036 -1.24931006600660 -0.62917506210621
 7  1.20822237163716  0.11519242894289 -0.73877881508151
 7 -0.86974612011201  1.53800920882088 -0.21413231113111
 6 -3.45396054575458 -1.44598216061606  0.61053802770277
 6 -2.73415204130413 -2.36898104430443  1.55174048084808
 6 -1.30579622132213 -2.08330614461446  1.81402939153915
 6 -0.65967576987699 -1.29224041574157  2.81357937843784
 6  0.75642675527553 -1.14196919791979  2.46790798539854
 6  0.86235892209221 -1.82078851355136  1.26172097609761
 6 -4.80157510411041 -1.90356600530053  0.25308219551955
 6  1.81648624002400 -0.48439876947695  3.23316547104710
 6 -4.89153551495149 -2.01986069446945 -1.10683102360236
 6  2.00152810921092 -1.92992118431843  0.26931921062106
 6  2.04597061896190 -0.98141005320532 -0.68871277277728
 6 -3.60173484338434 -1.52076404170417 -1.67371465486549
 6  3.08641970517052 -0.75496624492449 -1.82444634353435
 6 -1.34845341754175 -0.61573543054305  4.05783129142914
 6 -5.85995121922192 -2.11963844414441  1.24775578117812
 6  2.68132778967897  0.40788815701570 -2.46915152515252
 6  1.95965539793979  1.06031172317232  2.83552019361936
 6  1.55698906540654  1.03371001960196 -1.74018012401240
 6  4.24804015311531 -1.47738716781678 -1.98048767886789
 6 -5.97244158025803 -2.58488057845785 -1.89489293749375
 6  5.48065361636164 -0.96808855405541 -1.21084450135014
 6  3.28982907830783  1.05757416001600 -3.60175668486849
 6  0.69797222132213  2.12812795969597 -1.97921966706671
 6  2.98924756505651  1.80670025552555  3.45807115231523
 6 -0.49315314691469  2.38449308150815 -1.21293658155816
 6 -7.03382730923092 -3.23598736283628 -1.55059361806181
 6  6.71369093869387 -1.97130538563856 -1.36178686868687
 6 -1.33369202400240  3.57476971017102 -1.25266334103410
 6 -2.28620270967097  3.40322080108011 -0.17841574777478
 6 -2.02105437783778  2.13743467696770  0.48268720072007
 6 -1.20572055045505  4.60938719891989 -2.34242601060106
 6 -3.36862749924992  4.32402288518852  0.32955719541954
 6 -1.92977686888689  5.72273769196920 -2.42990672347235
 1 -3.27655614881488 -0.26951244114411  1.17796200080008
 1 -2.63420504690469 -3.23359848484848  0.73443379247925
 1 -3.16389620942094 -2.56073951835183  2.52112150085009
 1 -0.39618492329233 -3.06200496559656  0.00033704370437
 1 -2.15490388008801 -0.54676097959796 -0.70618472087209
 1  1.47375533693369 -0.58964041784178  4.19563166226623
 1  2.72888022092209 -0.84277616891689  3.10821575097510
 1  2.52714152805281 -2.88991057395740  0.21667472067207
 1 -2.02676530583058 -1.33984325832583  4.45292235403540
 1 -0.66159592759276 -0.29679388298830  4.77319367586759
 1 -2.00773008680868  0.08841128782878  3.71547031233123
 1 -5.37208799599960 -1.52536066726673  2.07123141614161
 1 -6.03922268296830 -3.27160126472647  1.56612945924592
 1 -6.91057843464346 -1.84052969636964  1.19981634333433
 1  1.96755289468947  1.34273421532153  1.75604321562156
 1  0.99712966446645  1.58997124142414  2.98197617131713
 1  0.18224648224822  0.56536090589059 -0.29828186048605
 1  4.36166188538854 -1.58316137513751 -3.01772737463746
 1  4.11283211301130 -2.54745652485248 -1.68314542254225
 1 -5.95742788118812 -2.32417334193419 -2.86234969876988
 1  5.16271419271927 -0.81373185308531 -0.05872264856486
 1  6.04602604390439  0.01865486938694 -1.75549003150315
 1  4.25286519801980  0.42254874697470 -4.03738196769677
 1  3.89379513111311  1.96428750745075 -3.31267360276028
 1  2.65768155745575  1.25712020992099 -4.68146129812981
 1  0.96906081608161  2.79523101960196 -2.69110000200020
 1 -7.41576066216622 -3.81267345124512 -0.60086910811081
 1 -7.69387765266527 -3.40175150565056 -2.42838589208921
 1  3.66777050455046  3.62461182218222  3.61824507870787
 1 -0.54335821462146  4.48279955945595 -3.13551144654465
 1 -4.13346193579358  4.42340892269227 -0.39097024852485
 1 -3.77565631533153  3.74313910751075  1.21397220862086
 1 -3.13101141734173  5.28837912901290  0.46535230513051
 1  8.46085177867787 -2.20438359255926 -1.08232886788679
 1 -1.75403832843284  6.45333579067907 -3.20521537373737
 1 -2.86094844774477  5.94101547734774 -1.86181208870887

