%nproc=4
%Mem=3GB
# td=(NStates=1) B3LYP/SVP 

TD

0 1
 8 -3.15256216641664 -1.40501555705571 -2.85492614691469
 8  2.97029748454846  3.17385904440444  3.29357362826283
 8  3.73284759295930  1.24170129842984  4.19601404500450
 8  7.76063466636664 -1.58011412561256 -1.00158091989199
 8  6.54912906930693 -3.12683347824782 -2.08394484258426
 8 -2.73877478397840  1.65760124922492  1.21983204370437
 7 -0.33096884308431 -2.40023633793379  1.01438627942794
 7 -2.69373141114111 -1.21091622662266 -0.55725787038704
 7  1.22548409780978  0.16105701540154 -0.71078601580158
 7 -0.85446459195920  1.47984339223922 -0.13583448134813
 6 -3.36152130183018 -1.33912147454745  0.67246422032203
 6 -2.67991661776178 -2.35476962316232  1.70535584238424
 6 -1.26354199589959 -1.97839565356536  1.83678166676668
 6 -0.61965176747675 -1.28634982668267  2.93557157765777
 6  0.74942605520552 -1.13862886388639  2.52208340294029
 6  0.87108979517952 -1.83353978867887  1.27056186018602
 6 -4.72520746734673 -1.85147079577958  0.26842372967297
 6  1.74182877427743 -0.25973630323032  3.20207236173617
 6 -4.74857121852185 -2.08342705110511 -1.11253159365937
 6  1.97253520992099 -1.94651284348435  0.26707898659866
 6  2.09880590249025 -0.83900581278128 -0.58142204370437
 6 -3.39820449034903 -1.54638660396040 -1.66983426682668
 6  3.03930499369937 -0.63017376567657 -1.68287218611861
 6 -1.43887245944594 -0.69158301530153  4.05788129642964
 6 -5.82743796789679 -2.10196667696770  1.23575458105811
 6  2.68234789168917  0.51866923512351 -2.44524913491349
 6  1.78328776117612  1.20631632363236  2.87527416901690
 6  1.38810217671767  1.00709735833583 -1.73996010201020
 6  4.19976532563256 -1.57367679677968 -2.06985661576158
 6 -5.82384672077208 -2.54536662706271 -1.91867531573157
 6  5.53933948494849 -1.09115086028603 -1.24172758965897
 6  3.28611870727073  1.08945734833483 -3.58943545274527
 6  0.59095151925193  2.09790493739374 -2.07690943604360
 6  3.03845248554856  1.86337592309231  3.50621596679668
 6 -0.54295812741274  2.31239587178718 -1.15764105200520
 6 -6.76451037753775 -3.43121688578858 -1.65184374307431
 6  6.67441701130113 -2.08344659975998 -1.51921261126113
 6 -1.43818247304730  3.50114234743474 -1.32447052175218
 6 -2.31430551995200  3.50887136613661 -0.34754266046605
 6 -2.12959523192319  2.14925585908591  0.35207413941394
 6 -1.29081906030603  4.65694195439544 -2.21278304630463
 6 -3.44518515501550  4.34907539043904  0.20153439313931
 6 -1.89783367456746  5.81987740594059 -2.18035176797680
 1 -3.38451694489449 -0.42165765566557  1.18146235083508
 1 -2.70437206360636 -3.37636276127613  1.27338768786879
 1 -3.13590341014101 -2.36250969536954  2.77204659335934
 1 -0.55245054985499 -3.04980374547455  0.06015302530253
 1 -2.04321271097110 -0.41544784828483 -0.89541364376438
 1  1.71930989238924 -0.42458391219122  4.34620671977198
 1  2.65883321622162 -0.91399329062906  2.74667959735974
 1  2.88414722862286 -2.61541312421242  0.37717077027703
 1 -2.01017364666467 -1.39860913491349  4.39202626442644
 1 -0.97224699269927  0.02205800220022  4.74234059055906
 1 -2.00742005580558  0.10572301900190  3.61480024532453
 1 -6.13548433563356 -1.17839597079708  1.84749904290429
 1 -5.58929769046905 -2.84643874847485  1.98536138243824
 1 -6.90461783858386 -2.47822346574657  0.77202356405641
 1  2.00414655405541  1.26878682058206  1.81594920622062
 1  1.06482643414341  1.79514175847585  3.03294126782678
 1  0.35644390199020  0.43514788458846 -0.09614164646465
 1  4.34789050825083 -1.55189824882488 -3.12897849974997
 1  3.90040086988699 -2.51879365856586 -1.74886199419942
 1 -6.04655679407941 -2.06587751235124 -2.96127959175918
 1  5.23902182348235 -1.10288076797680 -0.16053282958296
 1  5.91189263056306 -0.16039303540354 -1.69683416591659
 1  3.93781369286929  0.39841633373337 -4.09911814131413
 1  3.92578833043304  1.87778885758576 -3.27644998039804
 1  2.50899668896890  1.51711620952095 -4.34011716371637
 1  0.70982489248925  2.85550704720472 -2.81390228222822
 1 -6.79113819991999 -4.08529071297130 -0.68125714691469
 1 -7.74594285918592 -3.60778210871087 -2.36425947944795
 1  3.76975070257026  3.41203056405641  3.72727598179818
 1 -0.45733961276128  4.66182746224623 -2.97750564596460
 1 -4.24300288988899  4.37486406820682 -0.58354950645065
 1 -4.05423417311731  3.74744953855386  0.86203701510151
 1 -3.16524484068407  5.26991728282828  0.47367313721372
 1  8.32399809330933 -2.43889704390439 -1.05699633463346
 1 -1.69046197079708  6.65092554965497 -2.81717656985699
 1 -2.77030938383838  5.82492386818682 -1.43317922542254

