%nproc=4
%Mem=3GB
# td=(NStates=1) B3LYP/SVP 

TD

0 1
 8 -3.20686759695970 -1.11978703420342 -2.81180183448345
 8  2.85548600340034  3.16713837233723  2.91133540444044
 8  3.48371267946795  1.61096822512251  4.44551899549955
 8  7.74607321022102 -1.85592170637064 -0.66145690749075
 8  6.63875803220322 -3.01001179607961 -2.27525397349735
 8 -2.68807971447145  1.39353484258426  1.45131519201920
 7 -0.22172791899190 -2.54473078737874  0.94953979477948
 7 -2.59175121312131 -1.17833296829683 -0.61390353495350
 7  1.13405495489549  0.07861877157716 -0.76008094529453
 7 -1.01396054155416  1.36267167506751 -0.21187208510851
 6 -3.41541669136914 -1.27309487188719  0.66535350925093
 6 -2.59300792689269 -2.30425457165717  1.70316562336234
 6 -1.21261690339034 -2.12780059405941  1.86163415201520
 6 -0.56404620692069 -1.20826201790179  2.78798681918192
 6  0.89401051365137 -1.09583458445845  2.47811900650065
 6  0.95367805400540 -1.89753618831883  1.25683048704871
 6 -4.74309925652565 -1.82222787148715  0.24750163746375
 6  1.77556214761476 -0.32339266886689  3.12415456995700
 6 -4.78878523992399 -1.96848555695570 -1.17248758925893
 6  2.10804876127613 -1.90491868406841  0.32018429712971
 6  2.17909393129313 -0.88756066826683 -0.66504040554055
 6 -3.50486515641564 -1.41136310161016 -1.67408469186919
 6  3.09525058825883 -0.57398814711471 -1.73325722462246
 6 -1.27014558675868 -0.62445630263026  3.98392390069007
 6 -5.73976920102010 -2.12411889218922  1.32663366896690
 6  2.60556021292129  0.50809817801780 -2.45378998899890
 6  1.84395382778278  1.13400909290929  2.73399004060406
 6  1.34441780828083  0.91049769836984 -1.80682678867887
 6  4.33039838893889 -1.40204963406341 -2.01516114621462
 6 -5.88414275037504 -2.38802089248925 -1.93686713491349
 6  5.61010656165617 -1.22012375757576 -1.11714513141314
 6  3.28086818221822  1.16108451105111 -3.72365887508751
 6  0.47517994209421  1.98838398529853 -1.99848159325933
 6  2.82286092639264  1.99414900040004  3.50315566076608
 6 -0.61974580618062  2.27765239743974 -1.23632892079208
 6 -6.88615254175417 -3.16573033713371 -1.64931349004900
 6  6.69290886048605 -2.15538379347935 -1.41554224422442
 6 -1.39741839663966  3.52043427662766 -1.24731280598060
 6 -2.34543863326333  3.27343782278228 -0.15128303450345
 6 -2.01072334473447  1.91911284478448  0.51544047604760
 6 -1.36441642004200  4.52183844404440 -2.19655142314231
 6 -3.37906854335434  4.20642112501250  0.31521576127613
 6 -1.90712460366037  5.74970038823882 -2.28211194399440
 1 -3.42924141734173 -0.34580006990699  1.15469967456746
 1 -2.80556218261826 -3.32120724572457  1.15940628972897
 1 -3.26800662046205 -2.09165260966097  2.61916130483048
 1 -0.31654695949595 -3.09477824292429 -0.00325331533153
 1 -2.08221661136114 -0.18654495799580 -0.53560766316632
 1  1.50780874227423 -0.30314176797680  4.23943604270427
 1  2.94718205110511 -0.68559045034503  2.99779470887089
 1  2.97549636353635 -2.43759534243424  0.42375542874287
 1 -2.12960558985899 -1.25840511451145  4.44803186498650
 1 -0.63510327832783 -0.24036824042404  4.82469882638264
 1 -1.83102241604160  0.15559800650065  3.43992275757576
 1 -5.57408819601960 -1.41274940614061  2.15185947894790
 1 -5.87753651435143 -3.04542864746475  1.60691353765376
 1 -6.79493687048705 -1.66755239863986  0.90672703440344
 1  1.92359849924993  1.34658460036004  1.75746335763576
 1  0.75374532603260  1.48146039033903  2.79192716641664
 1  0.30480873847385  0.15745011481148 -0.04516654895490
 1  4.62550827002700 -1.35486854585459 -3.05102070397040
 1  4.16111694149415 -2.42217399659966 -1.95108221622162
 1 -5.84461660006001 -1.91080200480048 -2.96907037083708
 1  5.23099102040204 -1.27396787668767  0.01796502020202
 1  6.00232167346735 -0.20913790989099 -1.48684316681668
 1  3.88995890739074  0.43365985808581 -4.16965519501950
 1  3.61057680928093  2.24516559525953 -3.53773610901090
 1  2.49539532883288  1.29166366426643 -4.49701285328533
 1  0.73919782978298  2.93316481298130 -2.74536542854285
 1 -7.12739182528253 -3.58747093099310 -0.69770879207921
 1 -7.59430769566957 -3.43988531903190 -2.43687674117412
 1  3.45461918941894  3.75228458945895  3.32662591679168
 1 -0.92865674447445  4.13265454495450 -3.34548244364436
 1 -4.07083567316732  4.73955053685369 -0.49780093159316
 1 -3.86786553625363  3.54767956155616  1.03671448284828
 1 -3.02099041524152  4.92269256035604  1.05104087398740
 1  8.42312800630063 -2.48579173337334 -0.95688632363236
 1 -1.69500242484248  6.31202165926593 -3.18898375057506
 1 -2.61285363826383  6.13333470927093 -1.57079298679868

