%nproc=4
%Mem=3GB
# td=(NStates=1) B3LYP/SVP 

TD

0 1
 8 -3.32598950915092 -1.33021807730773 -2.84226488078808
 8  2.95825628042804  3.23209486798680  3.37292156305631
 8  3.84961927012701  1.34643177147715  4.23115755935594
 8  7.86085468836884 -1.62661877607761 -0.96407716951695
 8  6.52576673307331 -3.35693648854885 -1.80946739483948
 8 -2.57538844534453  1.68530401950195  1.52589264976498
 7 -0.18834458065807 -2.34406072037204  0.83408824962496
 7 -2.70669270727073 -1.10399553455346 -0.64352649724973
 7  1.11184273367337  0.07299820952095 -0.72936787398740
 7 -1.12228137363736  1.40244565246525 -0.30559145704570
 6 -3.42120727042704 -1.38616617901790  0.67941491539154
 6 -2.59271789788979 -2.46005015121512  1.57995330213021
 6 -1.13532917461746 -2.05521333533353  1.71210919951995
 6 -0.54465426772677 -1.23636482818282  2.83316133663366
 6  0.75844695729573 -1.12477747874787  2.49861105570557
 6  1.03661634783478 -1.86976341104110  1.25880068406841
 6 -4.72384733133313 -1.93333898259826  0.26860374767477
 6  1.82203679507951 -0.31440176977698  3.23241539603960
 6 -4.75279164056406 -2.05430413881388 -1.09831017151715
 6  2.18609656605661 -1.84781297349735  0.26047832653265
 6  2.17927394929493 -0.78755066726673 -0.58449235073507
 6 -3.46737140704070 -1.50951291659166 -1.66501378477848
 6  3.10409147234724 -0.55911665996600 -1.80137403630363
 6 -1.40089866206621 -0.58125198219822  3.80217572587259
 6 -5.80783600770077 -2.30181666196620  1.20743174877488
 6  2.50990064696470  0.51008837703770 -2.39837444744474
 6  1.82132156455646  1.23974966696670  2.93018966056606
 6  1.35180854735474  0.97970461906191 -1.72130823682368
 6  4.22952830193019 -1.49676910601060 -2.06792642274227
 6 -5.83395773187319 -2.51321341174117 -1.96797024522452
 6  5.57669322032203 -1.17736948214821 -1.24549796669667
 6  2.95292538793879  1.26787519011901 -3.62496900610061
 6  0.57302972707271  1.99422456935694 -2.03308505360536
 6  2.95784442474247  1.89061864736474  3.56200154535454
 6 -0.60990482208221  2.25334996719672 -1.30913620152015
 6 -6.88495242174217 -3.25150891499150 -1.63396195489549
 6  6.65387495709571 -2.15413366846685 -1.33842453245325
 6 -1.37668632343234  3.55713794699470 -1.17987606230623
 6 -2.33758784818482  3.47075755475548 -0.10243815001500
 6 -2.02232450485049  2.14625555905591  0.43886281828183
 6 -1.28159813821382  4.59219547974797 -2.26192796079608
 6 -3.40605124162416  4.40646112901290  0.28280251995200
 6 -1.95636952815282  5.70034545274527 -2.46362009480948
 1 -3.58657715091509 -0.50085557545755  1.16830103470347
 1 -2.66043767016702 -3.31675680068007  1.02658300740074
 1 -3.06328614841484 -2.53071651605160  2.54983437213721
 1 -0.23711901670167 -2.94871363646365 -0.02191518151815
 1 -2.12273066276628 -0.27637394089409 -0.60770487288729
 1  1.28993695509551 -0.62939439323932  4.20719281838184
 1  2.91128846174617 -0.95930782208221  2.97060198959896
 1  2.87470628452845 -2.65983756665667  0.21459451265127
 1 -2.01934456375638 -1.15243451745175  4.30386744854485
 1 -0.88821858985899 -0.08762296589659  4.54495085158516
 1 -1.89298861266127  0.32016446314631  3.30896966226623
 1 -5.93320410761076 -1.47764589578958  2.06253054605461
 1 -5.68437719841984 -3.18773287788779  1.74279712601260
 1 -6.78163554035404 -2.43562920632063  0.69790615231523
 1  1.87003314271427  1.26554649654966  1.80560817211721
 1  0.80320027152715  1.72872511681168  3.00228820252025
 1  0.29458771637164  0.29698406820682 -0.13047507980798
 1  4.53304902410241 -1.39155221422142 -3.19900550245025
 1  4.10149097889789 -2.59274105330533 -2.10569767776778
 1 -5.72683482188219 -2.19617054165417 -2.95004846864686
 1  5.25321324262426 -1.21592207210721 -0.39964674097410
 1  6.07597903920392 -0.32820981708171 -1.40958544104410
 1  4.36149606110611  1.34006049814981 -3.92951118061806
 1  2.70444619621962  2.56453753245325 -3.51798413381338
 1  2.26468225752575  0.75343984188419 -4.59741289328933
 1  0.84207811781178  2.77168866536654 -2.84803569556956
 1 -7.07425651175118 -3.73608579247925 -0.76349537073707
 1 -7.58952721762176 -3.50825215571557 -2.55805885938594
 1  3.52756648414841  3.57239660066007  4.01295454965496
 1 -0.57298117691769  4.22123340284028 -3.15685358075808
 1 -4.24609319891989  4.46985356715672 -0.62044319581958
 1 -3.92664141384138  4.29724451805181  1.22464327572757
 1 -3.16293460966097  5.42173246434643  0.45294106400640
 1  8.46594228772877 -2.60674382858286 -1.05160579557956
 1 -1.66269919451945  6.31450190729073 -3.35469032123212
 1 -2.95931828472847  6.01518289408941 -2.02748865636564

