%nproc=4
%Mem=4GB
# td=(NStates=1) B3LYP/SVP 

TD

0 1
 8 -5.25843207320732 -0.04803936433643 -3.21746153585359
 8  2.89062906840684  3.06677393209321  2.81911799019902
 8  3.36185453405341  0.84659005800580  2.88598048314831
 8  1.58313595309531 -7.14750102020202  1.49297780408041
 8  0.43180806880688 -6.96247267086709 -0.40990897379738
 8  1.76784383248325  4.05765888868887  0.00257976537654
 7 -2.40515012611261 -0.99867829802980  0.66096311291129
 7 -4.31885676707671  0.55596326282628 -1.10397875267527
 7  1.75912630423042 -0.66189776277628 -0.55886436403640
 7  2.60363590549055  1.99802554805481 -0.51714846154615
 6 -4.67987437863786  1.14333583058306  0.09195499529953
 6 -4.44255164796480  0.25207537283728  1.27944530223022
 6 -2.93798889448945 -0.08126787008701  1.37963997699770
 6 -1.93196229292929  0.57882283948395  2.11780495009501
 6 -0.69645625592559 -0.02830826632663  1.78770944854485
 6 -0.97983217101710 -0.95681874077408  0.82061388078808
 6 -6.29081143724372  1.28163595289529 -0.17756297169717
 6  0.60532913951395  0.12276295279528  2.56096511661166
 6 -6.57824833933393  0.75008425682568 -1.33882961166117
 6 -0.22000825692569 -1.97485622252225  0.12778485998600
 6  1.06423331953195 -1.79959950655065 -0.38218980118012
 6 -5.36356695699570  0.35501371607161 -2.08273558505851
 6  1.89890397559756 -2.85308584698470 -0.85443245254525
 6 -2.13285898679868  1.61057681458146  3.14575896609661
 6 -7.05683317651765  1.94966309550955  0.87115110101010
 6  3.12840917461746 -2.26850680188019 -1.40001124622462
 6  1.11007703500350  1.65424391779178  2.52154579047905
 6  3.03821189648965 -0.93719234483448 -1.08725271347135
 6  1.49233300350035 -4.27861382578258 -0.97677939483948
 6 -7.89282518851885  0.58919055665567 -1.94909329712971
 6  1.68791635723572 -5.13352428702870  0.35035103060306
 6  4.19125473447345 -2.97742621142114 -2.18582781408141
 6  3.91598246884688  0.11150055355536 -1.45239992239224
 6  2.51214183538354  1.73820140834083  2.74581048094809
 6  3.64124850265027  1.52982839433943 -1.02626919421942
 6 -9.14799978337834  0.85395755605561 -1.38900371567157
 6  1.16319138383838 -6.51989864006401  0.41183984298430
 6  4.62500133473347  2.62655941084108 -1.34856193929393
 6  4.05774504290429  3.80849137283728 -0.95236653095310
 6  2.75856742754275  3.40777862896290 -0.34398316101610
 6  5.91830543584358  2.45012985358536 -1.99304125922592
 6  4.39632525232523  5.20869574537454 -0.95634764816482
 6  6.82856291389139  3.46416210101010 -2.23059753665367
 1 -4.25727021312131  2.23217429752975  0.14703774407441
 1 -5.07494215111511 -0.67371884798480  1.30420516471647
 1 -4.74500134003400  0.71564556425643  2.10948785848585
 1 -2.82585162506251 -1.24801219671967 -0.28699562136214
 1 -3.41890288758876  0.85687760486049 -1.34227177807781
 1  0.26436087078708  0.06275658765877  3.61931147924793
 1  1.45390940034003 -0.70333500090009  2.33692882568257
 1 -0.58323698459846 -2.94601206620662 -0.23602860056006
 1 -3.12992313761376  1.79845110921092  3.44436442614261
 1 -1.61752296739674  1.49165852975297  4.05587397529753
 1 -1.60031641274127  2.59134295409541  2.74579200100010
 1 -6.60889434033403  2.74267307080708  1.45601783478348
 1 -7.31948171517152  1.27378718791879  1.74148115881588
 1 -7.85278121532153  2.41578766186619  0.32049052925293
 1  0.91513422182218  1.85909794639464  1.50912898019802
 1  0.51990510301030  2.24791161316132  3.20270609480948
 1  1.70744507090709  0.28573921892189 -0.22490785608561
 1  2.08267605980598 -4.91490532093209 -1.75153976367637
 1  0.49166096359636 -4.37511735923592 -1.31324980838084
 1 -7.55393645544554  0.20325055565557 -2.93963990219022
 1  1.46117830673067 -4.45858703840384  1.38071564816482
 1  2.76059232933293 -5.24316152065207  0.74353216811681
 1  4.09018408070807 -3.88895634783478 -2.74479794089409
 1  5.10369146754675 -3.17614646484648 -1.50932455005501
 1  4.54809624272427 -2.19994222682268 -2.90539961356136
 1  4.84672429192919 -0.28583067756776 -1.88257443314331
 1 -9.21654525502550  1.27035449094909 -0.37186987678768
 1 -10.15155328892889  0.58320973667367 -1.99101520152015
 1  3.95502018851885  3.06301968566857  2.95027979367937
 1  6.25646911511151  1.59153130233023 -2.35751456645665
 1  5.19843054285429  5.56346911111111 -0.27575619551955
 1  4.38991101360136  5.50323708940894 -2.08054059895990
 1  3.33884155375538  5.76122572897290 -0.75896763836384
 1  1.02095940404040 -8.08219937703770  1.38748480338034
 1  7.79759220362036  3.25564110401040 -2.79587686098610
 1  6.47276916441644  4.36335184738474 -1.88691104360436

