%nproc=4
%Mem=3GB
# td=(NStates=1) B3LYP/SVP 

TD

0 1
 8 -3.29606651685169 -1.35103015851585 -2.86332698699870
 8  2.86877733253325  3.22641429992999  3.22567683858386
 8  3.73383769196920  1.40419754805481  4.26676111971197
 8  7.61759036193619 -1.69532564676468 -0.55511627342734
 8  6.75253941034103 -2.99903069796980 -2.24604105220522
 8 -2.55538644514451  1.66811230033003  1.54379443994399
 7 -0.21089683588359 -2.41975829012901  0.95204004480448
 7 -2.46738877687769 -1.20733586858686 -0.60829297389739
 7  1.10911246064606  0.02917382708271 -0.69637457465747
 7 -1.07578672417242  1.41823723162316 -0.27301819971997
 6 -3.33014816451645 -1.40356791919192  0.64474144804480
 6 -2.59259788588859 -2.43153729992999  1.59320462726273
 6 -1.15148078977898 -2.12159997399740  1.84215220382038
 6 -0.54852465476548 -1.28939013071307  2.85695371587159
 6  0.81900301290129 -1.18971397239724  2.56839803440344
 6  0.99941262746275 -1.88712514721472  1.24599940394039
 6 -4.68020296689669 -1.96004165286529  0.22765965326533
 6  1.86625121652165 -0.38902923252325  3.07228938343834
 6 -4.78666502790279 -2.02092080048005 -1.08608894939494
 6  2.04204216061606 -1.84658285048505  0.34442672137214
 6  2.03060908280828 -0.89856176837684 -0.62063596509651
 6 -3.44775944584458 -1.46295826112611 -1.68021530493049
 6  2.97895895909591 -0.63662441074107 -1.75535943484348
 6 -1.20101867406741 -0.47554141114111  3.91990749904991
 6 -5.84523974807481 -2.09493597389739  1.28454946054605
 6  2.49529918681868  0.44028139633963 -2.44486909690969
 6  1.75474490689069  1.16090178217822  2.87373401500150
 6  1.30178354485449  0.88554520312031 -1.77381348734873
 6  4.16347169626963 -1.52505193429343 -1.99238886898690
 6 -5.84231856795680 -2.47129922032203 -2.04707815601560
 6  5.40017556855686 -1.17178892409241 -1.24715813271327
 6  3.19078917431743  1.18916731933193 -3.60518702790279
 6  0.45353777787779  1.96521166806681 -2.06092783788379
 6  2.93233187348735  1.94629421492149  3.51142648784879
 6 -0.66047987958796  2.30517514971497 -1.25374066196620
 6 -6.84657858435844 -3.16320008410841 -1.78488704740474
 6  6.65700527012701 -2.06174442954295 -1.45494618461846
 6 -1.46353500830083  3.54584681788179 -1.33266134083408
 6 -2.21286537593759  3.38556903590359 -0.14763266946695
 6 -1.92053432583258  2.03827476097610  0.47806673867387
 6 -1.33219319771977  4.53667992819282 -2.41499326732673
 6 -3.24197483398340  4.39542002490249  0.44171841154115
 6 -2.00735462666267  5.66586200440044 -2.36174990779078
 1 -3.23617211041104 -0.41310680058006  1.12137634223422
 1 -2.75336696309631 -3.26063118811881  1.07483783288329
 1 -3.20542036183618 -2.49326277067707  2.43387277597760
 1 -0.35640094489449 -2.90429919501950  0.00596760676068
 1 -1.85966435613561 -0.46275257875788 -0.77059116151615
 1  1.96234419581958 -0.29728118191819  4.31456355545555
 1  2.78004533743374 -0.77606949824982  2.73176810621062
 1  2.76594540844084 -2.64505608850885  0.10991404460446
 1 -2.11221385068507 -0.97562683668367  4.29880694249425
 1 -0.63447321532153  0.04656045244524  4.64108046454646
 1 -1.79201851565157  0.51888433513351  3.39569833513351
 1 -5.87119790699070 -1.40336846804680  2.07599189218922
 1 -6.02652141284128 -3.12116622122212  1.72589543584358
 1 -6.80006738353835 -1.80645628902890  0.63562992469247
 1  1.81794793419342  1.77483742564256  1.78701631293129
 1  0.81308125962596  1.55553779807981  2.85095306900690
 1  0.36135439303930  0.33165753555356 -0.00753278557856
 1  4.31591731093109 -1.35443850285028 -3.15241084298430
 1  3.88767959775978 -2.52342412161216 -1.80675778377838
 1 -5.48749088748875 -2.26265719031903 -3.06910037383738
 1  5.39153707500750 -1.15045552545254 -0.15206198249825
 1  5.82818425972597 -0.03686068216822 -1.35960044254425
 1  4.16973688518852  0.58343483558356 -3.78961719121912
 1  3.19283503510351  2.31469254795480 -3.18150048544854
 1  2.69364515381538  1.03568806670667 -4.50663381538154
 1  0.44894880488049  2.64929642614261 -2.87290818281828
 1 -7.37585667176718 -3.41287347124713 -0.70782980418042
 1 -7.57376564146415 -3.30021135163516 -2.67371042454245
 1  3.58762248974898  3.77014637563756  3.60008326252625
 1 -0.39210308910891  4.32102338183818 -3.14866276167617
 1 -4.07518610821082  4.94632121392139 -0.18246939843984
 1 -3.70988973867387  4.00105489908991  1.38738955035504
 1 -2.78130644684468  5.24304459555956  0.92400817071707
 1  8.37804349784979 -2.29897305150515 -0.83970460546055
 1 -1.73274619921992  6.53745420252025 -3.03623847604760
 1 -2.94894724762476  5.74186556235624 -1.69053496099610

