%nproc=4
%Mem=4GB
# td=(NStates=1) B3LYP/SVP 

TD

0 1
 8 -5.14448067806781  0.16841228082808 -3.35972576227623
 8  3.17115712121212  2.73971122582258  3.06671274967497
 8  3.22749109770977  0.41795719471947  3.13384526962696
 8  1.71182882238224 -7.16210248034803  1.59790829712971
 8  0.68253314131413 -7.05410183378338 -0.41141912481248
 8  1.82000904900490  4.06135925872587  0.15521502890289
 7 -2.41402101320132 -1.02044047424742  0.70033705030503
 7 -4.17424230563056  0.66133379987999 -1.24070242504250
 7  1.80406079767977 -0.67958953195320 -0.40897937553755
 7  2.49863540544054  1.94667041254125 -0.47281402810281
 6 -4.73562995419542  1.20910240724072  0.07052285208521
 6 -4.47714510731073  0.27596776207621  1.32753011071107
 6 -2.98143323892389 -0.06638638193819  1.43592560556056
 6 -2.00759985668567  0.57001195839584  2.26458962856286
 6 -0.80092670297030 -0.05163059855986  1.94946562416242
 6 -1.06025021282128 -1.07167022592259  0.99644146354635
 6 -6.19553190929093  1.39606739603960 -0.27031224662466
 6  0.53957256385639  0.20468114461446  2.51891091119112
 6 -6.45374588908891  0.89865911431143 -1.46895262396240
 6 -0.24680093619362 -2.05543428032803  0.27937001850185
 6  1.03599049524952 -1.81667121372137 -0.29770135233523
 6 -5.29849044934493  0.52705091979198 -2.17150446194619
 6  1.92256634183418 -2.90142068046805 -0.81535854515452
 6 -2.15290099099910  1.65500125702570  3.20462485268527
 6 -7.09649714291429  1.89542767196720  0.86604058995900
 6  3.07446378007801 -2.26061601280128 -1.32076332143214
 6  1.18490451775178  1.58467696109611  2.51457509340934
 6  2.97118519381938 -0.82274089968997 -1.02576656485649
 6  1.54886865706571 -4.41784774917492 -0.81028274517452
 6 -7.71225713171317  0.93721535913591 -2.17586597439744
 6  2.03792135773577 -5.18434936953695  0.37666366186619
 6  4.19535514451445 -2.98998746754675 -2.10625985728573
 6  3.79780065066507  0.12535193869387 -1.53114779717972
 6  2.61328194939494  1.54841242944294  2.89557545744574
 6  3.48933331113111  1.52606801830183 -1.17024359165917
 6 -8.96419140254025  1.04255641594159 -1.53102791809181
 6  1.41007607230723 -6.55978262846285  0.50885954495450
 6  4.43473230783078  2.70947770267027 -1.55266234933493
 6  3.82192146054605  3.80226074977498 -1.01643293759376
 6  2.58340991179118  3.33864171527153 -0.39896865956596
 6  5.59456306160616  2.62426726732673 -2.34361631673167
 6  4.15665128492849  5.16866174197420 -1.11405341874187
 6  6.46744680228023  3.67386307110711 -2.67625210211021
 1 -4.26748123422342  2.24359543964396  0.15189823012301
 1 -5.07171182808281 -0.74152562866287  1.31625636983698
 1 -4.93980081998200  0.94180818051805  2.12216912661266
 1 -3.10468950885089 -1.61010840634063  0.16102918111811
 1 -3.17439843714371  0.62451436853685 -1.49409696059606
 1  0.27576201090109 -0.26850653865387  3.55489503760376
 1  1.35637964736474 -0.57123179057906  2.22203733653365
 1 -0.73323198409841 -2.98557602260226 -0.04347934563456
 1 -3.13370351565157  1.65814707880788  3.65430542024202
 1 -1.58229944504450  1.70827019091909  4.15335372327233
 1 -2.00248662976298  2.58998281808181  2.56351377317732
 1 -6.63302675357536  2.46131493499350  1.75618785178518
 1 -7.59710947794779  1.11878168736874  1.31594860556056
 1 -7.75521145834583  2.58774485758576  0.33069154935493
 1  1.12919562796280  1.98076011261126  1.49291735903590
 1  0.79656276877688  2.13416023802380  3.28916474067407
 1  1.44987931433143  0.24850549554955 -0.13642900820082
 1  2.14790258245825 -4.75104893529353 -1.85520012971297
 1  0.41980377787779 -4.32798264576458 -0.87437592099210
 1 -7.83076413821382  0.63434366496650 -3.31278721692169
 1  1.74377656655666 -4.70717189688969  1.33657123372337
 1  3.29224549464946 -5.56721392589259  0.39598741364136
 1  4.00251531383138 -3.95912336453645 -2.13266672777278
 1  5.20770186858686 -2.82023087328733 -1.61718533613361
 1  4.25709714281428 -2.73015524812481 -3.19792886648665
 1  4.62915253475348 -0.09043113761376 -1.95770194589459
 1 -8.76202980348035  0.95288274377438 -0.52786547634764
 1 -9.84697283088309  1.20506192189219 -2.09809590959096
 1  4.29285397189719  2.57859124282428  3.39006377207721
 1  5.90097356555655  1.66242839203920 -2.62124093909391
 1  5.03768446824682  5.66753951815182 -0.53130175007501
 1  4.17997001950195  5.41934870057006 -2.25355790069007
 1  3.42211988158816  5.72566217261726 -0.67825956755676
 1  1.13093040114011 -8.04758591569157  1.74436049094910
 1  7.53222566696670  3.66443198309831 -3.24882215551555
 1  6.17357924542454  4.69414492669267 -2.51855420792079

