%nproc=4
%Mem=4GB
# td=(NStates=1) B3LYP/SVP 

TD

0 1
 8 -5.21571780178018  0.45283072267227 -3.28642843254325
 8  2.98006801230123  3.06496375107511  2.96385246364636
 8  3.34644299289929  0.80848624762476  3.17670955605561
 8  1.51762940244024 -7.12418868896890  1.61566007230723
 8  1.22023691169117 -7.18343476707671 -0.80356833973397
 8  1.84518156625663  3.92070519331933 -0.05498599119912
 7 -2.40053966506651 -0.99620805100510  0.70927794439444
 7 -4.38853373477348  0.64887255375538 -1.14394274907491
 7  1.89597998959896 -0.69535110811081 -0.37039551715171
 7  2.50037557945795  1.84109985548555 -0.53856060276028
 6 -4.87713410461046  1.17236873387339  0.17577337713771
 6 -4.49775716851685  0.21296146144614  1.41623898159816
 6 -2.98340343594359 -0.02848259155916  1.51809382238224
 6 -2.01936103280328  0.57420237743774  2.26140931053105
 6 -0.75089169946995 -0.05329076457646  1.90065074267427
 6 -1.03467765556556 -0.98068112701270  0.85934775417542
 6 -6.36485884198420  1.26697448674867 -0.05161037643764
 6  0.56299490609061  0.28821949844985  2.54215323542354
 6 -6.67726824132413  0.93522277067707 -1.38717444614461
 6 -0.16613286938694 -1.91852058895890  0.11988406990699
 6  1.09522641884188 -1.85674522112211 -0.41351293349335
 6 -5.38994959525953  0.62353056775678 -2.11827913941394
 6  1.89876396159616 -2.96296683508351 -0.96976398569857
 6 -2.30100580148015  1.59243500040004  3.33482787298730
 6 -7.33366085928593  1.63391152035204  1.08585257115712
 6  3.08954528822882 -2.26247619881988 -1.36754799989999
 6  1.13014904220422  1.69584807820782  2.40762439833983
 6  3.06191426672667 -0.95054367996800 -1.06127011521152
 6  1.47289105930593 -4.36267223162316 -0.93384510141014
 6 -7.91567747374738  0.84766640424042 -2.19096748454845
 6  1.70270783638364 -5.03005393999400  0.41929792529253
 6  4.33427903690369 -3.03763223202320 -1.83733296459646
 6  3.99280015061506  0.06929633313331 -1.40740542294229
 6  2.64744536573657  1.75765335353535  2.89829572947295
 6  3.67049142694269  1.44778018951895 -1.12932950025003
 6 -9.15480046344634  0.94366652695270 -1.68775359065907
 6  1.41258632333233 -6.50448709890989  0.32485114411441
 6  4.59266810141014  2.63066982188219 -1.49872695579558
 6  3.91926119451945  3.70331085478548 -1.11024231853185
 6  2.61339291009101  3.23939179027903 -0.55406416911691
 6  5.88374197949795  2.41095593619362 -2.08412036713671
 6  4.32815843564356  5.14419929572957 -1.08482049544955
 6  6.68766882448245  3.34707039183918 -2.61782625952595
 1 -4.37157164326433  2.21184226432643  0.33159619991999
 1 -5.15609026592659 -0.70644212031203  1.36909165336534
 1 -4.80564740464046  0.74516851655166  2.27182409210921
 1 -2.94267330723072 -1.14549194469447 -0.08272519431943
 1 -3.44196519381938  0.88811072817282 -1.43229077997800
 1  0.47178161286129 -0.00714040204020  3.51974152225223
 1  1.34372838223822 -0.27918258565857  2.32080721352135
 1 -0.54298295919592 -2.86501396639664  0.25742074437444
 1 -3.35290543584358  1.57098836293629  3.50655064476448
 1 -1.98805002010201  1.38838820272027  4.36334472237224
 1 -1.89658603970397  2.55029884968497  3.04500192199220
 1 -6.69504295519552  2.06320512401240  1.84206643964396
 1 -7.72343211021102  0.66444625382538  1.67639465016502
 1 -8.01367730493049  2.36916299939994  0.88237671787179
 1  1.25086779517952  2.22698473507351  1.29492756005601
 1  0.55250836333633  2.68245506750675  3.07660348454846
 1  1.50331465786579  0.35686633163316 -0.13287865316532
 1  2.04591238343834 -4.94556838723872 -1.54545915561556
 1  0.53050484798480 -4.61074092159216 -1.20521900530053
 1 -7.64626568836884  0.90315054565457 -3.27495343354335
 1  1.09757194609461 -4.55607678737874  1.23568114471447
 1  2.55073134323432 -5.01835904040404  0.76861467636764
 1  4.13979904220422 -4.09191664386439 -1.87522098319832
 1  5.12554365276528 -3.11281013121312 -1.03975759335934
 1  4.68362979607961 -2.62781501410141 -2.84318339193919
 1  4.87875749524953 -0.44577667216722 -1.88152432813281
 1 -9.39229282978298  0.71023847934793 -0.53933662346235
 1 -10.11874000760076  1.14508592429243 -2.32448854885489
 1  3.92623731023102  3.08171155485549  3.09697446314631
 1  6.12981644984498  1.42728487768777 -2.06645546054606
 1  5.32282298209821  5.29802256645665 -0.74955357525753
 1  4.40238226072607  5.71009777547755 -2.07106965186519
 1  3.69490716031603  5.77725733213321 -0.38086982858286
 1  1.05585289338934 -8.10140129722972  1.47114316921692
 1  7.77459990439044  3.07284282418242 -2.85762303560356
 1  6.02098398589859  4.35977148934894 -2.79340169266927

