%nproc=4
%Mem=4GB
# td=(NStates=1) B3LYP/SVP 

TD

0 1
 8 -5.20558678867887 -0.19792435283528 -3.17890768046805
 8  3.20419042454245  2.82351960666067  2.97899397779778
 8  3.36946529512951  0.62771817081708  2.81717360246025
 8  1.44410204970497 -7.10997726782678  1.46783528982898
 8  0.73711859985999 -6.92445886948695 -0.58270625352535
 8  1.55688273637364  4.06598972177218 -0.11700219281928
 7 -2.34784439553955 -1.00885931613161  0.76485350195020
 7 -4.31938682008201  0.51257892439244 -1.13154150895090
 7  1.81954234583458 -0.71627320032003 -0.39524800240024
 7  2.44244978687869  1.86320206570657 -0.57928467516752
 6 -4.79404579577958  1.07523902090209  0.09706550635063
 6 -4.48001539433943  0.32403256855686  1.27408476617662
 6 -3.01121621722172 -0.02851259455946  1.46977899089909
 6 -1.88543764046405  0.64524948214821  2.09577274687469
 6 -0.68197480778078  0.07187175167517  1.85068574617462
 6 -0.96154034183418 -0.99708276717672  0.88255007440744
 6 -6.27375973207321  1.42872066136614 -0.17099231463146
 6  0.62127073367337  0.20248092459246  2.58785780588059
 6 -6.55745626012601  0.88500774917492 -1.42904863356336
 6 -0.14047030313031 -1.99490822772277  0.26037811931193
 6  1.10151704790479 -1.90119966656666 -0.32699428162816
 6 -5.39614021432143  0.20677889258926 -2.05459277077708
 6  1.94826891209121 -2.87660819921992 -0.91809881918192
 6 -2.03392909380938  1.72988874577458  3.15200959115912
 6 -7.01381887508751  2.24086221542154  0.81320530643064
 6  3.07718405210521 -2.39777972917292 -1.37266851195120
 6  1.22348837613761  1.63191168456846  2.61360499639964
 6  2.94477255255526 -0.91235986158616 -1.04957894609461
 6  1.58545231543154 -4.37882384678468 -1.01202291919192
 6 -7.89280518651865  0.76411804940494 -2.03970235803580
 6  1.86503406900690 -5.02189312391239  0.35767176267627
 6  4.30423603260326 -2.99101757055706 -1.99680891219122
 6  3.90323119371937  0.20006941044104 -1.42969765216522
 6  2.64582520372037  1.57363495169517  2.76733263316332
 6  3.64570894869487  1.53593900540054 -1.13503007030703
 6 -9.20105508890889  0.99715187548755 -1.49694450975097
 6  1.22665773047305 -6.47390404060406  0.42514117311731
 6  4.44846368096810  2.68480523542354 -1.39497658075808
 6  3.76922619101910  3.80909143284328 -1.04150544484448
 6  2.44851642244224  3.23852170327033 -0.50408917161716
 6  5.88467207250725  2.56535137573757 -1.84200615571557
 6  4.12858847864787  5.15820069586959 -1.09097111051105
 6  6.73951400900090  3.58014369916992 -2.13242771967197
 1 -4.07419190529053  1.93403448354835  0.20479351965196
 1 -4.72374703160316 -0.89281075717572  1.22942768696870
 1 -4.88472531243124  0.86054005370537  2.10619752945295
 1 -2.77261630153015 -1.44095149064907 -0.00868779057906
 1 -3.26117711501150  0.63988590569057 -1.32351990289029
 1  0.51427586228623 -0.15813550155015  3.72378192629263
 1  1.31281529092909 -0.34690935833583  2.21492662546255
 1 -0.97672633353335 -2.97389485448545 -0.09664466216622
 1 -3.07890803610361  2.05319658375838  3.28740873057306
 1 -1.38862007710771  1.41550091399140  4.00100848874888
 1 -1.74431081218122  2.59228304810481  2.80737815961596
 1 -6.41161461236124  3.14080288378838  1.17277951095109
 1 -7.49702946994699  1.48951876107611  1.62403941464146
 1 -7.80244618181818  2.77076315941594  0.07098557875787
 1  0.80563327172717  2.06007804440444  1.55627369466947
 1  0.89783289578958  2.32459928192819  3.34735055925593
 1  1.49175350175017  0.27219786478648 -0.13985935123512
 1  2.32466025822582 -4.75236906730673 -1.92554716441644
 1  0.42023382088209 -4.59052890039004 -1.38086657005700
 1 -7.87571863366337  0.64179441004100 -2.97911384958496
 1  1.48948113701370 -4.36492767246725  1.11931950855086
 1  2.99680595069507 -5.15280248474848  0.43520133503350
 1  4.32009707200720 -4.10608806100610 -1.76930039113911
 1  5.11042214061406 -2.81234008420842 -1.46260987858786
 1  4.45209664276428 -2.82000423302330 -3.06638571217122
 1  4.88185780528053 -0.22085417991799 -1.89308548424843
 1 -9.24820842134213  1.13784123962396 -0.51685437523752
 1 -10.13509164276428  0.68625004070407 -2.06563266326633
 1  4.13881856835684  2.75051843554356  3.15415018071807
 1  6.08370183838384  1.55068721792179 -2.05277409240924
 1  5.04419511931193  5.28691145534554 -0.34018263816382
 1  4.75363738623862  5.39013577927793 -2.10117266216622
 1  3.29780745034503  5.87759736613661 -0.97619936153615
 1  1.06062337043704 -8.01503266036604  1.29721577647765
 1  7.68473091749175  3.36086162606261 -2.62176945024502
 1  6.53620550805080  4.60923643584358 -1.80096244874488

