%nproc=4
%Mem=3GB
# td=(NStates=1) B3LYP/SVP 

TD

0 1
 8 -3.35363227342734 -1.14315937143714 -2.79037969226923
 8  3.06425688048805  3.34240589908991  2.93818808970897
 8  3.42333664186419  1.65338246654665  4.49798424202420
 8  7.55580418331833 -1.85822193639364 -0.54963572537254
 8  6.70980513691369 -3.07155795069507 -2.18807525562556
 8 -2.56094700120012  1.57901339043904  1.45679574007401
 7 -0.25270101630163 -2.42425874017402  0.88214305510551
 7 -2.62473451145114 -1.17262239723972 -0.60556270087009
 7  1.12820436983698  0.07173808350835 -0.80472540974097
 7 -0.96525567106711  1.40092550045005 -0.24698559645965
 6 -3.27132228192819 -1.35834339673967  0.66640361426143
 6 -2.58364699079908 -2.49864401060106  1.51651695849585
 6 -1.30354599629963 -2.07388520252025  1.84004199279928
 6 -0.58306810911091 -1.17690888258826  2.82971099159916
 6  0.77976908950895 -1.14168916991699  2.49438063266327
 6  0.95856854305431 -1.90518695339534  1.24674947894789
 6 -4.67354230083008 -1.98365401410141  0.31834872217222
 6  1.80909550095010 -0.32274260386039  3.15642779727973
 6 -4.79977633903390 -1.99667837623762 -1.06131647214721
 6  2.09348730513051 -1.88360655285529  0.31256353505351
 6  2.01357737963796 -0.92978489068907 -0.68702260376038
 6 -3.58901357125713 -1.38915088038804 -1.58525580898090
 6  2.98478954215422 -0.65969671797180 -1.79227312621262
 6 -1.23611218341834 -0.47092094909491  3.86107161546155
 6 -5.71209643374338 -2.43424990529053  1.33432443804380
 6  2.59896955385539  0.42205957415742 -2.49572418241824
 6  1.79192862526253  1.16858255025503  2.67264390599060
 6  1.40436380288029  0.95119176777678 -1.82290839683968
 6  4.17499284838484 -1.50330976007601 -2.04712434253425
 6 -5.86462079817982 -2.42386447684768 -1.98356180438044
 6  5.51219677067707 -1.27074882008201 -1.23809722662266
 6  3.13359345474547  1.24738314091409 -3.72333884308431
 6  0.56278870297030  2.07321246814681 -2.07216896199620
 6  2.74081272157216  2.05020460596060  3.52345769096910
 6 -0.50568440004000  2.28012264446445 -1.19933522142214
 6 -6.84409833633363 -3.32289605370537 -1.80162872157216
 6  6.61209077867787 -2.09703795889589 -1.40690138013801
 6 -1.39818847364736  3.57481971517152 -1.19021709640964
 6 -2.26734082348235  3.36285676467647 -0.07599550575058
 6 -2.02224449684968  2.10953188668867  0.50730966296630
 6 -1.14128410681068  4.58700496069607 -2.22235400340034
 6 -3.33909454595460  4.21621210411041  0.44728896859686
 6 -1.82340623182318  5.68315373357336 -2.22759649244925
 1 -3.45629412261226 -0.40928641854185  1.19288349294929
 1 -2.55375700210021 -3.40401552655265  0.84982533163316
 1 -3.16648646844684 -2.49841328572857  2.51167055575558
 1 -0.38268357315732 -2.99165793089309 -0.01140413041304
 1 -1.91975036473647 -0.49957626112611 -0.46255035743574
 1  1.73115107650765 -0.41029248304830  4.22179427852785
 1  2.83200053295330 -0.64994688598860  2.80514544394439
 1  3.03330214411441 -2.58370995389539  0.32244529772977
 1 -2.09290191949195 -1.04798407240724  4.34723178497850
 1 -0.65881564956496 -0.18541274487449  4.70167652415242
 1 -1.70365967976798  0.48811125782578  3.29804857015702
 1 -5.44128491569157 -1.92092022322232  2.37197149014901
 1 -5.42370113081308 -3.62994709930993  1.46250909720972
 1 -6.71827920472047 -2.33759940334033  1.08742510421042
 1  2.00478661806181  1.09027896979698  1.42870048134813
 1  0.79974992649265  1.63994623892389  2.62338031173117
 1  0.53102135973597  0.41548591839184 -0.04938697099710
 1  4.52610833003300 -1.34452751175118 -2.99411501340134
 1  4.00852168196820 -2.58474025322532 -1.98590569856986
 1 -5.77391953035303 -1.85340626522652 -3.06822028582858
 1  5.20227814911491 -1.28488896879688 -0.25614239053905
 1  5.85039648094810 -0.27946494259426 -1.34514899739974
 1  4.02594250575057  0.88847533963396 -4.11388961846185
 1  3.45589134073407  2.18725980468047 -3.42503483888389
 1  2.43141893119312  1.42105660356036 -4.53128628062806
 1  0.80027393739374  2.77689918641864 -2.80509140114011
 1 -6.89093817991799 -4.04555673957396 -0.88136715791579
 1 -7.71339960486049 -3.68346967746775 -2.66061911541154
 1  3.75346907440744  3.89884924592459  3.35275853005300
 1 -0.50467434623462  4.28632991249125 -2.98847674307431
 1 -4.07510610021002  4.49908649044905 -0.28399955145515
 1 -3.91472022172217  3.84264905850585  1.31522233363336
 1 -2.91917023322332  5.20970126122612  0.85368113801380
 1  8.20366606010601 -2.50992414661466 -0.51640227522752
 1 -1.75440836543654  6.61801225832583 -2.87684253645365
 1 -2.63606595949595  5.96992836863686 -1.66484239173917

