%nproc=4
%Mem=3GB
# td=(NStates=1) B3LYP/SVP 

TD

0 1
 8 -3.11437834803480 -1.17742279777978 -2.81298195249525
 8  3.12539299409941  3.10189184768477  2.86981125202520
 8  3.52353666186619  1.53871099939994  4.49752419601960
 8  7.66184478737874 -1.63028914311431 -0.57827858965897
 8  6.71035519191919 -3.06530732563256 -2.10380682878288
 8 -2.61492239873987  1.63746923602360  1.49093915441544
 7 -0.24862060826083 -2.40074638893889  0.95995083588359
 7 -2.62848488648865 -1.25127026202620 -0.59927207180718
 7  1.09071062046205  0.06514742444244 -0.84804974217422
 7 -0.95043418891889  1.53030843874387 -0.09049994789479
 6 -3.37838298799880 -1.46594415681568  0.56530350425043
 6 -2.67195582168217 -2.38064221042104  1.68735404220422
 6 -1.20410605230523 -2.05538335233523  1.86328431703170
 6 -0.58815861816182 -1.17933912561256  2.74132215271527
 6  0.76417753035304 -1.10852585358536  2.45483667826783
 6  0.94688737493749 -1.85130156485649  1.19425422942294
 6 -4.78626357295730 -1.95962161086109  0.22696958425843
 6  1.84066865826583 -0.45071540114011  3.20645279977998
 6 -4.78030439183918 -2.03060176857686 -1.12992333283328
 6  2.02848080448045 -1.84360255245525  0.38029030773077
 6  2.09904592649265 -0.87751966416642 -0.62692659415942
 6 -3.48641331123112 -1.49191115641564 -1.64658194159416
 6  2.99092015521552 -0.67008775707571 -1.76447034593459
 6 -1.30836940914091 -0.45040889788979  3.83494900320032
 6 -5.82673789788979 -2.18244472477248  1.31947295289529
 6  2.56384604150415  0.45926329452945 -2.56428103810381
 6  1.93273270567057  1.14340003200320  2.78236487808781
 6  1.25632899939994  0.90753740234023 -1.91355746174617
 6  4.14615996509651 -1.48173760286029 -1.96873650375038
 6 -5.81677601370137 -2.51083317371737 -2.08396184438444
 6  5.35675122612261 -1.09868161336134 -1.26626004290429
 6  3.21294138953895  1.06718512111211 -3.73270978017802
 6  0.52322474657466  1.96744189108911 -2.09798154325433
 6  3.02725136543654  1.88971855735574  3.45112045724572
 6 -0.58947277887789  2.34835946814681 -1.17158244614461
 6 -6.87842176867687 -3.31924568866887 -1.73535209390939
 6  6.59008857845785 -2.05184343944394 -1.41491218121812
 6 -1.37270592539254  3.53114534773477 -1.17799587428743
 6 -2.28160224962496  3.37207768676868 -0.05650355655566
 6 -1.98715098749875  2.12542347584758  0.51028996099610
 6 -1.24164414281428  4.64522078227823 -2.14009577757776
 6 -3.34713535003500  4.28030851375137  0.44406864656466
 6 -1.95294918611861  5.70738615681568 -2.32557629042904
 1 -3.34529302250225 -0.47899338923892  1.14154835943594
 1 -2.70718234463446 -3.54349947494749  1.09326967606761
 1 -3.13651347114711 -2.49813325772577  2.62790217891789
 1 -0.42819812461246 -2.84027279237924 -0.02668565856586
 1 -2.12325071477148 -0.34619092259226 -0.61263536593659
 1  1.71106906830683 -0.36717817161716  4.26803890299030
 1  2.68706603950395 -1.27262915421542  3.03266819621962
 1  2.88738755265527 -2.57854943784378  0.53030608380838
 1 -2.22866549584958 -1.25533480748075  4.12089915171517
 1 -0.50932070007001 -0.23398760236024  4.69119547604761
 1 -1.73050236403640  0.62248469516952  3.47417618291829
 1 -5.91809259645965 -1.22004013521352  2.03498779177918
 1 -5.49049781048105 -3.15000910551055  1.99977282358236
 1 -6.81714909170917 -2.40993663706371  0.80892725442544
 1  2.10389652905291  1.12603254515452  1.68904651595160
 1  1.00123007450745  1.72425466976698  2.73432140584058
 1  0.22386064366437  0.28908327812781 -0.24369640194019
 1  4.38977469666967 -1.44601766076608 -3.01217681958196
 1  3.95163599339934 -2.61011279047905 -1.73091019901990
 1 -5.61978411681168 -2.21063198779878 -3.20743420722072
 1  5.03768168946895 -1.01208168806881 -0.09339611591159
 1  5.81282272357236 -0.07563455955596 -1.33932841534153
 1  4.04710462196220  0.50780727282728 -4.28025625512551
 1  3.66023177477748  2.11341241994199 -3.51203353875388
 1  2.65828161746175  1.18795329322932 -4.51497464946495
 1  0.67080099009901  2.76714821132113 -2.89459035103510
 1 -7.13811289738974 -3.95774795869587 -0.79418844004400
 1 -7.46298456335634 -3.63094442494249 -2.66334938843884
 1  3.62991671917192  3.57422678367837  3.63737699189919
 1 -0.58309218801880  4.47465874537454 -3.05008290369037
 1 -4.03221181078108  4.55299188098810 -0.26711786328633
 1 -3.66285503520352  3.60255504910491  1.28286909830983
 1 -3.18624694089409  5.29079937103710  0.77738350825083
 1  8.43113880738074 -2.22163531773177 -0.77562819781978
 1 -1.80288321292129  6.30869132623262 -3.05575042724272
 1 -2.72597495039504  6.04311568736874 -1.78614452195220

