%nproc=4
%Mem=3GB
# td=(NStates=1) B3LYP/SVP 

TD

0 1
 8 -3.15531244144414 -1.27849290479048 -2.76084673897390
 8  3.00238069286929  3.22825448394839  3.10669494039404
 8  3.68126243444344  1.39820694899490  4.17791223482348
 8  7.61934053695370 -1.67507362156216 -0.59789055085509
 8  6.52877703410341 -2.95751654655466 -2.02570901900190
 8 -2.61477238373837  1.61757724682468  1.47344740524052
 7 -0.28637438363836 -2.38295460976098  0.88862370317032
 7 -2.65242728072807 -1.27687282228223 -0.54036618121812
 7  1.16215776517652  0.13659456915692 -0.71961689888989
 7 -1.04082322782278  1.43812922082208 -0.22854375227523
 6 -3.40238538823882 -1.39696725912591  0.67976495039504
 6 -2.72742136823682 -2.35764991119112  1.65010031683168
 6 -1.24207984968497 -2.05866368036804  1.84991297989799
 6 -0.57601740404040 -1.25368656035604  2.80166818731873
 6  0.75752686528653 -1.18118311931193  2.33364455905591
 6  0.95701838803880 -1.80010644534453  1.19412421642164
 6 -4.80163511011101 -1.91914756345635  0.24729161646165
 6  1.78150274167417 -0.30849117871787  3.05795795029503
 6 -4.71875823722372 -2.12802151055106 -1.04637497799780
 6  2.06160411681168 -1.91148934113411  0.20742302100210
 6  2.04426044794479 -0.97744965716572 -0.72702660416042
 6 -3.50945561546155 -1.53748571387139 -1.62656994039404
 6  2.96439750295030 -0.61079182748275 -1.91221512041204
 6 -1.19064763696370 -0.56743060006001  4.13424893319332
 6 -5.86600182428243 -2.13432991329133  1.18149915551555
 6  2.61180083698370  0.52846021422142 -2.42279688968897
 6  1.88925835823582  1.27456314831483  2.67691433303330
 6  1.39153251975198  0.97698434703470 -1.76544265026503
 6  4.25263061216122 -1.55168459755976 -2.15691532163216
 6 -5.66523085918592 -2.53558564896490 -2.08276172437244
 6  5.32471802280228 -1.21391313651365 -1.06993040994099
 6  3.22223231863186  1.20890929352935 -3.68836534573457
 6  0.53932635673567  2.02426757365737 -2.01914365946595
 6  2.96275491579158  1.86716630213021  3.41882722792279
 6 -0.61171500310031  2.36124075627563 -1.23552884078408
 6 -6.76870079657966 -3.30616438053805 -1.79370792949295
 6  6.48178774837484 -2.06491474657466 -1.26788747874787
 6 -1.40191884668467  3.53439567276728 -1.20993906860686
 6 -2.20938502790279  3.48764924392439  0.01068316211621
 6 -2.04021629402940  2.12086301980198  0.52446137813781
 6 -1.23208318671867  4.52896915711571 -2.23687545554555
 6 -3.25558619511951  4.38562904580458  0.44950919061906
 6 -1.97451134233423  5.61653707190719 -2.40640437323732
 1 -3.59563805700570 -0.41109659955996  1.17988219281928
 1 -2.85507713411341 -3.35269039403940  1.37481783088309
 1 -3.18161798159816 -2.52151559595960  2.86798618731873
 1 -0.40559586438644 -2.92008077317732  0.00898790879088
 1 -2.07844623432343 -0.57613391689169 -0.57266136853685
 1  1.59235719711971 -0.25285673947395  4.13219531863186
 1  2.90955828872887 -0.78881077237724  2.91744667406741
 1  2.68263707760776 -2.79289087198720  0.33846689988999
 1 -1.93479610891089 -1.09045831983198  4.88250531233123
 1 -0.20730049804981 -0.31217542114211  4.54198055455546
 1 -1.47209652345234  0.11457390409041  3.69426819211921
 1 -5.79986077327733 -1.53738186938694  2.05559985298530
 1 -6.01861062176218 -3.12471657625763  1.61473431973197
 1 -6.81058843564356 -2.09642528592859  0.67190355205521
 1  1.90412655205521  1.17143708560856  1.49572718401840
 1  1.11856180768077  1.86340858515852  2.95574354805481
 1  0.18741699929993  0.39683405320532 -0.13348538083808
 1  4.66928264746475 -1.42317537653765 -3.20492609450945
 1  4.00725155495550 -2.47961974117412 -1.97266437443744
 1 -5.09395153355335 -2.54779570417042 -3.17332079587959
 1  5.03731165246525 -1.49247972787279  0.07489071277128
 1  5.64709615091509 -0.19828682478248 -1.19771425392539
 1  3.91473138463846  0.40707719981998 -4.30784901440144
 1  3.59249500110011  2.20897197589759 -3.51505384078408
 1  2.57333312261226  1.69159365726573 -4.35658881088109
 1  0.79126303630363  2.71615311181118 -2.77911880388039
 1 -7.17562664876488 -3.81932411631163 -0.80997001820182
 1 -7.43650191509151 -3.81198252875287 -2.58079113261326
 1  3.93539726722672  3.74784414541454  3.44811806600660
 1 -0.33448732753275  4.42949422892289 -2.73759165456546
 1 -4.02414100370037  4.44748132993299 -0.17795894739474
 1 -3.66737548724872  3.89184397799780  1.49573038443844
 1 -2.93811212741274  5.39238953005300  0.70342611251125
 1  8.41584727822782 -2.13642679687969 -0.70523115811581
 1 -1.65954887948795  6.30264072117212 -3.33775862806281
 1 -2.81931428432843  5.98323969976998 -1.74797070457046

