%nproc=4
%Mem=3GB
# td=(NStates=1) B3LYP/SVP 

TD

0 1
 8 -3.31192810301030 -1.35880093559356 -2.91152180648065
 8  3.02017247204720  3.20662232073207  3.12874714561456
 8  3.64300860906091  1.41982911121112  4.34600904450445
 8  7.81032963586359 -1.41069718391839 -0.91527228902890
 8  6.68956311271127 -3.00406120102010 -2.02155860396040
 8 -2.70543144964496  1.67030251935194  1.43080314081408
 7 -0.26449219541954 -2.37336365066507  0.97454229502950
 7 -2.77035907390739 -1.15856099109911 -0.65130727532753
 7  1.09871142054205 -0.03937302760276 -0.75068000520052
 7 -0.93735288078808  1.47617302520252 -0.19967086498650
 6 -3.40503565326533 -1.34433199559956  0.58870584448445
 6 -2.69254788088809 -2.31649579577958  1.40626593339334
 6 -1.30028567026703 -2.01079889388939  1.86822481108111
 6 -0.57418722102210 -1.31928312001200  2.86944496499650
 6  0.68916002860286 -1.04819982098210  2.45402659725973
 6  0.96308899509951 -1.81724815951595  1.29773457745775
 6 -4.78228317491749 -1.87446309500950  0.30326721402140
 6  1.77371196259626 -0.32550287988799  3.14382653715372
 6 -4.81003736513651 -2.05456416481648 -1.09365970647065
 6  2.05420337673767 -1.99088728092809  0.34127640634063
 6  2.08616463836384 -0.91608352055206 -0.62105600710071
 6 -3.53351802170217 -1.51442340764076 -1.69599688308831
 6  2.99745080828083 -0.73298404670467 -1.77813171207121
 6 -1.27053562576258 -0.71596545354535  4.04392990129013
 6 -5.80347557165717 -2.16594307460746  1.32755376097610
 6  2.49863952085209  0.40444781298130 -2.54383899389939
 6  1.81514094649465  1.21644733673367  2.76985362696270
 6  1.31855522202220  0.85406205480548 -1.69792589858986
 6  4.22427777687769 -1.57411684078408 -2.06276590669067
 6 -5.86222055815582 -2.54394648504850 -2.03493694189419
 6  5.46689224022402 -1.09980172537254 -1.21475489238924
 6  3.13445354075408  1.05098350095009 -3.65912242144214
 6  0.52760518461846  1.90271541844184 -2.04515626072607
 6  2.93889252955296  1.95865545104510  3.51080642584258
 6 -0.53454728632863  2.22799743194319 -1.18644393229323
 6 -6.84959888638864 -3.40458422252225 -1.61711026972697
 6  6.71162073167317 -1.94382263736374 -1.38815950595060
 6 -1.33940259505951  3.50681291449145 -1.28606668136814
 6 -2.27643173257326  3.43040351935194 -0.19705761196120
 6 -2.08869114151415  2.06486742024202  0.42321125312531
 6 -1.20185016341634  4.63858011821182 -2.16338810681068
 6 -3.36222685918592  4.30958144104410  0.28236247594759
 6 -1.52963685488549  5.96792221042104 -2.13707744054405
 1 -3.38420691389139 -0.33380887078708  1.21703590819082
 1 -2.88308993539354 -3.33025815081508  1.05078542764276
 1 -3.31047086688669 -2.27149059345935  2.45315470417042
 1 -0.45493079787979 -2.91738050315032  0.19423643364336
 1 -2.08169655935594 -0.34765106860686 -0.51735583798380
 1  1.73504146554655 -0.50280173397340  4.27820992009201
 1  2.88642597549755 -0.56955884718472  3.01710664006401
 1  3.10963977787779 -2.69406098899890  0.43359641284128
 1 -1.87397002630263 -1.47299657365737  4.58998606040604
 1 -0.53145291329133 -0.54756896049605  4.90749710621062
 1 -2.19969928372837  0.22517496419642  3.89662842814281
 1 -5.70654144134413 -1.28405653685369  2.25200949394940
 1 -5.55097385808581 -3.17860196479648  1.66678952525253
 1 -6.69360673747375 -1.99606524992499  0.88715507720772
 1  2.08743488288829  1.21059100100010  1.75158276957696
 1  0.96623657515752  1.93302554685469  2.74784275797580
 1  0.17361561916192  0.17618198799880 -0.12981501380138
 1  4.48789450865087 -1.56926998599860 -3.06848245014501
 1  3.87256808660866 -2.73267504670467 -1.79479658765877
 1 -5.87788992739274 -2.15344626922692 -3.08342180598060
 1  5.08740666196620 -0.97714819471947 -0.23638041434143
 1  5.76527796909691 -0.10077707380738 -1.58095257775778
 1  4.15104501600160  0.41719821192119 -3.94545277477748
 1  3.42088784038404  2.27850892959296 -3.51879421482148
 1  2.40306609590959  1.26206070397040 -4.48850200220022
 1  0.68791270127013  2.32576407290729 -3.02266315831583
 1 -6.83817290339034 -3.82942512641264 -0.58725774697470
 1 -7.52635089999000 -3.71319264976498 -2.31109416291629
 1  3.63065679317932  3.58624798579858  3.70026328052805
 1 -0.61854573337334  4.26332761226123 -3.18351624702470
 1 -4.10291888148815  4.24596117791779 -0.70260141164116
 1 -3.87305605530553  3.93114790839084  1.10899171057106
 1 -2.80425874207421  5.18228851995200  0.81227699759976
 1  8.50690638413841 -2.09288244244424 -0.87405804080408
 1 -1.11525445004500  6.53016347344734 -2.91281613381338
 1 -2.33050540344034  6.62298367416742 -1.53370927842784

