%nproc=4
%Mem=3GB
# td=(NStates=1) B3LYP/SVP 

TD

0 1
 8 -3.27948485868587 -1.35149020452045 -2.78530918521852
 8  3.17259771457146  2.97034869336934  2.91698596949695
 8  3.62540684888489  1.22633976227623  4.33644808840884
 8  7.72971157405741 -1.55833194739474 -0.55982674447445
 8  6.66559071547155 -2.86476727162716 -1.98230467856786
 8 -2.61167207370737  1.72514800390039  1.36940700120012
 7 -0.24875062126213 -2.37400371467147  0.81542638343834
 7 -2.76531856985699 -1.22705784078408 -0.54886703130313
 7  1.11019256865687  0.10822173187319 -0.76458139533953
 7 -0.98357750325032  1.50327573547355 -0.17556845474547
 6 -3.45665081478148 -1.29001656405641  0.66324329822982
 6 -2.66056468256826 -2.38063220942094  1.59070437723772
 6 -1.23506914861486 -2.09477729172917  1.74446243484348
 6 -0.55313511581158 -1.26635782748275  2.72594061456146
 6  0.82217332993299 -1.15520052105211  2.45964715931593
 6  0.93867655385539 -1.80858729342934  1.17917272127213
 6 -4.75379032563256 -1.92357800650065  0.29071595889589
 6  1.88667325872587 -0.41500182978298  3.15674782928293
 6 -4.83892025342534 -1.95440414881488 -1.04165450595060
 6  2.10942889928993 -1.82086027822782  0.20455273397340
 6  2.06450247214721 -0.91711362356236 -0.76594049554956
 6 -3.59014368426843 -1.47280924622462 -1.60946823022302
 6  3.01728279147915 -0.67125787408741 -1.74588848774877
 6 -1.22879145134513 -0.63522737973797  3.88313382168217
 6 -5.82332755685569 -2.15310179047905  1.41534253985399
 6  2.54541419831983  0.45352272047205 -2.47090170017002
 6  1.90614004640464  1.05960165216522  2.86531317291729
 6  1.39099246574657  0.90316696529653 -1.81357746374637
 6  4.34013936303630 -1.45960538963896 -1.93944357445745
 6 -5.88484282038204 -2.56513860426043 -1.99284273247325
 6  5.49474502550255 -0.98412015721572 -0.99430284718472
 6  3.14180427582758  1.12902130473047 -3.71298780798080
 6  0.51263368746875  2.02944809170917 -2.00203194829483
 6  2.96345498579858  1.74087367286729  3.44687003220322
 6 -0.57452128372837  2.34455908810881 -1.19461474937494
 6 -6.92803673017302 -3.23797756185619 -1.56473503220322
 6  6.66554612421242 -1.94640289538954 -1.25556624662466
 6 -1.47567622242224  3.54194642784278 -1.27020509520952
 6 -2.28798288768877  3.42463294229423 -0.26647455365537
 6 -1.99004127652765  2.18644957845785  0.35623455545555
 6 -1.31725170357036  4.50483674387439 -2.35587735573557
 6 -3.38402903940394  4.36894737763776  0.27415165486549
 6 -1.85904979617962  5.72523794199420 -2.25978971177118
 1 -3.38208670187019 -0.35428091799180  1.15512971757176
 1 -2.89985161156116 -3.56817194219422  1.11432178127813
 1 -3.14267408720872 -2.28400184458446  2.56961635033503
 1 -0.30945625042504 -2.72352111721172 -0.09104209420942
 1 -2.03736212591259 -0.56741304480448 -0.71108521092109
 1  1.75465342674267 -0.50537199099910  4.15594769386939
 1  2.94815214811481 -0.93891578287829  3.00747567696770
 1  2.76121493539354 -2.57302888578858  0.38403145634563
 1 -2.12870549984999 -1.32801207520752  4.28890595239524
 1 -0.72012178017802 -0.13117732133213  4.76410276677668
 1 -1.92348166196620  0.34023647034703  3.39934870017002
 1 -5.81209199639964 -1.64365249644964  2.37264155715572
 1 -5.79772853355336 -3.21765587018702  1.69443228952895
 1 -6.85814319111911 -2.22465810921092  0.93905026672667
 1  1.99896603600360  1.04689463136314  1.61578919021902
 1  1.00081003250325  1.46227847214721  3.05496347004700
 1  0.35396365396540  0.45797016681668 -0.18948098039804
 1  4.76138185738574 -1.41808486748675 -2.99443504540454
 1  4.14671550135013 -2.44362614181418 -1.83552066006601
 1 -5.72033417181718 -2.32623354795480 -2.98914237803780
 1  5.27864578587859 -0.99550002990299  0.09407263096310
 1  5.71889333063306  0.01823482738274 -1.62573705620562
 1  3.58736864836484  0.30264675677568 -4.51920014951495
 1  3.83850960256026  1.96646772547255 -3.55335767116712
 1  2.27081287058706  1.58771326922692 -4.23334648664867
 1  0.87344125412541  2.74596609310931 -2.89494038603860
 1 -7.13140222632263 -3.66772895679568 -0.46268528972897
 1 -7.64350261516152 -3.90223155365537 -2.36900995449545
 1  3.98989271677168  3.33443280428043  3.47726098029803
 1 -0.57754163296330  4.30577185668567 -3.18587648304830
 1 -4.15035362496250  4.52502908470847 -0.65818697019702
 1 -3.95429417911791  3.73514830843084  0.82852366376638
 1 -3.06528484468447  5.43800409150915  0.80705647554755
 1  8.42500819431943 -2.09800295449545 -0.59680031503150
 1 -1.83304622922292  6.62276273337334 -3.09939479167917
 1 -2.58373072597260  5.82083345914591 -1.62158806630663

