%nproc=4
%Mem=3GB
# td=(NStates=1) B3LYP/SVP 

TD

0 1
 8 -3.25650256045605 -1.47718277377738 -2.90756141044104
 8  3.28023847864786  3.04033569206921  3.12211648254825
 8  3.70826513471347  1.27356448474847  4.56945138873887
 8  7.62821142404240 -1.50887700190019 -0.57282804460446
 8  6.80210436683668 -2.77391818671867 -2.31410785888589
 8 -2.52742364886489  1.64239972907291  1.49214927542754
 7 -0.29161490769077 -2.37225353965397  0.88968380918092
 7 -2.76427846584658 -1.12593772877288 -0.61360350495050
 7  1.10842239163916  0.01954286398640 -0.80567550475048
 7 -1.11823096859686  1.38885429332933 -0.18048894679468
 6 -3.48234338403840 -1.22551011341134  0.62324929882988
 6 -2.72628125422542 -2.23702784898490  1.60692599939994
 6 -1.23872951465147 -2.00196801080108  1.94485247384738
 6 -0.63241304360436 -1.19807099879988  2.89436745724572
 6  0.71829294189419 -1.11654665566557  2.49778097269727
 6  0.91151383758376 -1.76794322902290  1.28980378437844
 6 -4.81877682428243 -1.65924157285729  0.21126801410141
 6  1.88556314771477 -0.51604193379338  3.23257541204120
 6 -4.80948731013101 -1.97864657305731 -1.08894923542354
 6  2.04868282468247 -1.88006619881988  0.33649592829283
 6  2.14679070097010 -0.90815272747275 -0.72304620612061
 6 -3.50241491139114 -1.45044701000100 -1.72542982638264
 6  3.07063812701270 -0.68250899919992 -1.71333523242324
 6 -1.43734230643064 -0.41826568356836  3.97277278557856
 6 -5.76014123822382 -2.00118659895990  1.19751075667567
 6  2.57937759465947  0.47938530673067 -2.45007961796180
 6  2.07661709410941  1.04363005500550  2.75367200880088
 6  1.27387075357536  0.83606025462546 -1.86350245624562
 6  4.19345469456946 -1.47474690379038 -2.01119074917492
 6 -5.75009934603460 -2.49948203860386 -2.00545399359936
 6  5.48720427142714 -1.03037478267827 -1.21165458235824
 6  3.16400649604961  1.07261566416642 -3.66738324752475
 6  0.39119154325433  1.90120526742674 -2.09638138323832
 6  3.19289793009301  1.78840842634263  3.67238258345835
 6 -0.64556838843884  2.14154878707871 -1.23964925282528
 6 -6.86526045254525 -3.35360912501250 -1.77836639533953
 6  6.69505907550755 -1.94077233233323 -1.41677236723672
 6 -1.51870052485249  3.43427566076608 -1.26128420312031
 6 -2.28798288768877  3.35902638163816 -0.17818572477248
 6 -1.94657693009301  2.05667660116012  0.48880781278128
 6 -1.40172015041504  4.36710297049705 -2.36759852785279
 6 -3.26442707920792  4.44243472637264  0.37863210291029
 6 -2.09240313151315  5.56849226742674 -2.39668340114011
 1 -3.44179267246725 -0.27361285118512  1.09315351995200
 1 -2.82573419981998 -3.25973109810981  1.13033338243824
 1 -3.23778359815982 -2.36338978337834  2.47594698339834
 1 -0.46001130593059 -2.83666243134313 -0.05908889888989
 1 -2.03448183788379 -0.33819012251225 -0.68252235463546
 1  1.52835079647965 -0.48675012881288  4.26114821392139
 1  2.89490682358236 -0.76457834913491  3.06491142054205
 1  2.84693350725072 -2.70103168606861  0.71927498069807
 1 -1.85845847514752 -1.20387966196620  4.66042310411041
 1 -0.72943271127113  0.17201299769977  4.61922827932793
 1 -2.10912022582258  0.31576402310231  3.33387215251525
 1 -5.58927971517152 -1.43399153035304  1.97814210721072
 1 -5.70158891959196 -2.85229933453345  1.76670951725173
 1 -6.72311968876888 -2.08197384078408  0.82485884758476
 1  2.03521966136614  1.10661060296030  1.62112972427243
 1  1.15265521702170  1.71837408170817  2.79716769046905
 1  0.27321557915792  0.08740311011101 -0.21797382968297
 1  4.59948566776678 -1.62046510551055 -3.00673627552755
 1  4.12594342414241 -2.61971375057506 -1.79192630063006
 1 -5.42008414681468 -2.23894481908191 -3.10065352915292
 1  5.28341626292629 -0.98449892979298 -0.08881565786579
 1  5.75416685798580 -0.00683767986799 -1.50177465996600
 1  4.08567847934794  0.39120561266127 -4.02466069556956
 1  3.72589834143414  1.94417549624962 -3.26762909830983
 1  2.44556034533453  1.44109860776078 -4.51248440044004
 1  0.58130204020402  2.55002649914992 -2.96658755075507
 1 -7.25643472957296 -3.46644882878288 -0.74445346654665
 1 -7.49270753565357 -3.62627395789579 -2.57296034953495
 1  3.94906863436344  3.40084944594459  3.57776103030303
 1 -0.85843972277228  4.16788806830683 -3.32284017941794
 1 -4.14108269786979  4.80130671247125 -0.45515666716672
 1 -3.88789753945395  3.98217301090109  1.19395020642064
 1 -2.78102641884188  5.23885417651765  0.81152692259226
 1  8.54905059855986 -1.97136029022902 -0.58538917391739
 1 -2.08935185978598  6.40247070417042 -3.19971482368237
 1 -2.50951330423042  5.84501587738774 -1.33761966946695

