%nproc=4
%Mem=4GB
# td=(NStates=1) B3LYP/SVP 

TD

0 1
 8 -5.38126435643564 -0.24374893529353 -3.26045583528353
 8  3.07628763426343  3.01010826552655  3.33173925232523
 8  3.34086243484348  0.67751315031503  3.28637052215222
 8  1.85432307180718 -7.45544181428143  1.22576108240824
 8  0.33150803880388 -6.91710813441344 -0.49084706760676
 8  1.81357840594059  4.11849497229723  0.00485999339934
 7 -2.38448805990599 -0.85868429862986  0.60589760636064
 7 -4.41346622802280  0.54304197069707 -1.20279863466347
 7  1.87301769336934 -0.64229580258026 -0.44138261586159
 7  2.59742528442844  1.90898664416442 -0.48497524422442
 6 -4.73801019221922  1.15595709270927 -0.05422962316232
 6 -4.44124151695170  0.40832099739974  1.23376073377338
 6 -3.02471756735674  0.09339959665967  1.36751876487649
 6 -1.96884598129813  0.57123208040804  2.15132830243024
 6 -0.73511012131213 -0.00100553605361  1.88454913251325
 6 -0.95047923572357 -1.04028708760876  0.94081590099010
 6 -6.26099845594559  1.45442323162316 -0.15126034143414
 6  0.50506911351135  0.24003467996800  2.68753777387739
 6 -6.66901741624162  0.82251149954995 -1.32565829452945
 6 -0.22540879697970 -1.96299503640364  0.14717679917992
 6  1.06062295849585 -1.85441498809881 -0.35532711491149
 6 -5.41943254355436  0.20052826752675 -2.13857116861686
 6  1.93034711991199 -2.85144568296830 -0.95381239053905
 6 -2.11241694259426  1.68369412631263  3.16386077627763
 6 -7.08473596679668  2.21692982218222  0.77404139003900
 6  3.17591392509251 -2.34016396759676 -1.27823906900690
 6  1.16868289558956  1.65122361576158  2.43789742564256
 6  3.04222229752975 -0.91842046764676 -1.02491647984798
 6  1.63731750195020 -4.29507547194719 -0.90425214211421
 6 -8.07098300430043  0.70937257485749 -2.02229061686169
 6  1.73315088068807 -5.17056799139914  0.31400739623962
 6  4.24983059205921 -3.11572004080408 -1.89927915921592
 6  4.02402327292729  0.08267767126713 -1.39440412281228
 6  2.64686530773077  1.70344793299330  3.13067896779678
 6  3.73826820462046  1.52763817531753 -1.06023259055906
 6 -9.14636962036204  0.72682484278428 -1.34690950625062
 6  1.24633969866987 -6.60621727192719  0.31956061506151
 6  4.57719655425543  2.67804455935594 -1.44225130823082
 6  3.90691996039604  3.79396992069207 -1.05431672597260
 6  2.67822939373937  3.37226507760776 -0.50036879957996
 6  5.86576018131813  2.59364420502050 -2.19839179427943
 6  4.28355397519752  5.23760863666367 -1.13039505290529
 6  6.71459151675167  3.54952063686369 -2.60037451435144
 1 -4.14335882198220  2.15336641674167  0.08259129942994
 1 -5.02240689758976 -0.52472394849485  1.32226697089709
 1 -4.78829566946695  1.09960396009601  1.95825273497350
 1 -2.93881292119212 -1.39870726622662 -0.16345326712671
 1 -3.57801879917992  0.49127104420442 -1.62343989488949
 1  0.35216965166517  0.09527983998400  3.96525607370737
 1  1.33796780618062 -0.50225489288929  2.12107724052405
 1 -0.69796845774577 -2.68230569556956  0.08543354565457
 1 -3.18583872917292  1.94595585968597  3.59371936163616
 1 -1.61770298539854  1.73732309620962  4.12234062196220
 1 -1.95744212531253  2.64440826062606  2.69698712051205
 1 -6.36004945584558  2.74744354785479  1.37692992599260
 1 -7.62875264226423  1.52638244744474  1.37136414711471
 1 -7.83969990719072  3.03493957705771  0.18948742894289
 1  1.17044975337534  1.96582861946195  1.27754582188219
 1  0.56272938543854  2.47608443044304  2.74512033623362
 1  1.43467779417942  0.34243488848885 -0.27621298659866
 1  2.12926071827183 -4.76165999639964 -1.75636024572457
 1  0.65263706120612 -4.66795664316432 -1.34988347174717
 1 -7.97257831963196  0.59005923652365 -3.20686662486249
 1  1.27594978387839 -4.80285146484648  1.28849642624262
 1  2.78405467556756 -5.26079328382838  0.57520533543354
 1  3.68374343664366 -4.00164761696170 -2.60645410651065
 1  5.07307840624062 -3.58688753895390 -1.07451106870687
 1  4.89343077617762 -2.35206743934393 -2.69971904550455
 1  4.98058767826783 -0.15229732423242 -1.79259543524352
 1 -9.42778637913791  0.76049350485049 -0.33188587838784
 1 -10.09830796439644  0.74028544424442 -1.79928602860286
 1  3.98502318881888  2.95110849454946  3.43696846254625
 1  6.20730419861986  1.54983713291329 -2.18998781378138
 1  5.28786948674867  5.49132189638964 -0.47973659355936
 1  4.27837986048605  5.57225399109911 -2.20113265816582
 1  3.52387005660566  5.82604221062106 -0.58157989958996
 1  1.34911221932193 -8.37392854995499  0.98869492439244
 1  7.71383382778278  3.34563010291029 -3.20656793009301
 1  6.18204009150915  4.66554206640664 -2.71311366386639

