%nproc=4
%Mem=4GB
# td=(NStates=1) B3LYP/SVP 

TD

0 1
 8 -5.33195942594259  0.14945038463846 -3.32350213991399
 8  3.28844885038504  2.82053930863086  3.07766384478448
 8  3.41292964156416  0.57032243124312  2.96268815391539
 8  1.64752239173917 -7.24134040414041  1.42174068036804
 8  0.64973986198620 -6.97648407200720 -0.47842582548255
 8  1.58413546164616  3.88613173597360  0.15959546694669
 7 -2.24338394949495 -0.96405483568357  0.61687870447045
 7 -4.38637351875188  0.63065073157316 -1.35694404920492
 7  1.87412780438044 -0.74671624462446 -0.24047252485249
 7  2.44500004190419  1.82564831033103 -0.57060380708071
 6 -4.71583797499750  1.27542903990399 -0.01532573277328
 6 -4.28284567736774  0.41229139443944  1.15103246094609
 6 -2.85894098969897  0.00499075577558  1.32397441044104
 6 -1.90010910761076  0.67410236743674  2.07192036163616
 6 -0.63201981228123 -0.01685712121212  1.82690336793679
 6 -0.94111829962996 -1.05569862876288  0.91616343574357
 6 -6.24433678977898  1.42349013831383 -0.15068028342834
 6  0.67964657125713  0.16195687218722  2.63508252835284
 6 -6.60780129462946  0.96508575697570 -1.44439016771677
 6 -0.12874913101310 -2.09403814071407  0.28029011051105
 6  1.14074097029703 -1.87092663926393 -0.23709529172917
 6 -5.38316891719172  0.51193940864086 -2.14302161366137
 6  1.96567065226523 -2.92190272867287 -0.86374338363836
 6 -2.22234793569357  1.73616937383738  3.11314570477048
 6 -7.04812230543054  2.09687781698170  0.85588957485749
 6  3.14976130983098 -2.40589054025403 -1.25882712781278
 6  1.15802182948295  1.58087658105811  2.70969460536054
 6  2.95235331063106 -0.91537016261626 -0.96371035923592
 6  1.59079284948495 -4.32378834323432 -0.93354507140714
 6 -7.97667357335734  0.68020965856586 -1.98542693049305
 6  1.71919948554855 -5.09856079067907  0.41517751325132
 6  4.37223283228323 -2.88821729052905 -1.95022425372537
 6  3.91936280688069  0.10298970247025 -1.26461114351435
 6  2.72366298749875  1.64559214741474  2.95620152005201
 6  3.57155153295330  1.49482489398940 -1.12929949724972
 6 -9.18957394079408  0.81080324062406 -1.50454526982698
 6  1.29165423012301 -6.45801245144514  0.36228488748875
 6  4.44036287088709  2.71914866976698 -1.52536962006201
 6  3.71419068746875  3.77255777947795 -1.09808110241024
 6  2.47815938673867  3.27227507860786 -0.49858862156216
 6  5.68214181948195  2.52477731833183 -2.06762871797180
 6  4.06702232203220  5.19952482828283 -1.20378239163916
 6  6.51969202680268  3.51762744754475 -2.41906638353835
 1 -4.24866935303530  2.33278435853585  0.12920596089609
 1 -4.94362901980198 -0.46553802990299  1.30809555375538
 1 -4.69784662456246  0.98818281798180  2.20620753045304
 1 -2.94318335823582 -1.40292768826883 -0.17895481728173
 1 -3.40447144444444  0.66022793989399 -1.61307885878588
 1  0.42100653535354 -0.33500318831883  3.63180272837284
 1  1.33608761816182 -0.48533320072007  1.96103123592359
 1 -0.65757441834183 -2.92709017401740  0.14381938423842
 1 -3.29715986128613  1.89940120422042  3.30353034273427
 1 -1.93146436153615  1.40297966186619  4.05703409130913
 1 -1.67939432053205  2.61070489028903  2.81052847464746
 1 -6.37636108700870  2.62846164966497  1.50106233923392
 1 -7.39561932893289  1.23211302050205  1.58765577627763
 1 -8.01003694089409  2.82536861996200  0.70479896009601
 1  1.10987369576958  1.95059709630963  1.54771283858386
 1  0.67258037053705  2.30696751875187  3.37685350955096
 1  1.59478380478048  0.27184782978298 -0.06462182748275
 1  2.32899069126913 -4.64687851825182 -1.76590119981998
 1  0.58878067556756 -4.55076492399240 -1.35952443584358
 1 -7.79428048984899  0.30864109470947 -3.11492743094309
 1  1.07042923182318 -4.64968614831483  1.30688826542654
 1  2.77753402350235 -4.88748595309531  0.92486030093009
 1  4.30626568886889 -3.92606005820582 -2.09704316541654
 1  5.39389048744875 -2.91198004820482 -1.27059067666767
 1  4.52077351045105 -2.29055128772877 -2.93044211781178
 1  4.86941656115612 -0.19521161566157 -1.67548372407241
 1 -9.44026762726273  0.99864732023202 -0.23807649744974
 1 -9.96231436503650  0.68546996269627 -2.07864396439644
 1  4.19186387288729  2.70591397509751  2.99277404310431
 1  6.00792426062606  1.57776992619262 -2.33053186818682
 1  5.01524222402240  5.61140390459046 -0.59496811671167
 1  4.43631565406541  5.51886865256526 -2.30081262616262
 1  3.38949661926193  5.87751735813581 -0.97224896649665
 1  1.55835314341434 -8.21597275437544  1.13971002590259
 1  7.60336278067807  3.33520906080608 -2.96022329562956
 1  6.09171105860586  4.55988150035004 -2.24373672617262

