%nproc=4
%Mem=3GB
# td=(NStates=1) B3LYP/SVP 

TD

0 1
 8 -3.17763467366737 -1.32734779027903 -2.84042469676968
 8  3.13000345514551  3.11507316581658  3.03044731563156
 8  3.79613392159216  1.41299842814281  4.36387083068307
 8  7.60449905280528 -1.41233734793479 -0.60141090289029
 8  6.65174933133313 -2.90791158605861 -2.03293974207421
 8 -2.63395430193019  1.61062655175518  1.40251031153115
 7 -0.34097984418442 -2.48762507680768  0.94460930173017
 7 -2.67712975097510 -1.19365450045004 -0.57765991059106
 7  1.10270181958196  0.11826273597360 -0.78590352755276
 7 -1.04053319881988  1.44320972887289 -0.21748264616462
 6 -3.42435758545855 -1.34412197459746  0.68424539843984
 6 -2.72641126722672 -2.32851699789979  1.67638294509451
 6 -1.30976661836184 -2.04622243624362  1.71986997559756
 6 -0.69056885918592 -1.32934412611261  2.85602362286229
 6  0.74438555115512 -1.20191519251925  2.48494968956896
 6  0.94322700890089 -1.85266170087009  1.20785558955896
 6 -4.73864881148115 -1.93299894859486  0.25270215751575
 6  1.81221581298130 -0.41480180978098  3.15183733823382
 6 -4.79943630503050 -2.00103881228123 -1.09084942544254
 6  2.00680863726373 -1.84401259345935  0.24909718841884
 6  2.09463548544854 -0.85049696189619 -0.71669557105711
 6 -3.51426609650965 -1.52290425572557 -1.66467375077508
 6  2.95757682088209 -0.71588233653365 -1.77807170607061
 6 -1.27572614481448 -0.48689254625463  3.95859136743674
 6 -5.76623184728473 -2.28025450575057  1.20786179177918
 6  2.60358001490149  0.41348871707171 -2.50078468846885
 6  1.94534396679668  1.15498119011901  2.71742838443844
 6  1.43978734523452  1.00919756835684 -1.79627573357336
 6  4.29457480658066 -1.48614804390439 -2.03162279237924
 6 -5.83778811491149 -2.49257134753475 -1.95995944414441
 6  5.45522107310731 -1.16345809100910 -1.20766418331833
 6  3.27947804320432  0.91708011061106 -3.72609911911191
 6  0.54153657775778  2.04330947784778 -1.97203894899490
 6  3.06581522182218  1.86508609410941  3.47606295149515
 6 -0.50162399399940  2.32184681688169 -1.13667895579558
 6 -6.96230015651565 -3.14470823492349 -1.63143170187019
 6  6.68733830343034 -1.98022627772777 -1.36661735173517
 6 -1.34779343414341  3.53367560076008 -1.21067914261426
 6 -2.26889097849785  3.39423990299030 -0.15766367256726
 6 -2.04944721712171  2.08889982348235  0.50954988698870
 6 -1.24757473587359  4.66325258545855 -2.20955272327233
 6 -3.43987462396240  4.20701118401840  0.32076631633163
 6 -2.03844773597360  5.73510892909291 -2.37073080588059
 1 -3.64395288848885 -0.37248273817382  1.12523672827283
 1 -2.84561618801880 -3.38241336633663  1.48075842494249
 1 -3.28121794159416 -2.28252169656966  2.61962135083508
 1 -0.51478678347835 -2.82616138123812  0.10101711171117
 1 -2.02744113381338 -0.31296760026003 -0.62179628202820
 1  1.39506746814681 -0.32509396319632  4.19422152125212
 1  2.72378971187119 -1.14174606590659  3.07249217861786
 1  2.66836565046505 -2.69850143304330  0.25254830803080
 1 -1.78052068136814 -1.17509678367837  4.62760982278228
 1 -0.62338210621062  0.13141893829383  4.54663101960196
 1 -1.95128444224422  0.20067251395139  3.36552531783178
 1 -5.56536732393239 -1.83120125132513  2.20277457045705
 1 -5.78708746944694 -3.37593169776978  1.41660450675068
 1 -6.89679705650565 -2.06602224562456  0.85407176887689
 1  2.43053919331933  1.31247118901890  1.68339595089509
 1  0.84879483098310  1.68737098139814  2.69397737143714
 1  0.34424268186819  0.28191256105611 -0.14258629092909
 1  4.68649436863686 -1.71530458945895 -3.14431003290329
 1  4.06560739053905 -2.52484426362636 -1.92845995399540
 1 -5.79949208760876 -1.82676360096010 -3.03650711451145
 1  5.08440636193619 -1.07511799169917 -0.08976575287529
 1  5.62154359565957 -0.14047104320432 -1.53373785628563
 1  4.16772668416842  0.18267475957596 -4.21314954445444
 1  4.16518226982698  1.74340541924192 -3.51151348674868
 1  2.46607239653965  1.26007050495050 -4.42279543154315
 1  0.89014292429243  2.81072256875688 -2.67143803580358
 1 -7.08273735983598 -3.87650983488349 -0.67589661086109
 1 -7.69753801870187 -3.24237556805681 -2.47004005750575
 1  4.04575830333033  3.43036239723972  3.56796005020502
 1 -0.33973785258526  4.76896817631763 -2.75161305670567
 1 -4.19386797639764  4.37113369516952 -0.55330648214821
 1 -3.86810556025603  3.69275406900690  1.18530934233423
 1 -3.08592690889089  5.38384867596760  0.38049381928193
 1  8.24559025252525 -2.14004715891589 -0.48227886288629
 1 -1.79796272087209  6.36454691179118 -3.19460431263126
 1 -2.88795114801480  5.83019439523952 -1.86877278477848

