%nproc=4
%Mem=4GB
# td=(NStates=1) B3LYP/SVP 

TD

0 1
 8 -5.57209343934393  0.02351779137914 -3.33377316701670
 8  3.06157616311631  2.94619187388739  3.22823890229023
 8  3.37045539413941  0.66018141714171  2.93922580768077
 8  1.50715835533553 -7.05450172027203  1.53710221652165
 8  0.68178306630663 -7.04093051665166 -0.53943192609261
 8  1.74165121322132  3.93840696349635  0.02456196359636
 7 -2.41278088918892 -0.91913034323432  0.52418943554355
 7 -4.39726460786079  0.32925059155916 -1.21729008380838
 7  1.92649304090409 -0.73367494049405 -0.36705518311831
 7  2.54806034793479  1.87813355885589 -0.52598934563456
 6 -4.78616500770077  1.07273877087709 -0.04666886708671
 6 -4.36173356615662  0.25201536683668  1.26656401410141
 6 -2.99302439803980  0.04157441414141  1.39538155115512
 6 -1.98929802650265  0.58978393559356  2.14097726732673
 6 -0.78731534183418 -0.08108354385439  1.89759043664366
 6 -0.98308249604960 -1.15217827672767  0.81873369276928
 6 -6.27433979007901  1.38324611391139 -0.07778299369937
 6  0.63997260386039  0.11167184368437  2.54962398249825
 6 -6.74254476897690  0.78937818621862 -1.32295802450245
 6 -0.14546080218022 -2.07020575747575  0.21016309780978
 6  1.10872776897690 -1.83831337793779 -0.24347592979298
 6 -5.51563216351635  0.30057827252725 -2.12569988148815
 6  1.98420250545054 -2.86697723612361 -0.82828983828383
 6 -2.24008970987099  1.53284904180418  3.29088347854785
 6 -7.08404589778978  2.12419054825483  0.83636762266227
 6  3.23705003870387 -2.33548349954995 -1.18674992009201
 6  1.18324435173517  1.62423091649165  2.55190882678268
 6  3.09665774107411 -0.89111773737374 -0.96135012321232
 6  1.75299907010701 -4.41304726912691 -0.99883160006001
 6 -8.00205611161116  0.92784442204220 -1.98060644844484
 6  1.83715128072807 -5.00612154675468  0.35309130463046
 6  4.52143775277528 -2.86946541534153 -1.82838206950695
 6  3.93877474807481  0.18378778227823 -1.31484616701670
 6  2.62484310551055  1.58513610181018  2.84815071497150
 6  3.68144252205221  1.54668007950795 -1.10698726602660
 6 -9.23683866726673  1.27920008030803 -1.50841565686569
 6  1.20098516321632 -6.49271592179218  0.32296095509551
 6  4.55776461106111  2.67725448034804 -1.47931501460146
 6  3.88474774317432  3.82512303600360 -1.09350064436444
 6  2.65067663846385  3.35577342844284 -0.43106186888689
 6  5.81376498179818  2.56944178477848 -2.24710666576658
 6  4.21524714451445  5.28210308610861 -1.11812382578258
 6  6.75466552415241  3.50616630143014 -2.60735521242124
 1 -4.03165765186519  2.04067514761476  0.05707874817482
 1 -4.99611426832683 -0.78147962406241  1.41935667986799
 1 -4.86049288918892  0.96120011971197  2.02160907060706
 1 -2.99106814671467 -1.72000939643964 -0.01351827362736
 1 -3.51440243754375  0.00954287138714 -1.50726827772777
 1  0.50812524722472 -0.11088077607761  3.83828337643764
 1  1.38230223962396 -0.54780944834483  2.08581371417142
 1 -0.62513117401740 -2.96805427042704 -0.19433443114311
 1 -3.37689783508351  1.68026929102910  3.13171316101610
 1 -1.79622083718372  1.19596896079608  4.28716710461046
 1 -1.83903028412841  2.59715353515352  2.95799322112211
 1 -6.17487093799380  2.25687449094910  1.76809904290429
 1 -7.80989075607561  1.31257106630663  1.27398440914091
 1 -7.62652859005901  3.05060114321432  0.37583606380638
 1  0.90437314571457  2.02014405100510  1.63561162846285
 1  0.63347646014601  2.33480030203020  3.19039486368637
 1  1.59211353775378  0.20116076107611 -0.10919628492849
 1  2.20622841504150 -4.85926975737574 -1.78418302800280
 1  0.66024782228223 -4.66039588708871 -1.51116960036004
 1 -7.95437649944994  0.67769800040004 -2.94816075427543
 1  1.14194638353835 -4.42737391709171  1.01100867746775
 1  2.93677994809481 -5.16888409290929  0.76158397329733
 1  4.53210827312731 -4.09975742794279 -1.53886734783478
 1  5.33723482188219 -2.64383323352335 -1.11817543514351
 1  4.56815824892489 -2.61990422302230 -2.91442051565156
 1  4.97633725322532 -0.18319041354135 -1.81499767546755
 1 -9.43951755225523  1.49720717621762 -0.40993368316832
 1 -10.31179931353135  1.05233664936494 -1.87442354235424
 1  4.02820750725073  3.06108949264927  3.28088285398540
 1  6.43214668286829  1.51772392159216 -2.31637045204520
 1  5.27544824462446  5.34387715191519 -0.70249886978698
 1  3.97953997649765  5.56686345204520 -2.24179672457246
 1  3.58548621822182  5.83374298069807 -0.29507124872487
 1  1.15153246134613 -7.87360851795180  1.32001805670567
 1  7.49563200760076  3.20111565146515 -3.23498077137714
 1  6.65483737123712  4.59416492869287 -2.59277162966297

