%nproc=4
%Mem=4GB
# td=(NStates=1) B3LYP/SVP 

TD

0 1
 8 -5.47589381938194  0.13989942954295 -3.24420421012101
 8  3.14942494799480  2.86604385908591  3.11109718811881
 8  3.31035938453845  0.56529192819282  2.88989087418742
 8  1.80013765326533 -7.26234250435043  1.52187069336934
 8  0.66415130313031 -6.98047447104710 -0.43497148004801
 8  1.59572662076208  3.98147126992699 -0.02646313891389
 7 -2.35368497959796 -0.91435986618662  0.51780879747975
 7 -4.42157703910391  0.58687635413541 -1.19640799559956
 7  1.91106149774977 -0.69631120412041 -0.42617109470947
 7  2.49640518241824  1.92825857135714 -0.67342408910891
 6 -4.84996138733873  1.24863636063606 -0.02691689188919
 6 -4.46466385918592  0.34467463276328  1.20330768846885
 6 -2.95768086368637  0.09867012371237  1.33568558155816
 6 -1.92056115281528  0.58941389858986  2.15855902550255
 6 -0.68309491979198 -0.02528796429643  1.69113979157916
 6 -0.95623981178118 -0.95684874377438  0.67947976737674
 6 -6.36211856795680  1.39846763606361 -0.15643085848585
 6  0.66723533013301  0.13225390189019  2.41597061716172
 6 -6.67726824132413  0.84700394879488 -1.24661038973897
 6 -0.17673392949295 -1.92697143404340  0.04767684918492
 6  1.07953484968497 -1.90126967356736 -0.51402298449845
 6 -5.57108770907091  0.36535475017502 -2.03210052155216
 6  1.95407949314931 -2.88784932333233 -0.85080208950895
 6 -2.11404710561056  1.63433919081908  3.14341873207321
 6 -7.19341683488349  2.01720985018502  0.97901188708871
 6  3.17691402510251 -2.31587153835384 -1.25927717281728
 6  1.16718274557456  1.61217971137114  2.48423205910591
 6  3.12207028232823 -0.93148177377738 -0.94143813201320
 6  1.52340611081108 -4.35910187458746 -0.97024874177418
 6 -7.97955386138614  0.66797843544354 -1.98605699349935
 6  1.64590215581558 -5.04590552515252  0.47531352685269
 6  4.25921153015302 -3.06699516831683 -1.90687991929193
 6  4.08148901950195  0.10030943444344 -1.16279096149615
 6  2.65813643484348  1.54824241244124  2.90757665756576
 6  3.69572395019502  1.57673308480848 -1.04310087738774
 6 -9.11611659505951  0.89878203850385 -1.41327614291429
 6  1.38215328002800 -6.54337098729873  0.41443010201020
 6  4.54824365896590  2.65162191709171 -1.31120820392039
 6  3.84456372477248  3.90054057775778 -1.11751304560456
 6  2.50219178997900  3.31349920102010 -0.54134289698970
 6  5.93558716401640  2.49955479607961 -1.93850580568057
 6  4.29744536433643  5.32334721052105 -1.09569158255826
 6  6.80996105370537  3.43159884468447 -2.34292876977698
 1 -4.38626311241124  2.20647172727273  0.13400644094409
 1 -4.91868652555255 -0.65300677677768  0.85758050225023
 1 -4.77130397029703  0.65258925862586  2.19185609530953
 1 -2.91281032093209 -1.42782017751775 -0.48022494429443
 1 -3.64874587188719  0.62180409750975 -1.61500905180518
 1  0.39472390709071 -0.12942263026303  3.55841538963896
 1  1.65445945534554 -0.40274494189419  2.08423355615562
 1 -0.66904556545655 -2.92408987398740 -0.10981597929793
 1 -3.26929707500750  1.65384664876488  3.54363435313531
 1 -1.57435865096510  1.55617498139814  4.15967435533553
 1 -1.71115749684968  2.63806762656266  2.84201162296230
 1 -6.73248669956996  2.63707251075108  1.65391762476248
 1 -7.63921368836884  1.03793360256026  1.67055406610661
 1 -8.18014395159516  2.48338442154215  0.49483796399640
 1  1.26279898829883  2.15733777037704  1.49061712901290
 1  0.57966107860786  2.17264408640864  3.40086591079108
 1  1.43343767016702  0.13885453045305 -0.42571793709371
 1  2.13844163636364 -5.06883071347135 -1.59037364706471
 1  0.49687148464847 -4.35819566706671 -1.17101558495850
 1 -8.01561262306231  0.41610184078408 -2.98409434763476
 1  0.97640982988299 -4.39748092779278  1.28177575417542
 1  2.76399266936694 -4.91202840734073  0.91254906980698
 1  4.06260132243224 -4.09675712791279 -2.28915237633763
 1  5.21661275967597 -3.36580543074307 -1.26951056865687
 1  4.96698813191319 -2.67258949154916 -2.83885295889589
 1  5.19994961446145 -0.03811590609061 -1.40229640534053
 1 -9.20860446094609  1.50648810431043 -0.31858454825483
 1 -10.00590872447245  0.66766818251825 -1.85090119011901
 1  4.08866355285529  2.77535091879188  3.18376314201420
 1  6.37332080028003  1.54301645084508 -2.04853366836684
 1  5.15411611141114  5.51808457265727 -0.53756237613761
 1  4.33921594409441  5.97723448914891 -2.06499904480448
 1  3.32051972157216  5.69180878727873 -0.64108585018502
 1  1.57099440754075 -8.02102325942594  1.40728678357836
 1  7.85907835223522  3.17290283018302 -2.72708998229823
 1  6.66679856735673  4.57383289548955 -2.64284663716372

