%nproc=4
%Mem=3GB
# td=(NStates=1) B3LYP/SVP 

TD

0 1
 8 -3.14177108730873 -1.14322937843784 -2.87162781708171
 8  3.00326078087809  3.13744540304030  3.11538580948095
 8  3.45364967316732  1.47510463876388  4.50855529912991
 8  7.73681228412841 -1.45347146134613 -0.94503526532653
 8  6.51042519891989 -3.16599739463946 -1.91289773787379
 8 -2.55346625312531  1.68552404150415  1.53975403590359
 7 -0.26655240144014 -2.37029334363436  0.91900674147415
 7 -2.65518755675568 -1.19578471347135 -0.61604374897490
 7  1.10195174457446  0.12728363806381 -0.74254919211921
 7 -0.94638378387839  1.46941234913491 -0.10276117401740
 6 -3.34617976767677 -1.37981554395440  0.67294426832683
 6 -2.63723234933493 -2.35275942214221  1.61496680348035
 6 -1.18302394409441 -2.05334314831483  1.88665665426543
 6 -0.44187398969897 -1.33738493019302  2.90755877637764
 6  0.79806091869187 -1.12284728572857  2.40165135973597
 6  1.01462414861486 -1.93027946264626  1.26030083408341
 6 -4.76488143474347 -1.97288293699370  0.21816870417042
 6  1.87113170457046 -0.38065839543954  3.16226838133813
 6 -4.73659002040204 -1.99619832823282 -1.16450679117912
 6  2.14149210561056 -1.95134332653265  0.19063134183418
 6  2.04264028592859 -0.92580449264926 -0.71165506700670
 6 -3.44933960386039 -1.37710967626763 -1.69081636503650
 6  3.02365342854285 -0.69857060536054 -1.87026092499250
 6 -1.12357092929293 -0.42480633763376  3.95908141644164
 6 -5.71192641674167 -2.35915239553955  1.21568257385739
 6  2.61314097099710  0.43068043624362 -2.50537514751475
 6  1.77866729912991  1.08928462046205  2.76684332593259
 6  1.35379874637464  0.98894554315432 -1.87398350435043
 6  4.23814916401640 -1.49748917801780 -2.03655328542854
 6 -5.81784612071207 -2.34599669006901 -2.02300574877488
 6  5.33319887088709 -1.19048079327933 -0.96984040094009
 6  3.07920801620162  1.04468287088709 -3.75996250545055
 6  0.52022444654465  2.04474962186219 -2.00556230133013
 6  2.90078871917192  1.85358494399440  3.47793313851385
 6 -0.64624845644564  2.29697432963296 -1.11981726962696
 6 -6.89265319181918 -3.16968073217322 -1.67001556025603
 6  6.55364493409341 -2.04211246634663 -1.38171886188619
 6 -1.43292194699470  3.46886912011201 -1.25385346004600
 6 -2.25717980738074  3.38898937793779 -0.18507641384138
 6 -1.99098137053705  2.09663059655966  0.57812674467447
 6 -1.28682866126613  4.50781704190419 -2.32301406940694
 6 -3.40122075857586  4.32305278817882  0.23050729042904
 6 -1.97353124432443  5.54970038823882 -2.38371210401040
 1 -3.57130562376238 -0.37763325322532  1.06611081568157
 1 -2.75810743714371 -3.42713783878388  1.32301265036504
 1 -3.21271109090909 -2.26529997439744  2.57251664036404
 1 -0.27567287208721 -2.87722648774877  0.04530154015402
 1 -1.82081047074708 -0.45142144564456 -0.48421252365237
 1  1.62693065446545 -0.52322377617762  4.17935003410341
 1  2.79178651155116 -0.95736762806281  3.04515944534453
 1  3.05856467036704 -2.77746932983298  0.23752680588059
 1 -1.73733636293629 -1.00082935693569  4.64930199199920
 1 -0.46361612961296  0.40136593299330  4.50585694219422
 1 -1.94871418521852  0.24788723542354  3.33533229852985
 1 -5.80916170337034 -1.51568970017002  2.23481777477748
 1 -5.43505226592659 -3.36386049064907  1.58091093739374
 1 -6.73963133993399 -2.18819446284628  0.66625298699870
 1  1.68551469086909  0.97412735463546  1.76280389168917
 1  0.75851580308031  1.49000124442444  3.26276425012501
 1  0.37817607520752  0.37601197099710 -0.13734576687669
 1  4.46527224642464 -1.39785284428443 -3.12261786368637
 1  4.12739356915692 -2.51207298649865 -1.78174528252825
 1 -5.56747888628863 -2.04144506910691 -3.08885234903490
 1  4.90758868016802 -1.40678115801580  0.01747497119712
 1  5.83640508180818 -0.06733372947295 -0.91115559805981
 1  4.04489440094009  0.51269776187619 -4.14877310681068
 1  3.36363211481148  2.13260433913391 -3.53850618601860
 1  2.36277206650665  1.23779827772777 -4.60920407240724
 1  0.78074198419842  2.91566306280628 -2.66174706670667
 1 -7.04689377547755 -3.57854003790379 -0.63428244944494
 1 -7.59697796269627 -3.48611994249425 -2.39442249574957
 1  3.70545427292729  3.57341670267027  3.57384063826383
 1 -0.37093097189719  4.21029230873087 -2.94181207660766
 1 -4.00514910451045  4.80968755055506 -0.68926007750775
 1 -4.26195494519452  3.68735352895289  0.92075288668867
 1 -3.24436275247525  5.15459575067507  0.81082685258526
 1  8.37712340584058 -2.29512266646665 -1.33696433143314
 1 -1.74861778637864  6.38676913401340 -3.08878373057306
 1 -2.69409176207621  5.84316569236924 -1.70302621012101

