%nproc=4
%Mem=3GB
# td=(NStates=1) B3LYP/SVP 

TD

0 1
 8 -3.05830274047405 -1.25638069356936 -2.89047970227023
 8  2.91742219701970  3.19057071557156  2.99936420732073
 8  3.79259356755676  1.48665579387939  4.21889633323332
 8  7.67826642954295 -1.47778389258926 -0.81585234703470
 8  6.65768992539254 -3.22276307120712 -1.80383683178318
 8 -2.77489839633963  1.55424091319132  1.47653771427143
 7 -0.25139088528853 -2.45918223252325  1.01194603540354
 7 -2.68421045904590 -1.16704183918392 -0.56946909150915
 7  1.06008755815582  0.09177008670867 -0.76614155135514
 7 -1.09876902240224  1.40806621452145 -0.18155905380538
 6 -3.36240138983898 -1.40917848024802  0.65920289418942
 6 -2.68373699979998 -2.37030117631763  1.69958526532653
 6 -1.19394503620362 -2.02133994799480  1.89064705330533
 6 -0.47313711601160 -1.29846103780378  2.86547456795680
 6  0.80277138973897 -1.21865686668667  2.52088328292829
 6  0.98873155935594 -1.89802623732373  1.39855465946595
 6 -4.74717966456646 -1.85326097479748  0.22072896019602
 6  1.83660825222522 -0.44265459505951  3.18408056255626
 6 -4.70299666106611 -2.09884859325933 -1.12599293979398
 6  1.94593254965497 -1.92718091029103  0.28057033573357
 6  1.93940996289629 -0.97461937413741 -0.70627452895290
 6 -3.33834850475048 -1.49392135743574 -1.69992727612761
 6  2.97655871907191 -0.71239198749875 -1.79728362726273
 6 -1.15311388358836 -0.54094795179518  4.07500300860086
 6 -5.81055627972797 -2.10402688298830  1.25381638723872
 6  2.53657331423142  0.42007937613761 -2.43779838983898
 6  1.96793622602260  1.00143583558356  2.81308795039504
 6  1.35092845934593  0.92256890549055 -1.80152625862586
 6  4.21447679677968 -1.42895232433243 -2.08750838093809
 6 -5.68169250535053 -2.46343843424342 -2.03755720392039
 6  5.42297784878488 -1.07169891509151 -1.39449286618662
 6  3.14166426182618  1.08043644624462 -3.66793330253025
 6  0.59002142624262  2.05356050295030 -1.95291703680368
 6  2.93277191749175  1.89563914941494  3.51314665986599
 6 -0.64750858245825  2.21976660886089 -1.32747803570357
 6 -6.87059098559856 -3.10782454655466 -1.80400895959596
 6  6.51069063866387 -1.93218147324732 -1.49029971997200
 6 -1.41727038183818  3.48186041924192 -1.24812288698870
 6 -2.40931502090209  3.38513899289929 -0.25194310051005
 6 -2.11667393979398  2.04852578607861  0.48174710671067
 6 -1.18872885128513  4.62709897009701 -2.13532530053005
 6 -3.40587122362236  4.42736321922192  0.27604184388439
 6 -1.83948783998400  5.76895231343134 -2.25617935073507
 1 -3.46498499169917 -0.46301179107911  1.04090829542954
 1 -2.63371499789979 -3.45381050605060  1.28676902600260
 1 -3.48554837463746 -2.44308775317532  2.54457384608461
 1 -0.46683198799880 -2.71932069716972  0.14321133113311
 1 -1.98171656135614 -0.47177348084808 -0.66770087248725
 1  1.76597455885589 -0.44875632943294  4.21981408050805
 1  2.73335066796680 -1.12552444374437  3.10316524592459
 1  2.75992480638064 -2.53734531743174  0.30432348554855
 1 -1.96001863116312 -1.05210448444844  4.50577763956396
 1 -0.40743051105110 -0.15531973557356  4.76213256975698
 1 -1.65840515431543  0.48824127082708  3.73745251055105
 1 -5.60014080128013 -1.54982311351135  2.26146043904390
 1 -5.89652841354135 -3.08219232383238  1.57934078037804
 1 -6.82227960476048 -1.90526617001700  0.71128749044904
 1  2.06419255865587  1.04774471637164  1.80338795009501
 1  0.85596554805481  1.46243848814881  3.00782875657566
 1  0.32748100570057  0.42749711951195 -0.02315434773477
 1  4.31442716191619 -1.44551761076108 -3.10998660056006
 1  4.12352318211821 -2.45372715191519 -1.84702181018102
 1 -5.55715785418542 -2.18771969656966 -3.08280174397440
 1  5.26364428572857 -0.62603308320832 -0.27890466676668
 1  5.77878932023202 -0.00464746084609 -1.69253373587359
 1  4.14597450895089  0.73706019811981 -4.13149137863786
 1  3.36760251185119  2.09980105880588 -3.20142247764776
 1  2.39110489978998  1.26595109300930 -4.36397954995499
 1  0.81293520352035  2.84304580108011 -2.60314120612061
 1 -7.13457254335434 -3.61014319821982 -0.77365638683868
 1 -7.41087935283528 -3.52947427792779 -2.59010206370637
 1  3.57278100560056  3.75607496849685  3.35938919311931
 1 -0.15156903570357  4.34667594709471 -2.94292218761876
 1 -3.94948353795380  4.82044862666267 -0.62822397389739
 1 -3.99994874457446  3.83816861046105  0.92183299469947
 1 -2.90545886208621  5.19588988008801  0.89450522042204
 1  8.39856555005501 -2.12528568276828 -0.57718835383538
 1 -1.59719264386439  6.43154361146115 -3.08648350055006
 1 -2.81895424832483  6.03781515731573 -1.68807471497150

