%nproc=4
%Mem=4GB
# td=(NStates=1) B3LYP/SVP 

TD

0 1
 8 -5.15377160716072  0.04257969756976 -3.31867165686569
 8  3.08553855935594  3.07528478317832  3.12983906230623
 8  3.42097044564456  0.86416181518152  2.96743862896290
 8  1.61775941544154 -7.28178444854485  1.26407491379138
 8  0.40596548454845 -6.98468489208921 -0.67591557445745
 8  1.66475352345235  3.97695081788179  0.06385589298930
 7 -2.37607721882188 -1.01620005020502  0.77459447604760
 7 -4.22409729112911  0.57552521902190 -1.21292964776478
 7  1.84620501210121 -0.68677025002500 -0.31607008460846
 7  2.40872641454145  1.79067481298130 -0.33931067776778
 6 -4.63701009220922  1.30006150315032 -0.04914911511151
 6 -4.40157755055506  0.35827599289929  1.29191654935494
 6 -2.88050314591459  0.05293555025503  1.48942095509551
 6 -1.97623672037204  0.57031198839884  2.25719888948895
 6 -0.67415402570257  0.07520208470847  1.91554223182318
 6 -0.97475166296630 -0.99274233313331  0.93514533393339
 6 -6.13496585268527  1.35191298059806 -0.20838605400540
 6  0.51040964756476  0.26139681618162  2.68164718481848
 6 -6.48417893239324  0.85991523992399 -1.44147987668767
 6 -0.29418567466747 -2.01898063496350  0.20551263276328
 6  1.09299619581958 -1.89822936953695 -0.16504808700870
 6 -5.24827542784278  0.45098331303130 -2.13945125662566
 6  2.00715480068007 -2.93231376977698 -0.74077108640864
 6 -2.09914561546155  1.79684544144414  3.17529191939194
 6 -7.08716620982098  2.12485061426143  0.83119710561056
 6  3.17739407310731 -2.36180613181318 -1.22625387048705
 6  1.15412143944394  1.63523201660166  2.75594923082308
 6  3.11030910621062 -0.92064068966897 -0.94267825602560
 6  1.60315408560856 -4.34945090949095 -0.99737145404540
 6 -7.81917782378238  0.68891052865287 -2.16433482128213
 6  1.92290985658566 -5.16707764236424  0.21464746024602
 6  4.21574718371837 -2.94037250605060 -1.96930616191619
 6  3.91727259785979  0.09463886738674 -1.34036871927193
 6  2.68056867806781  1.74850243844384  2.94461036093609
 6  3.58157253505351  1.46993240474047 -1.01068763606361
 6 -9.02333731713171  0.71723388368837 -1.50007482278228
 6  1.28986405110511 -6.55455210541054  0.18010666966697
 6  4.46484531913191  2.64944169906991 -1.55500258335834
 6  3.80504977337734  3.75874639833983 -0.91751304560456
 6  2.47365893669367  3.20885873697370 -0.39231799449945
 6  5.71661526682668  2.41104594519452 -2.21909386448645
 6  3.88885450525053  5.19347422322232 -1.24940695409541
 6  6.49154921252125  3.34043972877288 -2.69502397929793
 1 -3.96707119321932  2.18751983208321  0.29238227852785
 1 -5.06033068996900 -0.40913238933893  1.06802154635463
 1 -4.68030487038704  0.80963496319632  2.22200911061106
 1 -2.82003104300430 -1.44414180968097  0.06443952215222
 1 -3.26242724002400  0.62338425552555 -1.43693124402440
 1  0.59071350605061 -0.05918560656066  3.72935248334833
 1  1.30870487988799 -0.39509417681768  2.35507063986399
 1 -0.82840150105011 -2.97186465146515  0.19150415271527
 1 -3.04507465276528  1.65189645374537  3.76868685838584
 1 -1.45815703080308  1.81501086498650  4.01922030993099
 1 -2.19877625872587  2.73642746254626  2.66135355715572
 1 -6.54203765466547  2.92254105760576  1.33558579157916
 1 -7.43809357635764  1.58374818401840  1.76945395609561
 1 -7.82898883608361  2.76306238933893  0.45114359455946
 1  1.00931363976398  2.32767480408041  1.93300136743674
 1  0.51651476397640  2.04961178317832  3.41923774797480
 1  1.55783010941094  0.18905955095510  0.03135777047705
 1  2.14909270147015 -4.76589041944194 -1.89549415911591
 1  0.55043684118412 -4.29122897039704 -1.38551703510351
 1 -7.85564662646265  0.68336856745675 -3.27664360256026
 1  1.08959114801480 -4.77862904260426  0.91604918151815
 1  2.90548681878188 -5.30475768026803  0.69907772267227
 1  4.16607166946695 -4.06962441464146 -1.94759822092209
 1  5.22805390379038 -2.76085493569357 -1.41000461806181
 1  4.13444487758776 -2.52089432203220 -3.00143921752175
 1  4.76383600310031 -0.19951204570457 -1.98138431413141
 1 -9.11563516401640  0.96524397989799 -0.53771646144614
 1 -10.09934806840684  0.68794020972097 -1.93895999599960
 1  4.06433111961196  3.00652403610361  3.24397916361636
 1  6.10972444064406  1.43098524772477 -2.27633644864486
 1  4.80227092689269  5.61325408960896 -0.62567118701870
 1  4.07440946344634  5.54610137583759 -2.36339888478848
 1  3.08535620522052  5.53503310971097 -0.63569531113111
 1  0.98689599769977 -8.05173633073307  1.34637069196920
 1  7.33372581698170  3.05253079297930 -3.51238851215122
 1  6.35869775727573  4.47521303350335 -2.42743509600960

