%nproc=4
%Mem=3GB
# td=(NStates=1) B3LYP/SVP 

TD

0 1
 8 -3.34093100330033 -1.40668572407241 -2.97462811711171
 8  2.88773922872287  3.10586224472447  2.92488675957596
 8  3.60924523272327  1.55440256855686  4.44138858245825
 8  7.85169377227723 -1.55437155135514 -0.87960872267227
 8  6.73343750015002 -2.92731352625263 -2.20490693879388
 8 -2.60737164366437  1.55208069716972  1.52810287078708
 7 -0.34198994519452 -2.46417273157316  0.96779161996200
 7 -2.68721075907591 -1.19776491149115 -0.69666181078108
 7  1.22503405280528  0.06399730943094 -0.59416435363536
 7 -0.89455860136014  1.50854626252625 -0.13046394429443
 6 -3.36131128082808 -1.17707526992699  0.53070004390439
 6 -2.68524715081508 -2.26627077327733  1.55388069486949
 6 -1.25926156785679 -1.97436525052505  1.76119410801080
 6 -0.58042784508451 -1.18311950365036  2.77981600210021
 6  0.83028414101410 -1.28421342234223  2.47671886648665
 6  0.91073375957596 -1.99553598829883  1.23181798579858
 6 -4.71621656825683 -1.75201084978498  0.25946283358336
 6  1.81503609500950 -0.31962229182918  3.13652580708071
 6 -4.82363872527253 -2.02080078847885 -1.13865420592059
 6  2.09350730713071 -1.93714190639064  0.43011529022902
 6  2.10857687958796 -0.99149106130613 -0.60751465296530
 6 -3.53460813071307 -1.48346031133113 -1.74244152755276
 6  2.96859792299230 -0.73664441274127 -1.67267116601660
 6 -1.22572114431443 -0.37122097909791  3.96457196549655
 6 -5.72353757785779 -2.18760524082408  1.24807581318132
 6  2.48389804670467  0.30734810301030 -2.40536514651465
 6  1.85247467986799  0.99723541554155  2.73420006160616
 6  1.40792415891589  0.82699934853485 -1.68681478747875
 6  4.24643999309931 -1.44973440254025 -1.94419404950495
 6 -5.88933326942694 -2.55049714011401 -2.00349379757976
 6  5.42938848984898 -1.06246799199920 -1.02826624352435
 6  3.00022011741174  1.04944334693469 -3.61698820802080
 6  0.56460888498850  1.96554170107011 -1.97733947904791
 6  2.87259589988999  1.91719130463046  3.49301464666467
 6 -0.56618044964496  2.29041367356736 -1.16801208910891
 6 -6.97358128462846 -3.31646541064106 -1.77008556725673
 6  6.66205577517752 -1.92945120022002 -1.51875256525653
 6 -1.40180883568357  3.50522275547555 -1.19916799149915
 6 -2.21854594399440  3.37281776077608 -0.09916782298230
 6 -2.02725499789979  2.07467840134013  0.56558549054906
 6 -1.26946692509251  4.51503776397640 -2.23462523052305
 6 -3.22262289878988  4.37332781568157  0.45966020572057
 6 -1.92433632483248  5.70799621782178 -2.42115584838484
 1 -3.16626511971197 -0.12145763566357  1.25667987258726
 1 -2.81034266066607 -3.12455758075808  1.00452080118012
 1 -3.36168598839884 -2.47090053445345  2.31152054075408
 1 -0.43388869366937 -2.87063582868287  0.07517452745275
 1 -2.01932032173217 -0.49352565606561 -0.91662576497650
 1  1.71923988538854 -0.51389284308431  4.23886598569857
 1  2.84888222112211 -0.69362125342534  2.87286221562156
 1  2.79164797869787 -2.77005858875888  0.32423547674767
 1 -1.95354798409841 -1.10121939593959  4.43841090289029
 1 -0.52706247424743 -0.01152535613561  4.70617697419742
 1 -1.80068938273827  0.43627607430743  3.50367913321332
 1 -5.71362214941494 -1.45349348054806  2.10251454445445
 1 -5.58779754045405 -3.19098320292029  1.54361720802080
 1 -6.77610498729873 -1.95463110651065  0.87091345304530
 1  2.11714785418542  0.95010495239524  1.68933654495450
 1  0.69352930443044  1.42304454875488  2.84490246394639
 1  0.35484374197420  0.10633500330033 -0.04898693099310
 1  4.44920063926393 -1.43069612861286 -3.10457605950595
 1  4.07430826062606 -2.59711149034904 -1.84314142214221
 1 -5.52029416781678 -2.44940586518652 -3.05649911371137
 1  5.17598551985199 -1.24467494739474 -0.13827060336034
 1  5.77942938423842  0.03149615351535 -1.04377886038604
 1  3.95109502100210  0.55831232333233 -3.84636286578658
 1  2.94319007060706  2.30546162486249 -3.47203953935394
 1  2.26793258255826  0.90203470137014 -4.39300245224522
 1  0.68308221822182  2.47021851835183 -2.96853774577458
 1 -7.42706179227923 -3.50121230513051 -0.75594461566157
 1 -7.64148241314131 -3.38232956345635 -2.61943499699970
 1  3.38897262476248  3.66100546154615  3.70975422962296
 1 -0.43995787458746  4.34878615811581 -2.75825372077208
 1 -4.01587017661766  4.62269885168517 -0.21790294179418
 1 -3.68225697539754  4.23668846244624  1.44938574997500
 1 -2.50687900410041  5.31118140924092  0.73228899879988
 1  8.66203189668967 -2.17730088428843 -1.33070370537054
 1 -1.62996592119212  6.48903936103610 -3.30272512471247
 1 -2.79831218411841  6.03700507630763 -2.09889579707971

