%nproc=4
%Mem=3GB
# td=(NStates=1) B3LYP/SVP 

TD

0 1
 8 -3.42260917111711 -1.31594665016502 -2.84616527082708
 8  3.10149060386039  3.06531819031903  3.22983725462546
 8  3.87918222642264  1.23782091039104  4.35140958455846
 8  7.69256785968597 -1.53992010621062 -0.52529329112911
 8  6.75047920432043 -2.81084187908791 -2.15180162826283
 8 -2.62405331183118  1.62996848594859  1.36197625812581
 7 -0.26429217541754 -2.51833814811481  0.95495033583358
 7 -2.76397843584358 -1.12836797179718 -0.65353749834983
 7  1.17185873527353  0.03947485718572 -0.72835777297730
 7 -1.01751089658966  1.46807221512151 -0.20218111601160
 6 -3.40867601730173 -1.33176073847385  0.64581155505551
 6 -2.65735436153615 -2.49532367856786  1.51160646744674
 6 -1.25151079277928 -2.04958277227723  1.76136412501250
 6 -0.62471227352735 -1.18249944164416  2.76856487698770
 6  0.76109722232223 -1.17945294629463  2.47212840744074
 6  0.96965965216522 -1.88476491119112  1.30281508550855
 6 -4.72306725332533 -1.81416706540654  0.27897478477848
 6  1.82494708610861 -0.40764109370937  3.21572372687269
 6 -4.81863822522252 -1.92813152155216 -1.05515585608561
 6  2.21569952635264 -1.86531472367237  0.33340561926193
 6  2.05762178407841 -0.84250616281628 -0.58726262776278
 6 -3.64185885578558 -1.39516148144815 -1.66316359975998
 6  3.00548161136114 -0.60473122142214 -1.72647654655466
 6 -1.41515008720872 -0.41585544254425  3.71769727802780
 6 -5.84136936103610 -2.33801028132813  1.29601060666067
 6  2.53405306220622  0.45201256945695 -2.41126573657366
 6  2.01468090049005  1.07876356835684  2.75564220582058
 6  1.33134650115012  0.88986563516352 -1.82390849684969
 6  4.18070341944194 -1.46353578267827 -2.06841647174718
 6 -5.91865620172017 -2.38051014141414 -1.79121256945695
 6  5.43115866686669 -0.96681842704270 -1.21135455235524
 6  3.17365746114611  1.13609201180118 -3.67012352155216
 6  0.55769819391939  2.04026917381738 -2.04012575767577
 6  3.07268590889089  1.73645323082308  3.54509985518552
 6 -0.64577840944094  2.26496112831283 -1.17629291719172
 6 -6.84513844034403 -3.29428319241924 -1.53317187588759
 6  6.68802837243724 -1.95350360546055 -1.32043273327333
 6 -1.44368302310231  3.47669990319032 -1.30734880958096
 6 -2.27820190959096  3.44111459045905 -0.24908281448145
 6 -1.97345961836184  2.11251218471847  0.46316524852485
 6 -1.20665064346435  4.56486274647465 -2.32235400340034
 6 -3.45920655715572  4.21062154505451  0.14872911261126
 6 -1.79848373957396  5.69919533773377 -2.43568730153015
 1 -3.41834032723272 -0.50103559345935  1.07195139973997
 1 -2.77196882328233 -3.43572869786979  0.94222457155716
 1 -3.12525234503450 -2.64620806520652  2.45383477217722
 1 -0.28327363216322 -2.79713847894790  0.03714072407241
 1 -2.19869825952595 -0.32670897439744 -0.90154425682568
 1  1.46330429182918 -0.61214266806681  4.19497159625963
 1  2.85095242814281 -0.89839173047305  3.07326225562556
 1  3.01229004290429 -2.46612819571957  0.50823387658766
 1 -2.30538316761676 -0.96846612061206  4.09667672947295
 1 -0.49234900290029 -0.01128533213321  4.38067442394239
 1 -1.82804211801180  0.52033448014801  3.01926069136914
 1 -5.74764555175518 -1.97420555175518  2.28178247124713
 1 -5.85056381708171 -3.40971507610761  1.30323316961696
 1 -6.73267064386439 -2.18207385078508  0.86999336103610
 1  2.15795193459346  1.10520046194619  1.82311992329233
 1  1.09621957345735  1.66604884918492  2.95246322002200
 1  0.26789504710471  0.20336470627063 -0.07056908920892
 1  4.36062178137814 -1.64592765176518 -2.97261286318632
 1  4.11788261806181 -2.46451823102310 -1.67995510351035
 1 -6.03908604700470 -1.97693861846185 -2.80694415821582
 1  5.11750967226723 -1.15618609850985 -0.27572434873487
 1  5.79578101940194  0.00950395429543 -1.38657313981398
 1  3.93572348384839  0.53689018111811 -4.09401763126313
 1  3.24924067566757  2.36540761946195 -3.55390772617262
 1  2.45789157845785  0.94879937783778 -4.51673482548255
 1  0.70059396939694  2.59120061656166 -2.87416830883088
 1 -6.79784887098710 -3.66867905180518 -0.64263328452845
 1 -7.72089035393539 -3.66190752125213 -2.14410746424642
 1  3.90349407690769  3.31952131313131  3.71743499769977
 1 -0.44148802760276  4.25001628112811 -3.09544744014401
 1 -4.21895048464846  3.99718630043004 -0.61587273877388
 1 -3.66558530823082  3.97252204580458  1.22544335573557
 1 -3.16528484468447  5.39213950505050  0.13037880778078
 1  8.29355504900490 -2.40813396759676 -0.68069870487049
 1 -1.78292121672167  6.34181463856386 -3.37592244444444
 1 -2.71034338723872  5.85628700450045 -1.81909781728173

