%nproc=4
%Mem=4GB
# td=(NStates=1) B3LYP/SVP 

TD

0 1
 8 -5.46273250325032 -0.01645620602060 -3.27847763746375
 8  3.04073407890789  2.98642589728973  3.07363344174417
 8  3.42456080468047  0.76865226422642  2.87900978607861
 8  1.49454709420942 -7.12324859495950  1.43668217451745
 8  0.70076496449645 -6.99418584218422 -0.65649363226323
 8  1.84589163726373  3.99202232503250  0.00222973037304
 7 -2.41912152325233 -0.96762519271927  0.69373639023902
 7 -4.42475735713571  0.57984565106511 -1.11230958575858
 7  1.92752314391439 -0.67538911191119 -0.35492396999700
 7  2.62884842674267  1.83822956845685 -0.48136488318832
 6 -4.91202759395940  1.16531802880288  0.11389718951895
 6 -4.47456484928493  0.29634980028003  1.31061841954195
 6 -3.01522661826183  0.04234449114912  1.39187120012001
 6 -2.02586168286829  0.71496645384538  2.19065223482348
 6 -0.73337994829483  0.03938850335033  1.83291396899690
 6 -1.02556674447445 -0.88055111401140  0.81730354975498
 6 -6.36967932403240  1.30188797809781 -0.17192240764076
 6  0.70114872147215  0.31017169366937  2.38844786488649
 6 -6.73996451095110  0.88260750915092 -1.33766949564956
 6 -0.25875213131313 -1.84765350225022  0.08903098459846
 6  1.05234213041304 -1.79870941754175 -0.29422100430043
 6 -5.46724732503250  0.41832004670467 -2.11688900040004
 6  1.92309639483948 -2.92034257265727 -0.95352236153615
 6 -2.17392309320932  1.73763952085209  3.25319971017102
 6 -7.22250974417442  1.79996812601260  0.98898288418842
 6  3.12157849154916 -2.36308625982598 -1.28182942804280
 6  1.18055408270827  1.75053354675468  2.49063269916992
 6  3.08833690899090 -0.92761138673867 -0.93700768896890
 6  1.56624039423942 -4.32195816021602 -0.97192890979098
 6 -8.00539644564456  0.55217685528553 -2.06932532033203
 6  1.67704527012701 -5.02580351495150  0.37748374387439
 6  4.29270487948795 -3.00600906970697 -1.89305853715372
 6  3.98920979157916  0.05491489498950 -1.31912659505951
 6  2.67337795899590  1.76664425262526  2.87058295819582
 6  3.82978735653565  1.48098350985099 -1.04600116741674
 6 -9.20382536593659  0.67126928722872 -1.47860267556756
 6  1.31077614231423 -6.48746539673967  0.24390304930493
 6  4.65551438603860  2.65881263616362 -1.53104018711871
 6  3.95752502090209  3.75857638133813 -1.01726302060206
 6  2.75318688948895  3.24633248434843 -0.39419818251825
 6  5.98013161846185  2.43613845444544 -2.05858781388139
 6  4.32868848864887  5.19143401920192 -0.97470948434843
 6  6.88391844944494  3.40469615441544 -2.41705618251825
 1 -4.28169265536554  2.06128720882088  0.11937497779778
 1 -5.07008166506651 -0.60034151025102  1.16546129032903
 1 -4.86499333923392  0.76565056475648  2.23937084678468
 1 -2.85553459335934 -1.47433482898290 -0.03497041884188
 1 -3.52954395169517  1.17521943904390 -1.51612916381638
 1  0.52057649234923 -0.14170385838584  3.37714726282628
 1  1.46861087048705 -0.28551321872187  1.61131626442644
 1 -0.65809447034703 -2.79605707070707 -0.36383138083808
 1 -3.31360150545055  2.01023228732873  3.35387537723772
 1 -1.86580779587959  1.43252261616162  4.13114150205021
 1 -1.80385676677668  2.58057187698770  3.01349877167717
 1 -6.81534498539854  2.71079988348835  1.54146637963796
 1 -7.60009977697770  0.97783759295930  1.82086909760976
 1 -8.23155909310931  2.17480356345635  0.63294177437744
 1  1.12690539893989  2.25120715731573  1.50678874617462
 1  0.51500461296130  2.23491031303130  3.04112993719372
 1  1.59117344374438  0.39674031903190 -0.36316168146815
 1  2.13814160636064 -4.73692752315231 -1.79003361306131
 1  0.36164796229623 -4.52013186068607 -1.21269975337534
 1 -7.74721578337834  0.25140537113711 -3.02258819701970
 1  0.97374956385639 -4.73989516921692  0.98380595719572
 1  2.71868813891389 -4.90923812831283  0.88546636153615
 1  3.97219228152815 -4.10914836703670 -2.17057051815182
 1  5.26697779617962 -3.18474732493249 -1.18233185078508
 1  4.59042047514751 -2.52119435203520 -2.64834390799080
 1  4.71914153365337 -0.42625471997200 -2.12839901560156
 1 -9.24715831633163  1.11337879337934 -0.50677336713671
 1 -10.12344047764777  0.57482889858986 -2.09356545654565
 1  3.98334302080208  2.96704008770877  3.34341910761076
 1  6.19300276847685  1.37788993819382 -2.19056787178718
 1  5.21547224702470  5.27199996419642 -0.46573519341934
 1  4.52454447694770  5.57497426312631 -2.08008055295530
 1  3.65190285988599  5.89184879127913 -0.50569231083108
 1  1.13329063716372 -7.95931708880888  1.14610066496650
 1  7.67069951435144  3.05450098999900 -2.98769604290429
 1  6.58905079257926  4.55365087728773 -2.21618397089709

