%nproc=4
%Mem=4GB
# td=(NStates=1) B3LYP/SVP 

TD

0 1
 8 -5.48805503550355  0.18878431803180 -3.29038882858286
 8  3.03256326182618  2.90745800050005  3.34104018241824
 8  3.44972332093209  0.69969536853685  2.94096598169817
 8  1.50678831833183 -6.93739000910091  1.73857236353635
 8  0.87530241824182 -7.15232165576558 -0.43894187708771
 8  1.77750479857986  3.97977109990999  0.07941744914491
 7 -2.38814842594259 -1.01029946014601  0.51222823942394
 7 -4.50892577397740  0.70370803730373 -1.23375172997300
 7  1.85233562516252 -0.65913748674868 -0.48304678227823
 7  2.50832637453745  1.92155790129013 -0.60689743644364
 6 -4.78115450665066  1.24077557455746 -0.05567976817682
 6 -4.38142553535354  0.37145731103110  1.23313067076708
 6 -2.93326842244224 -0.06754649794980  1.34847686068607
 6 -1.96451554825483  0.59749470667067  2.02117528712871
 6 -0.75289189948995 -0.01021645714571  1.73686436403640
 6 -1.01300548834883 -1.08631169006901  0.76289810921092
 6 -6.34047640374037  1.39341713101310 -0.14899011441144
 6  0.55066367296730  0.20716139263926  2.44657367746775
 6 -6.72472298679868  0.85810505890589 -1.33442917161716
 6 -0.19860611671167 -2.06456519341934  0.13890597209721
 6  1.09517641384138 -1.84559410601060 -0.33454503670367
 6 -5.47849845014501  0.54148236293629 -2.18958627012701
 6  1.96506059125913 -2.82964350275028 -0.99708671797180
 6 -2.12917861876188  1.66295205210521  3.08562295249525
 6 -7.11516901010101  2.03028115731573  1.01924591049105
 6  3.14298063176318 -2.25218516971697 -1.34064530963096
 6  1.19628565586559  1.60414890829083  2.56351998789879
 6  3.11143921922192 -0.86042466806681 -1.09903389158916
 6  1.53160693089309 -4.33140910531053 -1.04820653755376
 6 -8.06989289528953  0.61117275487549 -1.93773216101610
 6  1.76231379697970 -5.06816775137514  0.36911290679068
 6  4.32196780578058 -2.98149661846185 -2.03824305560556
 6  3.94388525912591  0.11255065856586 -1.44599928232823
 6  2.71472209340934  1.54874246244624  2.96705260516052
 6  3.71695607340734  1.46864227572757 -1.13134970227023
 6 -9.22482746614661  0.64774693499350 -1.37895271057106
 6  1.29559462416242 -6.54059070927093  0.49115777477748
 6  4.61834066866687  2.65123187808781 -1.48185526862686
 6  3.93187245564557  3.75080560426043 -1.03364465876588
 6  2.68927049784978  3.29439729082908 -0.43039180188019
 6  5.92212581788179  2.49485432603260 -1.94694664976498
 6  4.20762638243824  5.11589646544654 -1.02209422282228
 6  6.78983904150415  3.44275996079608 -2.33174765166517
 1 -4.22733721982198  2.36146722682268  0.23393643394339
 1 -4.97406206310631 -0.48371984808481  1.10916566076608
 1 -4.57320416031603  0.86929092879288  2.03346025572557
 1 -2.89520856075608 -1.56487388288829 -0.10732765456546
 1 -3.63446444374437  0.75507742484248 -1.78423597449745
 1  0.42502693739374 -0.10908059605961  3.46484603270327
 1  1.28747275667567 -0.64116878427843  1.93285841864186
 1 -0.64046270717072 -2.93461092609261 -0.32565756345635
 1 -3.21435158045805  1.53466473057306  3.30637062676268
 1 -1.51342255735574  1.53907327122712  4.01183957185719
 1 -1.77426380748075  2.63959777957796  2.58940636243624
 1 -6.41659511041104  2.84143294679468  1.47262949594959
 1 -7.36407617461746  1.15712552175218  1.65502251295130
 1 -7.99722565976598  2.56661274437444  0.89229770997100
 1  1.31347405580558  2.09149118571857  1.53067113441344
 1  0.54817793029303  2.23886070807081  3.17864368856886
 1  1.59276360276028  0.28149879487949 -0.18592395769577
 1  2.10799859205921 -4.93330716111611 -1.78409301900190
 1  0.55274707220722 -4.64182402990299 -1.21816029942994
 1 -8.00076113791379  0.34724495509551 -3.01388732693269
 1  1.29232142104210 -4.53170435013501  1.18279585618562
 1  2.78258452855286 -5.12137934243424  0.55139295419542
 1  3.79433449574957 -3.88234568676868 -2.47097055815582
 1  5.12630372877288 -3.16396524672467 -1.52093571117112
 1  4.48527996109611 -2.45134736733673 -2.93982305590559
 1  4.87100672017202 -0.13182527702770 -1.99694587028703
 1 -9.54232783328333  1.02696015151515 -0.38377106690669
 1 -10.13477161076108  0.44759617531753 -1.93308940894089
 1  4.05494018051805  3.07751113481348  3.45309007470747
 1  6.03965743394339  1.56470862006201 -2.16108492349235
 1  5.02025272507251  5.36645941014101 -0.50787940784078
 1  4.49044106660666  5.58590535623562 -1.99289183408341
 1  3.46091376097610  5.72185179157916 -0.62342408400840
 1  1.27868517661766 -7.89676083318332  1.92976903180318
 1  7.75452789718972  3.16687222712271 -2.80169744304430
 1  6.76779866736674  4.51093660586059 -2.33014536703670

