%nproc=4
%Mem=3GB
# td=(NStates=1) B3LYP/SVP 

TD

0 1
 8 -3.33952086228623 -1.30938599409941 -2.93411406570657
 8  3.06230668546855  3.23082474097410  3.16336060696070
 8  3.78004231243124  1.52716984528453  4.44781922552255
 8  7.82049065196520 -1.84313042724272 -0.80499126092609
 8  6.53211736813681 -3.18243903880388 -2.02672912101210
 8 -2.62853375987599  1.54836032513251  1.42952301280128
 7 -0.20614636083608 -2.39125543984398  0.94380922172217
 7 -2.66818885688569 -1.15456059105911 -0.63287543214321
 7  1.18084963436344  0.20053096279628 -0.70961589878988
 7 -0.88973811931193  1.50578598649865 -0.10178107600760
 6 -3.39945509520952 -1.29873743614361  0.59018599249925
 6 -2.69821844794479 -2.31261540774077  1.55204051085109
 6 -1.22373801550155 -1.98662647664766  1.79968795739574
 6 -0.64631443374337 -1.24412560426043  2.87060508100810
 6  0.81221233383338 -1.12881788278828  2.57685888048805
 6  0.98904159035904 -1.82363879857986  1.34627943194319
 6 -4.69499444604460 -1.80979662836284  0.19520640794079
 6  1.85701029242924 -0.33370369997000  3.14552670717072
 6 -4.68376473787379 -2.02811151955196 -1.13578391889189
 6  2.12832078847885 -1.75198339053905  0.34627690639064
 6  2.16626264816482 -0.84764667686769 -0.67959186068607
 6 -3.56209087898790 -1.52111407670767 -1.73653093649365
 6  2.93847491069107 -0.60571131943194 -1.84426832573257
 6 -1.23215178737874 -0.46794065106511  3.98781428972897
 6 -5.76551177527753 -2.21907838813881  1.22784378997900
 6  2.61226088298830  0.48652602080208 -2.55045965596560
 6  1.88609804220422  1.14073976597660  2.85985262686269
 6  1.37571093759376  0.99002565116512 -1.91851795779578
 6  4.19969531863186 -1.53138256735674 -2.04803443354335
 6 -5.81548588468847 -2.42133422382238 -2.04547799599960
 6  5.46539209020902 -1.16372811801180 -1.20041345824582
 6  3.15943603900390  1.16550495309531 -3.72543905310531
 6  0.55240766486649  2.05931107800780 -2.01051279637964
 6  2.99817845814581  1.86709629512951  3.53435878107811
 6 -0.60429426102610  2.32155678787879 -1.17553284118412
 6 -6.76919084558456 -3.21392515661566 -1.76935549424943
 6  6.57782735233523 -2.17034528962896 -1.36713740374037
 6 -1.46775543034303  3.48220045324532 -1.20041811651165
 6 -2.46252034143414  3.34836531553155 -0.15347325352535
 6 -2.03083535593559  2.02806373987399  0.53138207020702
 6 -1.39574955335534  4.44590085028503 -2.21424319231923
 6 -3.50740137663766  4.19241972487249  0.25645988568857
 6 -2.05856974817482  5.65864128232823 -2.25254898769877
 1 -3.13633212641264 -0.35522101200120  1.06957116171617
 1 -2.79862148854885 -3.29497462246225  0.96306665576558
 1 -3.24179399919992 -2.52066551095109  2.59347873657366
 1 -0.40628593339334 -2.88627739283928  0.00404741474147
 1 -1.93626201590159 -0.41101740524052 -0.92985708810881
 1  1.64710267166717 -0.34074552835284  4.31487358645865
 1  2.84078141104110 -0.87186907820782  3.02734766416642
 1  2.66464527842784 -2.76561814471447  0.38747180038004
 1 -1.96045867516752 -1.06841611561156  4.22711977377738
 1 -0.51558132613261 -0.29356355995599  4.63270962746275
 1 -1.69351866566657  0.43243569026903  3.52351111641164
 1 -5.64011479867987 -1.51267939913992  2.09447374037404
 1 -5.64133289398940 -3.27396150075008  1.67407025332533
 1 -6.76482385918592 -2.21484712811281  0.83380974267427
 1  1.99546568596860  1.40600054195420  1.74248185948595
 1  0.95810576207621  1.70031227552755  3.21898987268727
 1  0.18266652425242  0.40037440724072 -0.21034306660666
 1  4.48240395959596 -1.51698475747575 -3.02737833973397
 1  3.87483831363136 -2.67802958215822 -1.60784789278928
 1 -5.57050918931893 -2.25265619021902 -3.11037450125013
 1  5.32330025132513 -1.08076855675568 -0.09041581788179
 1  5.96660810211021 -0.14789178527853 -1.36266074857486
 1  4.34357426892689  0.86519301140114 -3.81424965446545
 1  3.38902465406541  2.30856193489349 -3.51973430883088
 1  2.50244603390339  1.14312881078108 -4.74959811181118
 1  0.74390830083008  2.97052854935494 -2.67813870587059
 1 -6.93332241834183 -3.52751493539354 -0.63419244044404
 1 -7.52539080398040 -3.67879921042104 -2.42958601210121
 1  3.43701742924292  3.53644300530053  4.01243449764976
 1 -0.73533741254125  4.23362464196420 -3.16968486388639
 1 -4.14313290289029  4.44485106690669 -0.48740989248925
 1 -4.05022377207721  3.62572736633663  1.06739755115512
 1 -3.04542285848585  5.06471676277628  0.63976974687469
 1  8.25104079757976 -2.81272442664266 -0.98533916891689
 1 -2.29410233483348  6.26714717181718 -3.03613846604660
 1 -2.79931228412841  5.80916229202920 -1.57815372287229

