%nproc=4
%Mem=3GB
# td=(NStates=1) B3LYP/SVP 

TD

0 1
 8 -3.17610452065207 -1.23438849434943 -2.77187784208421
 8  2.96527698249825  3.24879653815382  2.97155142604260
 8  3.48058236643664  1.64351147944794  4.37736217981798
 8  7.68102670557056 -1.49286540074007 -0.69938069986999
 8  6.85182933933393 -2.80893168806881 -2.37929437753775
 8 -2.56938784528453  1.65443093219322  1.49179924042404
 7 -0.31753749994999 -2.48260457475748  1.00086492729273
 7 -2.66306834483448 -1.08523365836584 -0.51335347994800
 7  1.07858940834083 -0.06430552085209 -0.79491442864286
 7 -1.02687183268327  1.33199860776078 -0.13416431433143
 6 -3.39141429112911 -1.35278284068407  0.68994596849685
 6 -2.70963959005901 -2.44098824502450  1.62213752055206
 6 -1.21510715241524 -2.13406122012201  1.75909389798980
 6 -0.61962176447645 -1.28962015371537  2.81044906540654
 6  0.70487159975998 -1.08707370837084  2.48100929552955
 6  0.90812349854986 -1.90550698539854  1.28227303130313
 6 -4.76543148974898 -1.86281192989299  0.21803869116912
 6  1.77513210461046 -0.36090642024202  3.23200535503550
 6 -4.74021038243824 -2.12312102050205 -1.14907524802480
 6  2.14080203660366 -1.96500469266927  0.32296457515752
 6  2.12158818071807 -0.94943685588559 -0.59051295279528
 6 -3.46090075997600 -1.43312527782778 -1.62188947234723
 6  3.01628269146915 -0.71235198349835 -1.74821872077208
 6 -1.21447001920192 -0.48445230223022  3.85674118241824
 6 -5.81092631673167 -2.13756023632363  1.22877388298830
 6  2.52153181008101  0.36128349654966 -2.41593620362036
 6  1.83196262866287  1.12813850585059  2.76150279187919
 6  1.24269763626363  0.79732638123812 -1.82661876787679
 6  4.23535888498850 -1.69655908500850 -1.93437306740674
 6 -5.83635797189719 -2.35854794519452 -2.05459890809081
 6  5.53420897189719 -1.17954970017002 -1.32533595049505
 6  3.21298139353935  1.02399080168017 -3.63787029622962
 6  0.49011143524352  1.90078522542254 -1.92616436153615
 6  2.81067970827083  2.08043762926293  3.49531487668767
 6 -0.59157298889889  2.19985461766177 -1.20978626652665
 6 -6.91130505700570 -3.07775153925393 -1.74523308200820
 6  6.68197776737674 -1.95198345344534 -1.50086077607761
 6 -1.47113576837684  3.44578681188119 -1.18735681038104
 6 -2.37238132753275  3.37010748974897 -0.17041494769477
 6 -1.96782905530553  2.07230816431643  0.51712064406441
 6 -1.21642162056206  4.49226548674867 -2.20322209020902
 6 -3.31715235173517  4.32640312321232  0.32154639433943
 6 -1.65118901010101  5.68490390859086 -2.11629536233623
 1 -3.57594608780878 -0.39043453335333  1.30326453105311
 1 -2.86468809520952 -3.60930605560556  1.34756510561056
 1 -3.10083990379038 -2.43407685208521  2.67074646334633
 1 -0.70526583138314 -2.71167993309331  0.11257826782678
 1 -1.89828821852185 -0.32267857135714 -0.42617672007201
 1  1.71682964436444 -0.32126358015802  4.22375447454745
 1  2.75897323022302 -0.80806269756976  3.01019594899490
 1  2.91183999789979 -2.81556313921392  0.38823187638764
 1 -2.05595822512251 -0.99225849984999  4.53885094689469
 1 -0.40533030103010 -0.07355155875588  4.51527788428843
 1 -1.60724003780378  0.37305975267527  3.16304506980698
 1 -5.48244903210321 -1.85728385958596  2.21485577857786
 1 -5.97387614831483 -3.31584568916892  1.27513035933593
 1 -6.89987736453645 -1.52482812621262  0.97184354605461
 1  2.14685082448245  1.11741168306831  1.70956856815682
 1  0.90444039553955  1.38805104940494  2.76037401110111
 1  0.27758601620162  0.20000437023702 -0.17363939623962
 1  4.35957167636764 -1.92031509050905 -3.18735433733373
 1  3.77340817061706 -2.63015479467947 -1.61497860586059
 1 -5.66096823522352 -2.05674659925993 -3.01040450425042
 1  5.26170409170917 -0.95271575147515 -0.22435921222122
 1  5.89699114041404 -0.11000799689969 -1.53073755625563
 1  4.37908782028203  0.56104259635964 -3.65472370187019
 1  3.16526227782778  2.13927500620062 -3.43000533593359
 1  2.80957674697470  0.78917341524152 -4.85892904490449
 1  0.77742165216522  2.68016951345134 -2.73834472647265
 1 -7.04684377047705 -3.35838802270227 -0.84274329552955
 1 -7.61576984188419 -3.28134946544654 -2.66754980848085
 1  3.94607833533353  3.55171453245325  3.32008526272627
 1 -0.52236611541154  4.23991527102710 -2.96550444584458
 1 -3.98726731633163  4.36539312111211 -0.64477562906291
 1 -3.90223897359736  3.88451324492449  1.18244905630563
 1 -2.92113042924292  5.22812310341034  0.74612038193819
 1  8.33122881638164 -2.00733388758876 -1.02281291629163
 1 -1.54863778837884  6.32256271337134 -2.85222007420742
 1 -2.32800515341534  6.07025840164016 -1.44134004150415

