%nproc=4
%Mem=3GB
# td=(NStates=1) B3LYP/SVP 

TD

0 1
 8 -3.21440835103510 -1.56735179067907 -2.83623427772777
 8  3.17266772157216  3.11011266976698  3.01228549944994
 8  3.85729003720372  1.42132926122612  4.20338478207821
 8  7.69518812171217 -1.56466258045805 -0.65710647244724
 8  6.68692284868487 -2.90447124202420 -1.96798324642464
 8 -2.85033594009401  1.65240072917292  1.31441150165016
 7 -0.30971671787179 -2.36900321462146  0.95717055785579
 7 -2.64690672867287 -1.30445558055806 -0.56810895549555
 7  1.14464601400140  0.16428733843384 -0.75954089128913
 7 -0.96079522502250  1.49064447234723 -0.21485238313831
 6 -3.42195734543454 -1.44079164156416  0.64363133703370
 6 -2.68129675577558 -2.40603474967497  1.76792209900990
 6 -1.31671731343134 -1.91273908790879  1.88287627622762
 6 -0.56846664896490 -1.14027521922192  2.87399542004200
 6  0.76931804440444 -1.10381538253825  2.47286848144815
 6  0.86332901910191 -1.77953438813881  1.22183698769877
 6 -4.73013796039604 -1.98092374107411  0.22914980228023
 6  1.92204679607961 -0.43975430503050  3.21088324282428
 6 -4.82136849824983 -2.04837354575458 -1.14833517401740
 6  1.96381433783378 -1.86409460166017  0.26714899359936
 6  2.08382440434043 -0.88551046324632 -0.69394329582958
 6 -3.53437810771077 -1.55598756405641 -1.68415569896990
 6  2.99758082128213 -0.71729247754775 -1.84246814571457
 6 -1.26195476767677 -0.51527538453845  4.02316782508251
 6 -5.82832805690569 -2.22358883918392  1.21094209980998
 6  2.52306196309631  0.43246061426143 -2.56257086708671
 6  1.92888232063206  1.06299199119912  2.79879652125213
 6  1.25135850235023  0.92382903150315 -1.87996410241024
 6  4.12914826392639 -1.56170559965997 -2.00356998709871
 6 -5.81927626372637 -2.50163225362536 -2.04290773897390
 6  5.36374192519252 -1.11062280748075 -1.11455487238724
 6  3.10964105950595  1.09994839743974 -3.70988749794979
 6  0.45581800590059  2.02118726562656 -2.04628637373737
 6  3.02057069736974  1.84003358885889  3.41487683288329
 6 -0.59775360696070  2.32826745894589 -1.22806809470947
 6 -6.83671759825983 -3.36979074317432 -1.82663122182218
 6  6.57175674527453 -1.91137939303930 -1.23950464046405
 6 -1.30103875867587  3.56334856805681 -1.18715679037904
 6 -2.14428851825183  3.54717519651965 -0.20815872207221
 6 -2.04226649904990  2.08331926542654  0.39626855885589
 6 -1.08324830323032  4.72545880608061 -2.14188595659566
 6 -3.35488612511251  4.33286376927693  0.40341458115812
 6 -1.78685257645765  5.85184060226023 -2.10987472027203
 1 -3.50097859105911 -0.43485897579758  1.06244044864486
 1 -2.58701032743274 -3.37147227222722  1.32882323142314
 1 -3.37562738253825 -2.41460490489049  2.78297768646865
 1 -0.68479378417842 -2.80772953805381  0.06564357435744
 1 -1.90961935163516 -0.62680898439844 -0.41109521192119
 1  1.53029099049905 -0.46831828562856  4.29809190829083
 1  2.96995432833283 -0.94399629092909  3.12724765416542
 1  2.72459127302730 -2.62788437133713  0.32267532073207
 1 -2.02751538083808 -1.21449072307231  4.36013307510751
 1 -0.59458922692269 -0.22599680328033  4.97458381488149
 1 -1.88161747554755  0.37454990169017  3.55869463476348
 1 -6.25368615581558 -1.18567669886989  1.83483777677768
 1 -5.33005176587659 -3.04274837943794  1.97403024932493
 1 -6.77070444724472 -2.65618126152615  0.47339370107011
 1  2.07873401280128  1.23278322022202  1.73981159245925
 1  0.91312126362636  1.54824706900690  3.11382935663566
 1  0.32758101570157  0.31340571037104 -0.19736176847685
 1  4.39396511571157 -1.64667772677268 -3.12429803170317
 1  3.89858068786879 -2.60099187838784 -1.76675378337834
 1 -5.72386452485248 -2.05485641024102 -3.03201666546655
 1  5.08346626792679 -1.15684616451645 -0.10956773307331
 1  5.63855529682968 -0.17924492059206 -1.38893337583758
 1  3.96296620812081  0.59501599369937 -4.13652188168817
 1  3.47641339293929  2.24711579027903 -3.69789212461246
 1  2.35545133443344  0.95001949984999 -4.49577272927293
 1  0.75119902990299  2.81111260776078 -3.10970186218622
 1 -7.00598968506851 -3.97828001190119 -0.81828084928493
 1 -7.56873513841384 -3.57814914541454 -2.49166221972197
 1  3.82909663716372  3.55927528852885  3.56519977417742
 1 -0.50311419021902  4.55262654215422 -2.93866176157616
 1 -4.01278986858686  4.74768134993499 -0.53783493499350
 1 -3.93736248594859  3.48384317791779  1.03114392579258
 1 -3.16998531473147  5.28450874197420  1.01794756465647
 1  8.41941763526353 -2.18096125032503 -1.03369400440044
 1 -1.63113603820382  6.55857631473147 -2.83230808300830
 1 -2.40941329422942  6.11050242604260 -1.23170907840784

