%nproc=4
%Mem=4GB
# td=(NStates=1) B3LYP/SVP 

TD

0 1
 8 -5.19772600260026  0.12205764536454 -3.21771156085609
 8  3.10965097059706  2.88664591929193  3.32512859125913
 8  3.42859120772077  0.67772317131713  3.24585647074707
 8  1.47246488598860 -7.26954322442244  1.44773327962796
 8  0.68881376937694 -7.05618204180418 -0.66063404630463
 8  1.47178422652265  3.95941906470647 -0.16511700430043
 7 -2.28139775087509 -0.87820625082508  0.59162617921792
 7 -4.17975285668567  0.55774344084408 -1.15483383818382
 7  1.86094648624862 -0.61958353135314 -0.22945142274227
 7  2.49240478237824  1.89446519201920 -0.54048079477948
 6 -4.61391778297830  1.20092158915892  0.03869966976698
 6 -4.38900629342934  0.28236840214021  1.24829218691869
 6 -2.87340243584358  0.05695595229523  1.44716672967297
 6 -2.02313140984098  0.66740169736974  2.15577874747475
 6 -0.65234184448445 -0.04855029052905  1.92508318591859
 6 -0.89097328512851 -0.91747480638064  0.88733055245525
 6 -6.13923627972797  1.39472726202620 -0.17125234063406
 6  0.67415602220222  0.22441311781178  2.63570259035904
 6 -6.50303081758176  0.89971922032203 -1.41141687038704
 6 -0.13286954305431 -1.97998673557356  0.24553663516352
 6  1.14310120632063 -1.78656820342034 -0.16430801300130
 6 -5.27629823012301  0.45464367906791 -2.04297160866087
 6  1.90780486568657 -2.87174771317132 -0.92699970927093
 6 -2.21718741964196  1.72274803170317  3.17407179737974
 6 -7.07436492969297  2.02909103830383  0.85662964886489
 6  3.05800213391339 -2.29485943714371 -1.42983422852285
 6  1.23093912121212  1.63798229162916  2.61908554445445
 6  3.00319839513951 -0.97167579317932 -1.02137612581258
 6  1.52060583078308 -4.36812277667767 -0.98600031693169
 6 -7.79349525552555  0.83212485008501 -2.09765815361536
 6  1.82881044664466 -5.16600753535354  0.34597059255926
 6  4.23424903390339 -3.00884935373537 -1.90413964526453
 6  3.90757162776278  0.02721212471247 -1.43683836623662
 6  2.67099772097210  1.65574316251625  3.03453935383538
 6  3.60933531133113  1.51328674017402 -1.10463703100310
 6 -9.08275325872587  0.89150131043104 -1.58766358165817
 6  1.32910797549755 -6.63929057925793  0.32635129412941
 6  4.48787762236224  2.61711846674667 -1.42666975007501
 6  3.67479674807481  3.75631615531553 -1.19951124542454
 6  2.37524909570957  3.28624647574757 -0.58311707440744
 6  5.71548515381538  2.45880072067207 -2.25455741084108
 6  3.98388400820082  5.18681355715572 -1.20793280668067
 6  6.52246230383038  3.52441812661266 -2.47455193209321
 1 -4.16705119121912  2.06097717781778  0.26722976327633
 1 -4.92382703960396 -0.70575205130513  1.02397714191419
 1 -4.88967580748075  0.82437643734373  2.15149205890589
 1 -2.90224926482648 -1.56540393589359  0.12944602280228
 1 -3.14734573187319  0.32704462156216 -1.42161971287129
 1  0.62873730843084 -0.28164785278528  3.71940148824883
 1  1.46290029942994 -0.45929059645965  2.16078121092109
 1 -0.59510817171717 -2.82442990799080 -0.00652565026503
 1 -3.34271441674167  1.74956622072207  3.34143413311331
 1 -1.74352556765677  1.38392775667567  4.16029441734173
 1 -1.78227460856086  2.82638645844584  2.85779320112011
 1 -6.50380383128313  2.94038284178418  1.45251748474847
 1 -7.67139690669067  1.30009981918192  1.28014502520252
 1 -8.02298823602360  2.40586666976698  0.33293177337734
 1  1.00182289068907  1.95694773137314  1.72196026332633
 1  0.71180429292929  2.50831765376538  3.14189001320132
 1  1.78122244864486  0.40248089308931 -0.33902926822682
 1  2.16566435863586 -4.81127495789579 -1.83066767646765
 1  0.42446424392439 -4.76357620512051 -1.11998048144814
 1 -7.90333139493949  0.52519274987499 -3.15835177337734
 1  1.38724091299130 -4.48220940064006  1.31063864046405
 1  2.91470774087409 -5.09540674517452  0.51571938683868
 1  4.05651071337134 -4.17814526672667 -2.14098755985599
 1  5.04140523892389 -2.76030488068807 -1.12100571817182
 1  4.57085851895190 -2.61752398499850 -2.91896096969697
 1  4.81996161566157 -0.05507760226023 -1.93081925762576
 1 -9.31140474097410  0.87892534803480 -0.48993168296830
 1 -10.02771090469047  0.70537195289529 -2.25925202520252
 1  4.07077176367637  2.95781916561656  3.37287205290529
 1  6.14397786598660  1.25525767496750 -2.55175399039904
 1  4.96043674347435  5.16235900010001 -0.60312893279328
 1  3.74395641814181  5.67409417511751 -2.24989753465347
 1  3.34271194079408  5.76499610601060 -0.65607734933493
 1  0.95406271437144 -8.17173833093309  1.36247230213021
 1  7.41056350075008  3.40617615751575 -3.22823009630963
 1  6.31652353985398  4.58561407360736 -1.90121247374737

