%nproc=4
%Mem=3GB
# td=(NStates=1) B3LYP/SVP 

TD

0 1
 8 -3.25829273947395 -1.32677773327333 -2.89333998829883
 8  3.23733418821882  3.05742740124012  2.92229650055005
 8  3.39745405360536  1.43542067036704  4.59632407600760
 8  7.59603820672067 -1.60963707790779 -0.65996675847585
 8  6.68219237563756 -2.91592238713871 -2.26847329542954
 8 -2.70205111161116  1.60428591769177  1.46464652515252
 7 -0.22564831103110 -2.56697301160116  0.98145298609861
 7 -2.55264730273027 -1.32641777677768 -0.67404954955496
 7  1.19568111751175  0.07010792049205 -0.62108704590459
 7 -0.99165831133113  1.47261266916692 -0.12393329122912
 6 -3.24918006770677 -1.32532009440944  0.67487446134613
 6 -2.70045867196720 -2.31321546774677  1.68365367216722
 6 -1.18179382108211 -2.00144795879588  1.85272326092609
 6 -0.47271707400740 -1.16830802250225  2.82566058655866
 6  0.86162727532753 -1.15058005900590  2.40208140274027
 6  0.96345903210321 -1.93379981468147  1.25115991999200
 6 -4.70298524512451 -1.79114476317632  0.31224811211121
 6  1.84099869126913 -0.34548487808781  3.12009416391639
 6 -4.74902126352635 -2.00315902430243 -1.02811315181518
 6  2.09468742514251 -1.93636182838284  0.27982026072607
 6  2.08312433433343 -0.89303121532153 -0.69695359685969
 6 -3.45558022792279 -1.55278724402440 -1.65275255865587
 6  3.07977904110411 -0.63794454275428 -1.83190708960896
 6 -1.30489906210621 -0.48101195819582  3.84216972527253
 6 -5.88644386848685 -2.01424790509051  1.33140414601460
 6  2.53252290919092  0.50247761596160 -2.52264687468747
 6  1.94950438283828  1.14811050305030  2.59934657625763
 6  1.37657102360236  0.99243589218922 -1.70012611861186
 6  4.29537488658866 -1.43968339743974 -2.04454408450845
 6 -5.76225056115612 -2.30407249764977 -1.99878332653265
 6  5.33905945694569 -1.23466521172117 -1.03071648854885
 6  3.19901999739974  1.30196859945995 -3.62362887208721
 6  0.44868729282928  1.99462460936094 -1.93286503160316
 6  2.89792843314331  1.82335192069207  3.53015836103610
 6 -0.59953378497850  2.29473410561056 -1.09255454335434
 6 -6.84856878337834 -3.12314607870787 -1.77160571927193
 6  6.55289485908591 -2.08656691179118 -1.45652634263426
 6 -1.44387304210421  3.50305253845385 -1.25173324802480
 6 -2.34507859725973  3.27962844184418 -0.15367327352735
 6 -2.00279255165517  2.06557749124913  0.58100703270327
 6 -1.26428640704070  4.45030129032903 -2.27287905590559
 6 -3.41300193669367  4.14793527642764  0.28921316101610
 6 -2.08109200040004  5.55455087328733 -2.53828756155616
 1 -3.24900339353935 -0.34683017291729  1.02773697829783
 1 -2.73926555295530 -3.24347947294729  1.16511686078608
 1 -3.11624144394439 -2.48847229162916  2.59702909160916
 1 -0.47267257205721 -3.09553831893189  0.21922893289329
 1 -2.20325871557156 -0.32641894539454 -0.71992609500950
 1  1.68222618401840 -0.30177163096310  4.10135223432343
 1  2.89099643254325 -0.95296718801880  3.03863879327933
 1  3.16045485938594 -2.47061864476448  0.39175222842284
 1 -2.34650728002800 -1.19917919191919  4.22247930973097
 1 -0.82587235523552 -0.07629183278328  4.72533889038904
 1 -1.72763207700770  0.57082952965297  3.23198196349635
 1 -5.87465825302530 -1.09855798699870  2.16584087708771
 1 -5.68092685338534 -3.00587469206921  1.72839568586859
 1 -6.89992736953695 -1.77550319371937  0.46515287698770
 1  2.19500563996400  1.27173711561156  1.56142375367537
 1  0.95395534703470  1.65875812011201  2.85995396909691
 1  0.41174943254325  0.22402677247725 -0.14163619591959
 1  4.61508722792279 -1.10351341034103 -3.17194279617962
 1  3.77892872267227 -2.47987976717672 -2.03717082508251
 1 -5.45105724412441 -1.96034695929593 -3.10440390419042
 1  4.97013493479348 -1.58670915081508 -0.02369914621462
 1  5.66658810011001 -0.22153915001500 -0.95979046154615
 1  4.08154806630663  0.94622111421142 -4.06099432893289
 1  3.59106485808581  2.18155923462346 -3.13285562096210
 1  2.49935572487249  1.40156465436544 -4.50015316731673
 1  0.61605551555155  2.68266976347635 -2.68719961196120
 1 -7.15360444654465 -3.27889007290729 -0.76971599279928
 1 -7.42229049394939 -3.45944727522752 -2.40967402090209
 1  3.91872560006001  3.31251061206121  3.50506376057606
 1 -0.16284016281628  4.38958023752375 -2.90051794719472
 1 -4.14174276387639  4.09705628742874 -0.51962311381138
 1 -4.05364411411141  3.79527432103210  1.24897570897090
 1 -3.22821113731373  5.32208249934994  0.53572934283428
 1  8.21655734923493 -2.25431858605861 -1.05912654765477
 1 -1.58486141074108  6.25021547864787 -3.39912476467647
 1 -2.93199555245525  5.69784115991599 -1.87616352385239

