%nproc=4
%Mem=4GB
# td=(NStates=1) B3LYP/SVP 

TD

0 1
 8 -5.29019524952495  0.13656909650965 -3.28136792649265
 8  3.03631363686369  2.94297155185519  2.98307438583858
 8  3.41358970757076  0.67021242024202  2.98766065116512
 8  1.65037267676768 -7.21626789688969  1.46322482878288
 8  0.76359124712471 -7.03430985458546 -0.64420240314031
 8  1.69520656875688  4.07081020382038  0.08814832223222
 7 -2.36537614871487 -0.95084351455146  0.67264428102810
 7 -4.33315819721972  0.73024069056906 -1.25889424422442
 7  1.83808420002000 -0.72039361236124 -0.30638911651165
 7  2.50771631353135  1.93090883638364 -0.55038178487849
 6 -4.78567495869587  1.25058655565557 -0.03212741294129
 6 -4.34568196099610  0.33965413071307  1.29230658835884
 6 -2.99408450405040  0.01233148984898  1.48455046804680
 6 -2.01550064676468  0.56330128732873  2.26006917651765
 6 -0.74691130143014 -0.05141057655766  1.86734741234123
 6 -1.01945613341334 -1.04903796269627  0.98692051145115
 6 -6.24730708680868  1.42777056635664 -0.16485170057006
 6  0.58882748934893  0.12494317081708  2.53855287538754
 6 -6.57970848534853  0.92926217461746 -1.38947467616762
 6 -0.20750700680068 -1.98222695959596  0.15993807530753
 6  1.08372526872687 -1.82328187478748 -0.18239982218222
 6 -5.40642124242424  0.50594880958096 -2.09812712421242
 6  1.90757484268427 -2.90609114751475 -0.88775578487849
 6 -2.26904260516052  1.54981073797380  3.29388377857786
 6 -7.13166065926593  2.08306643584358  0.81885587148715
 6  3.12824915861586 -2.33272322352235 -1.29759100420042
 6  1.17144317161716  1.51484997839784  2.53747738363836
 6  3.02034010931093 -0.88916754235424 -0.95418940714071
 6  1.51931570177018 -4.39399536393639 -0.85896761366137
 6 -7.91311721772177  0.79882151975198 -2.10893928172817
 6  1.79119668526853 -5.04073500810081  0.48448444394439
 6  4.29363497249725 -2.95511398019802 -1.98546777807781
 6  3.87561843244324  0.16861626512651 -1.30574525692569
 6  2.60172079327933  1.60856844504450  2.82036793669367
 6  3.69306368416842  1.44992040354035 -1.16487305460546
 6 -9.13180816421642  0.59867202750275 -1.46750156545655
 6  1.34536960166017 -6.58506515671567  0.31783044204420
 6  4.54539337393739  2.68237499239924 -1.46670375347535
 6  3.88336760516052  3.78964948864886 -1.05740703500350
 6  2.59193076387639  3.36512436353635 -0.50107887058706
 6  5.89616322162216  2.46266110671067 -2.07820977607761
 6  4.21948756855686  5.22004688048805 -1.11921393479348
 6  6.70486054365437  3.45717140194019 -2.64875935283528
 1 -4.32377686378638  2.28996007610761  0.28102114241424
 1 -5.05850050695070 -0.60554203030303  1.06250099429943
 1 -4.92698953885388  0.90947494719472  2.30249715941594
 1 -2.82116115601560 -1.13572096759676 -0.30870779257926
 1 -3.34049504680468  0.36763868096810 -1.48265581648165
 1  0.55619005370537 -0.34818450645065  3.56974652275228
 1  1.33687769716972 -0.61133580098010  2.06086121892189
 1 -0.88037669856986 -2.83518098309831 -0.13635863356336
 1 -3.47949809510951  1.55829709380938  3.47645763546355
 1 -1.78145936103610  1.52672203610361  4.30576896479648
 1 -1.77163354445445  2.66030985078508  3.09475689748975
 1 -6.56012946384638  2.79011781528153  1.57266949994999
 1 -7.40879064606461  1.24730453965397  1.51522853355336
 1 -7.95865180238024  2.53421950505051  0.54630311051105
 1  0.74737744614461  2.21261329792979  1.65221328862886
 1  0.82964607710771  2.04805162716272  3.44744056825683
 1  1.30031435783578  0.01241188618862  0.02946758145815
 1  2.19984777697770 -4.77603143354335 -1.59767437713771
 1  0.40165196269627 -4.41029087658766 -1.32771125452545
 1 -7.66586764856486  0.76005623622362 -3.35193113131313
 1  1.17329951885188 -4.57506868656866  1.34813238983898
 1  2.83684995509551 -4.81346855135514  0.76195401030103
 1  4.03973903620362 -3.95841329352935 -2.44525798689869
 1  5.30984208260826 -3.06886573677368 -1.09676329392939
 1  4.55103653675368 -2.24228646124613 -2.83655272887289
 1  4.61124074357436 -0.21538363286329 -1.88770494619462
 1 -9.16781038153815  0.81589904540454 -0.31837452725273
 1 -9.98421655525553  0.86247766346635 -2.10761686168617
 1  4.10757544404440  3.06515989968997  2.74855962166217
 1  6.29779324752475  1.42705485468547 -2.14116293129313
 1  5.43660436023602  5.33031579577958 -0.76928554845485
 1  4.08582060456046  5.43418018371837 -2.21177372227223
 1  3.58657632723272  5.69246885328533 -0.58860060166017
 1  1.47625493359336 -8.35353651075108  1.39501555645565
 1  7.60301274567457  3.14445998589859 -3.33202047534753
 1  6.62701458895889  4.58385389758976 -2.55586793929393

