%nproc=4
%Mem=4GB
# td=(NStates=1) B3LYP/SVP 

TD

0 1
 8 -5.45519174917492 -0.12697725812581 -3.20320010971097
 8  2.81024102960296  2.99834708940894  3.33565964436444
 8  3.36942529112911  0.85611101010101  2.86508839393939
 8  1.51897953745374 -7.09241551165116  1.59361786808681
 8  0.72448733673367 -7.00493691729173 -0.60360834373437
 8  1.89212626072607  3.94146726952695  0.20555006240624
 7 -2.33851346244624 -1.08330676087609  0.62876989358936
 7 -4.32300718211821  0.47310497699770 -1.24753310811081
 7  1.71607199879988 -0.71562313531353 -0.57949642724272
 7  2.65198073997400  1.94289003450345 -0.54052079877988
 6 -4.73756014721472  1.08154965196520 -0.02502670287029
 6 -4.38830622342234  0.22327249254926  1.28368572627263
 6 -2.93384848044804 -0.11459120242024  1.38728074107411
 6 -1.97551664836484  0.49028398559856  2.15856902650265
 6 -0.71861847214721 -0.08364379987999  1.88215889348935
 6 -0.94936912471247 -1.02356541544154  0.85926774617462
 6 -6.21222357845785  1.40077786708671 -0.13550876627663
 6  0.57098570517052  0.21311198769877  2.47227624772477
 6 -6.64384489898990  0.88309755815582 -1.34286001470147
 6 -0.12924918101810 -1.98209694659466  0.08471055255526
 6  1.07655455165517 -1.91065061166117 -0.45806738893889
 6 -5.44929552985298  0.30597881258126 -2.03867117861786
 6  1.97164124932493 -2.80507104550455 -1.07855486478648
 6 -2.25557125802580  1.61404716161616  3.05616000620062
 6 -6.98147564076408  2.09271740094009  0.90365435133513
 6  3.14027036073607 -2.32357230843084 -1.31014225932593
 6  1.06647267456746  1.69222771617162  2.75126876277628
 6  3.05194326962696 -0.89174780038004 -1.10908489668967
 6  1.46303007320732 -4.30392635703570 -0.86187790469047
 6 -7.96623252925293  0.84298593619362 -1.91471985978598
 6  1.69984755035504 -4.94752568716872  0.38716471197120
 6  4.27576318531853 -3.01168963776378 -2.05693492479248
 6  4.02718358895890  0.14108351185119 -1.29734441684168
 6  2.60798141934193  1.68734632283228  3.00725662556256
 6  3.76999137693769  1.52424783628363 -1.15675224252425
 6 -9.26247123052305  0.96023818411841 -1.52704752005201
 6  1.21490655535554 -6.46969361956196  0.44349300830083
 6  4.64243307790779  2.69111586648665 -1.58595567866787
 6  3.94400366876688  3.71156167986799 -1.11015230953095
 6  2.69059062986299  3.22914076517652 -0.40011877457746
 6  5.96625023032303  2.47913275387539 -2.05362731783178
 6  4.09295491529153  5.23461833763376 -1.20441245464546
 6  6.82810286788679  3.49210489528953 -2.42841731863186
 1 -4.33008749484949  2.09349042914291  0.29501254155416
 1 -4.91342599949995 -0.75654713081308  1.38378312251225
 1 -4.75473231313131  0.79134313401340  2.07631454115412
 1 -2.76504554445445 -1.55702309780978 -0.19162608440844
 1 -3.37971896919692  0.63720563766377 -1.56424397529753
 1  0.68627306200620 -0.31105079307931  3.52313186128613
 1  1.40628463786379 -0.24077874527453  2.06630176297630
 1 -0.67820648154815 -2.93031049604961 -0.22119711741174
 1 -3.24888503380338  1.94013527762776  3.29786977667767
 1 -1.61134234933493  1.34959432333233  4.08341672957296
 1 -1.66079246034604  2.58038185798580  2.87511493329333
 1 -6.42428587948795  2.96823562706271  1.38569080208021
 1 -7.41966173317332  1.54296410561056  1.71005801650165
 1 -7.87467340454045  2.68206428952895  0.55354383458346
 1  0.91477418581858  2.16691872847285  1.79908797609761
 1  0.83958707120712  2.25131195319532  3.67178300250025
 1  1.67149147554755  0.45082572757276 -0.41005637093709
 1  1.74428222042204 -4.93583741414141 -1.73008761846185
 1  0.41223302080208 -4.52423227072707 -1.18393687708771
 1 -7.81152221402140  0.61629185978598 -3.13571951015102
 1  1.01932412131213 -4.47978915861586  1.26126370297030
 1  2.89747601770177 -5.07044424892489  0.53707152205220
 1  3.88226328862886 -4.10225767796780 -2.64508796989699
 1  5.14883598199820 -3.10585943614361 -1.25572919051905
 1  4.62867430053005 -2.44608684128413 -2.96585565916592
 1  4.98287790729073 -0.09200129462946 -1.83020919661966
 1 -9.45909951045105  1.16064351985199 -0.58136082588259
 1 -10.19701783538354  1.15763717941794 -2.14384048404841
 1  4.01609629612961  3.08040142384238  3.35022978867887
 1  6.32555602380238  1.60208235743574 -2.30463927892789
 1  5.05419611941194  5.67784054825483 -0.71192981288129
 1  4.16303832633263  5.54062082778278 -2.35388793369337
 1  3.01623929352935  5.73465307170717 -0.87143888548855
 1  0.98890619871987 -7.99926108320832  1.61041709660966
 1  7.94309675407541  3.48382392229223 -2.74964223752375
 1  6.56435832333233  4.53903941614161 -2.25551790429043

