%nproc=4
%Mem=4GB
# td=(NStates=1) B3LYP/SVP 

TD

0 1
 8 -5.39939616961696 -0.00544510491049 -3.27040683038304
 8  3.09518952445245  2.89421667636764  3.17686376477648
 8  3.51226957555756  0.70329572857286  2.97383926902690
 8  1.52428006750675 -6.96563283338334  1.63691219751975
 8  0.52447733573357 -6.87073349694970 -0.46985496839684
 8  1.70225727382738  3.91968509130913  0.04521402880288
 7 -2.25456506760676 -0.90201863206321  0.65188220482048
 7 -4.37215209660966  0.57670533703370 -1.27946630143014
 7  1.85885627722772 -0.69207078007801 -0.50743922152215
 7  2.47717325922592  1.89757550305030 -0.58471521822182
 6 -4.78165455665567  1.09236073307331 -0.03938813901390
 6 -4.35662305510551  0.39631979727973  1.25429278697870
 6 -2.91019611521152  0.08679893659366  1.44159617261726
 6 -1.88051714841484  0.69308426562656  2.12484565416542
 6 -0.65637224752475  0.03226779127913  1.77216789438944
 6 -0.98508269606961 -0.87475053395340  0.75552737213721
 6 -6.26916927302730  1.25443323262326 -0.18036325172517
 6  0.60922952955296  0.12888356485649  2.52496151625163
 6 -6.65498601310131  0.75103435183518 -1.31881761046105
 6 -0.16113236933693 -1.92041077797780  0.16623870537054
 6  1.11460835703570 -1.80919046564656 -0.47510909310931
 6 -5.46964756505651  0.30504871957196 -2.10946825832583
 6  1.89942402760276 -2.86039657805781 -0.94548155745575
 6 -2.02389809070907  1.84315007190719  3.16440083028303
 6 -7.16307380058006  1.86772490169017  0.96690067596760
 6  3.03504983868387 -2.36476642784278 -1.53437468256826
 6  1.21569759705971  1.59911840524052  2.63927756365637
 6  3.09913798909891 -0.87524615021502 -1.22611659985999
 6  1.48436220642064 -4.37264322872287 -1.05436715361536
 6 -7.97120302630263  0.52538417601760 -2.07352574037404
 6  1.64520208580858 -4.95748668326833  0.40787678317832
 6  4.31494710371037 -3.01165963476348 -2.10238947024702
 6  3.93121399199920  0.04427383088309 -1.43921860426043
 6  2.71606222742274  1.64931251945195  2.99452535243524
 6  3.67163154095410  1.51056646814681 -1.08897546484648
 6 -9.18471345474548  0.73966612691269 -1.46021083638364
 6  1.15909097379738 -6.38709535973597  0.43804246324632
 6  4.58696753135314  2.60111686658666 -1.33153023612361
 6  3.77828709710971  3.69796031973197 -1.03072436673667
 6  2.52292386318632  3.27346519761976 -0.48778754145415
 6  5.84422802810281  2.46615145574557 -1.86497845294529
 6  4.40508612841284  5.16364123992399 -0.88610062346235
 6  6.69989004660466  3.52124780958096 -2.36609108600860
 1 -4.52414690079008  2.11682276237624  0.19124216451645
 1 -4.67582223912391 -0.56307778387839  1.28634337853785
 1 -4.45189202910291  1.19283328302830  2.17700461016102
 1 -2.71249028892889 -1.32538993449345 -0.05210213201320
 1 -3.47525852315231  0.85357727482748 -1.52541009190919
 1  0.55294972967297 -0.41250093809381  3.51185073317332
 1  1.50044405380538 -0.39191385878588  1.87255238803880
 1 -0.35115377627763 -2.89906737173717  0.17220222252225
 1 -3.09422956825683  2.33794505860586  3.24364435413541
 1 -1.64694590969097  1.34629399329933  4.20973936183618
 1 -1.13550993209321  2.68279209900990  2.97395481728173
 1 -6.49917336823682  2.56354515801580  1.60746297929793
 1 -7.89899966696670  1.10047985718572  1.33219022972297
 1 -7.91018695589559  2.54798088118812  0.19424790499050
 1  1.12666537493749  2.07316935353535  1.81769983728373
 1  0.65765887838784  2.07485430743074  3.49553537773777
 1  1.58180250665066  0.23820446544654 -0.27226259155916
 1  2.14730252245224 -4.87030086048605 -1.84119872957296
 1  0.53167496499650 -4.38742859035904 -1.49322780618062
 1 -7.74742580438044  0.12930316091609 -3.03727966616662
 1  0.96990917981798 -4.27204838453845  1.03709128572857
 1  2.71249751985199 -4.92241944644464  0.86182399729973
 1  4.18349341164117 -4.12439989218922 -2.46994045514551
 1  5.08581968036804 -2.91431028122812 -1.44604822242224
 1  4.58186962006201 -2.61396362896290 -3.06521559515952
 1  4.79848946844685 -0.08967106160616 -1.99546572227223
 1 -9.44771837233723  1.18741619711971 -0.44398708850885
 1 -9.95802393599360  0.42409382508251 -2.04022012201220
 1  4.06564125062506  2.77648103180318  3.57577234293429
 1  6.27773124132413  1.39023117231723 -1.85562437743774
 1  5.32455315511551  5.11827459165917 -0.21412003190319
 1  4.13152517501750  5.69846661236124 -1.78296084098410
 1  3.53964163376338  5.70843044944494 -0.44465620722072
 1  1.62342965106511 -7.99377053415342  1.45292134703470
 1  7.70347279167917  3.27392293219322 -2.70360763406341
 1  6.31476336383638  4.70356586878688 -2.54927728022802

