%nproc=4
%Mem=4GB
# td=(NStates=1) B3LYP/SVP 

TD

0 1
 8 -5.27543377337734 -0.16215077547755 -3.17060685038504
 8  3.11841184668467  2.93029028372837  3.13983006140614
 8  3.49035738433843  0.71426682568257  2.92119400450045
 8  1.69771741124112 -7.19515578567857  1.29710821712171
 8  0.49377426542654 -6.96474289788979 -0.52932091499150
 8  1.69892694079408  3.91464458725873  0.24872437983798
 7 -2.38249786088609 -0.97242567276728  0.68319533613361
 7 -4.19653453485349  0.54982264876488 -1.15144349914992
 7  1.67439783138314 -0.70843241624162 -0.46086456405641
 7  2.52197773967397  1.84323006850685 -0.54963170987099
 6 -4.72436882808281  1.28483998099810 -0.11908610881088
 6 -4.30174756755676  0.51721188648865  1.38230558825883
 6 -2.85180027562756  0.14105436213621  1.41860387338734
 6 -1.90946004270427  0.67705266246625  2.11353452305231
 6 -0.66777338763876 -0.00112554805481  1.90699137673767
 6 -1.01135532333233 -0.97348040694069  0.99800161956196
 6 -6.15716807290729  1.44274206350635 -0.21681689708971
 6  0.60349895649565  0.19662033853385  2.70155917601760
 6 -6.45359587408741  0.79791904030403 -1.37949367806781
 6 -0.20978723482348 -2.01766050295029  0.39889197069707
 6  1.05167206340634 -1.88970851745174 -0.25573715591559
 6 -5.28426902720272  0.33000121482148 -1.98230554205421
 6  1.85947003220322 -2.82263280168017 -0.85823283258326
 6 -2.13280898179818  1.84370012691269  3.08233262346235
 6 -7.12436993019302  2.20777890709071  0.67004098999900
 6  3.07699403310331 -2.29945989718972 -1.28028927402740
 6  1.18994502180218  1.51419991339134  2.67725136103610
 6  2.93788186348635 -0.91070969656966 -0.97586157435744
 6  1.41517528772877 -4.27044300870087 -0.98160987788779
 6 -7.79106501250125  0.57462910051005 -2.12377076487649
 6  1.88501606720672 -5.09659059365937  0.28039403490349
 6  4.18450405940594 -3.03068153695370 -1.99391862316232
 6  3.89457032763276  0.09518892239224 -1.24196887928793
 6  2.73103372457246  1.65356294449445  2.97501340124012
 6  3.57735211301130  1.45909132063206 -1.12866943424342
 6 -9.03157814121412  0.75360752105211 -1.58520333563356
 6  1.27270233493349 -6.51444809500950  0.18794745374537
 6  4.44591342594259  2.68886564146415 -1.45332241534153
 6  3.76505577397740  3.75556608030803 -1.12362365666567
 6  2.55777734853485  3.20755860696070 -0.33688245094509
 6  5.79636324162416  2.55089993059306 -2.12372432753275
 6  4.00650627042704  5.18238311411141 -1.15260727412741
 6  6.56322638023802  3.53402908770877 -2.53758823572357
 1 -4.26101058715872  2.33812489258926  0.11288432873287
 1 -4.92262691959196 -0.53617509360936  1.27151189538954
 1 -4.51738857875788  1.20916491619162  2.27397430713071
 1 -2.74069310921092 -1.56413380888089  0.07769084728473
 1 -3.17260825812581  1.00893281038104 -1.51862941384138
 1  0.43158759345935 -0.31631131913191  3.78257780588059
 1  1.56632064146415 -0.33875854325433  2.27394252705271
 1 -0.78501716261626 -2.92305977097710  0.11279628192819
 1 -3.26537668296830  1.57361862596260  3.12060204990499
 1 -1.36144735983598  1.79172853675367  3.91474986288629
 1 -2.04891127222722  2.83851767156716  2.64082150395040
 1 -6.71009446034603  2.97143594709471  1.30279251225123
 1 -7.64714448144814  1.46582639183918  1.32975998669867
 1 -7.83326926412641  2.63497958105811  0.06962544274427
 1  1.37605031343134  2.04420645724572  1.63563163046305
 1  0.63945705820582  2.28933575557556  3.14252007620762
 1  1.36541086748675  0.21868251325133 -0.27617298259826
 1  1.80860865306531 -4.61808563896390 -1.95843045274527
 1  0.20863266076608 -4.32628247574758 -1.04560304370437
 1 -7.79780084188419  0.58255848644864 -3.25377131533153
 1  1.16326851575158 -4.77521870157016  1.12949052565257
 1  2.93542981308131 -5.07219442394239  0.29853766866687
 1  4.05079014131413 -4.15648310051005 -2.56951041214121
 1  5.00809190759076 -2.96821567176718 -1.21313493109311
 1  4.50317175027503 -2.30821305390539 -2.85219429302930
 1  4.89850947044704 -0.14302639713971 -1.85364153985399
 1 -9.45117871837184  0.44799225472547 -0.56039872967297
 1 -9.78949708330833  0.47837925362536 -2.45687178717872
 1  3.91588627512751  2.73408679237924  3.28029279497950
 1  6.36944041224122  1.51257340654065 -1.98591740674067
 1  4.91854255405540  5.52413517771777 -0.53185180508051
 1  4.14608663116312  5.49507627332733 -2.14458700360036
 1  3.25651332093209  5.65770537693769 -0.50863260486049
 1  1.44489179727973 -8.09101025812581  1.18090414531453
 1  7.70423286768677  3.34288982888289 -3.08938621192119
 1  6.11498338583858  4.49305481768177 -2.52428478097810

