%nproc=4
%Mem=4GB
# td=(NStates=1) B3LYP/SVP 

TD

0 1
 8 -5.46710294029403  0.06820225982598 -3.27320711041104
 8  3.10409041454145  2.91420867556756  2.96648272667267
 8  3.24413276187619  0.69257465646565  3.01741362646265
 8  1.83148078757876 -7.25312158225823  1.46203470977098
 8  0.73833872187219 -7.17537396099610 -0.55147313021302
 8  1.65047209530953  4.07804092689269 -0.16652714531453
 7 -2.40576018711871 -0.99151758195820  0.56047306390639
 7 -4.41228611001100  0.47200486698670 -1.25592394719472
 7  1.84156454805481 -0.70856242924292 -0.41876035363536
 7  2.53678922082208  1.96760250575058 -0.61454820152015
 6 -4.77798418961896  1.08672016901690  0.05530132993299
 6 -4.47041443424342  0.32038220352035  1.36870422812281
 6 -2.96390148574858  0.01081133783378  1.37122913591359
 6 -1.97213631033103  0.65053001020102  2.12188535813581
 6 -0.69045565586559 -0.02914835033503  1.70208088568857
 6 -1.03234742254225 -1.04154721362136  0.86769858925893
 6 -6.28415077117712  1.37861565086509 -0.08744395979598
 6  0.58925753235324  0.28128880538054  2.49222824292429
 6 -6.75818633313331  0.90411966036604 -1.31431716041604
 6 -0.26688294439444 -1.95557429432943  0.13052513401340
 6  1.09882677887789 -1.81963150975097 -0.38085966816682
 6 -5.53532413271327  0.47647586228623 -2.07821513301330
 6  1.97339142434243 -2.91637217561756 -0.84326133543354
 6 -2.16482218311831  1.73633939083908  3.17957234743474
 6 -7.17042453565357  1.77631576077608  0.99765375127513
 6  3.12437877157716 -2.30530048124812 -1.30106135123512
 6  1.09466549384938  1.66216470987099  2.40323395929593
 6  3.09143721902190 -0.90938956455646 -1.06567055525553
 6  1.63103687388739 -4.34758072247225 -0.91335305220522
 6 -7.98919482548255  0.82919455705571 -1.95441382918292
 6  1.65801336693669 -5.13217415201520  0.47916391189119
 6  4.30279588858886 -2.92855132393239 -1.83777300860086
 6  3.97603847444744  0.09806921042104 -1.29446412881288
 6  2.57211783298330  1.69054664286429  2.81804770467047
 6  3.67689206700670  1.49858527002700 -1.08389495679568
 6 -9.23268825222522  1.10596275657566 -1.43965878117812
 6  1.42171723642364 -6.60318696889689  0.29865852485249
 6  4.60356919151915  2.65129188408841 -1.47940502360236
 6  4.04446371477148  3.77207773147315 -0.99199049334933
 6  2.57008857965797  3.35731358245825 -0.50302906560656
 6  5.94425803110311  2.41300614121412 -1.98096005110511
 6  4.36842246204620  5.23474835063506 -0.93822583598360
 6  6.84152421002100  3.38269395419542 -2.29320379727973
 1 -4.16897138323832  2.03263434353435  0.18187122742274
 1 -5.09105376227623 -0.56511798789879  1.26659140334033
 1 -4.78675551545154  1.06845084478448  2.19868677837784
 1 -2.82420146004600 -1.50752814831483 -0.17830475227523
 1 -3.53809480678068  0.63269518661866 -1.62857040794079
 1  0.59958439313931 -0.01001068906891  3.42264181228123
 1  1.27789179857986 -0.32882755015502  1.86302143494350
 1 -0.72267092799280 -3.06425389038904  0.05982098439844
 1 -3.17073721902190  1.78558982308231  3.24596458615862
 1 -1.59259047414741  1.57154651855185  4.01239962786279
 1 -1.83804018511851  2.64457827762776  2.83027044884488
 1 -6.42984643554355  2.34038284178418  1.91841407440744
 1 -7.77241700870087  0.94753456265627  1.50483749444944
 1 -7.91304724192419  2.75950203330333  0.79394787498750
 1  1.12678538693869  2.32041407800780  1.44167223452345
 1  0.59383249574957  2.44164098609861  3.00525634983498
 1  1.74181850825082  0.36939758475848 -0.18283364866487
 1  2.12583037523752 -4.93384721512151 -1.69345395509551
 1  0.65795759325933 -4.60579042654265 -1.35416389978998
 1 -7.79303036483648  0.34074430503050 -2.99523546174617
 1  0.96374856375638 -4.72405358505851  1.20911848844885
 1  2.58597486758676 -4.61491869636964  0.93946176107611
 1  4.17686274857486 -4.05934338653865 -1.95669913101310
 1  5.36445754415442 -2.71047989818982 -1.34169778737874
 1  4.59805123822382 -2.43871610421042 -2.70987006060606
 1  5.03372299179918  0.03049095459546 -1.65599177487749
 1 -9.41610521102110  1.55826328182818 -0.36940963076308
 1 -10.06579471307131  0.89963137883788 -2.10594669466947
 1  3.92305699219922  2.72836622032203  2.97050181588159
 1  6.27488095629563  1.43057520672067 -2.09025784078408
 1  5.21995269506951  5.45452821702170 -0.44943356325633
 1  4.38979100160016  5.58730549624963 -2.02783532843284
 1  3.57455512511251  5.86795640204020 -0.42418416001600
 1  1.53577088518852 -8.30315147224722  1.46385244014401
 1  7.84156660106011  3.17818335823582 -2.64212148544855
 1  6.82525441294129  4.47548306050605 -2.27860021252125

