%nproc=4
%Mem=3GB
# td=(NStates=1) B3LYP/SVP 

TD

0 1
 8 -3.01293820402040 -1.60422547804780 -2.83350400470047
 8  3.03917437223722  3.08360001850185  3.03048731963196
 8  3.91996630483048  1.18035516381638  4.08889333293329
 8  7.69205780868087 -1.63632974717472 -0.58995975777578
 8  6.60490464686469 -2.90641143604360 -2.08831527962796
 8 -2.58409931643164  1.65175066416642  1.53437349784978
 7 -0.29535528172817 -2.38348466276628  0.87666250705071
 7 -2.67988002600260 -1.16515165016502 -0.54148629322932
 7  1.14457600700070  0.18663957365737 -0.65859079627963
 7 -1.00782992849285  1.37568297619762 -0.15890678857886
 6 -3.37506265596560 -1.18433599599960  0.63498047194719
 6 -2.69636826292629 -2.30680482668267  1.55211051785179
 6 -1.24718035973597 -2.04364217821782  1.71620960956096
 6 -0.62200200250025 -1.15750694239424  2.68194621512151
 6  0.77149826242624 -1.21693669466947  2.46776797139714
 6  0.88714140034003 -1.88439487418742  1.27053185718572
 6 -4.69971491809181 -1.78526417511751  0.33020990829083
 6  1.82308690009001 -0.42752308190819  3.11251340584058
 6 -4.73496985838584 -2.01514022242224 -1.10081042154215
 6  2.03092104850485 -1.87272546474647  0.33423570227023
 6  2.09591561346135 -0.80261217341734 -0.62759666116612
 6 -3.43839850975098 -1.54024598989899 -1.62420970437044
 6  3.02706376957696 -0.66534728302830 -1.65196909580958
 6 -1.37006557875788 -0.47369122612261  3.82661817011701
 6 -5.83168839293929 -1.94935141544154  1.26635764136414
 6  2.58355801270127  0.50404777297730 -2.39335394539454
 6  1.97981741414141  1.04429012101210  2.61797843944394
 6  1.37179054555456  1.02605925452545 -1.83896000200020
 6  4.12506785588559 -1.45405483458346 -1.99414904500450
 6 -5.72940727682768 -2.50117220762076 -1.96142959115912
 6  5.33627917891789 -1.09077082228223 -1.05846926382638
 6  3.24809490489049  1.29923832643264 -3.56048255745575
 6  0.51256368046805  2.09459460636064 -1.97142888798880
 6  3.12034067436744  1.72754233973397  3.43020836603660
 6 -0.62378621022102  2.24516914911491 -1.19650493839384
 6 -6.86020994749475 -3.33167693179318 -1.60835939463946
 6  6.52793236283628 -1.99973822892289 -1.30217090709071
 6 -1.51436009080908  3.43496572977298 -1.28222629732973
 6 -2.38982307170717  3.33992447144714 -0.26548445464546
 6 -2.10554282668267  2.04675560906091  0.48478741074107
 6 -1.28607858625863  4.57177343754375 -2.17724949294929
 6 -3.46162679917992  4.28837932083208  0.25288952865287
 6 -1.98956284748475  5.71200661886189 -2.39768350115011
 1 -3.51432992619262 -0.09894538443844  1.19419362396240
 1 -2.87679930633063 -3.37964308930893  1.15476582568257
 1 -3.24620444024402 -2.35695914031403  2.64139352805281
 1 -0.49735504030403 -3.01459022412241  0.12587959795980
 1 -1.97153554325433 -0.48818512201220 -0.54096819921992
 1  1.54411237263726 -0.50779223302330  4.28802090119012
 1  2.74344167706771 -1.02705459675968  3.04479940934093
 1  2.81996080998100 -2.86512809570957  0.28705175837584
 1 -2.19840246954695 -1.32632190619062  4.28760582238224
 1 -0.73011277927793 -0.18657286088609  4.52545890239024
 1 -1.92566187998800  0.33212565926593  3.36592535783578
 1 -5.74165495269527 -1.37395552675267  2.17331162416242
 1 -5.87503626432643 -3.16569067366737  1.50522336863686
 1 -6.94001137793779 -1.75389103250325  0.91605796749675
 1  2.16051219061906  1.26984692659266  1.54839245054505
 1  1.23397334883488  1.86657890219022  2.74589256295630
 1  0.45658391599160  0.24190856065607  0.18098606630663
 1  4.53772949214922 -1.37557061606161 -2.98192379427943
 1  3.88954978477848 -2.49651143034303 -1.90801790979098
 1 -5.68907104550455 -2.22391331593159 -2.94298776257626
 1  5.10760868216822 -1.56582706260626 -0.09926670297030
 1  5.80648208950895 -0.01937893399340 -1.20162464496450
 1  4.04792470397040  0.72788928102810 -3.97861609110911
 1  3.60353610521052  2.32449352805281 -3.11570390579058
 1  2.48798458775878  1.70065456335634 -4.46240939293929
 1  0.76774068406841  2.72550404690469 -2.70079097109711
 1 -7.08368745484548 -3.64926711061106 -0.65922494369437
 1 -7.45121338623862 -3.39058038853885 -2.41605465896590
 1  3.72783651115112  3.55100446144614  3.51447470167017
 1 -0.35124900370037  4.46736801630163 -2.80536843224322
 1 -4.31165975557556  4.43376995879588 -0.62494364586459
 1 -3.98214696439644  4.00567536113611  1.27461827322732
 1 -3.03425174137414  5.20181047214721  0.51852762266227
 1  8.44255994949495 -2.09901305550555 -1.00267090209021
 1 -1.84355728032803  6.28172862996300 -3.33438829102910
 1 -2.74066641954195  5.93848522432243 -1.77317322482248

