%nproc=4
%Mem=4GB
# td=(NStates=1) B3LYP/SVP 

TD

0 1
 8 -5.35539176917692  0.08446388598860 -3.28351814151415
 8  3.11439144464446  2.84473172787279  3.14095017341734
 8  3.32459080768077  0.63068846784678  3.09669155425543
 8  1.35107274677468 -6.99199546964696  1.63904241054105
 8  0.34376926492649 -6.94742116571657 -0.33404138703870
 8  1.90856790489049  4.05168829162916  0.30777028442844
 7 -2.31721133223322 -0.88863729392939  0.52608962556256
 7 -4.32036691809181  0.59125679217922 -1.23599195399540
 7  1.86765715731573 -0.65764733773377 -0.42572104970497
 7  2.66110165206521  1.99472521802180 -0.47982472917292
 6 -4.79958634983498  1.14911640864086  0.00793659345935
 6 -4.36732412521252  0.35014517981798  1.27615497319732
 6 -2.98951404700470  0.09597985468547  1.32412442544254
 6 -1.90630972767277  0.62483744094409  2.06376954655466
 6 -0.71653826412641 -0.08425386088609  1.77125780338034
 6 -0.97381156895690 -0.92098515741574  0.81231305070507
 6 -6.24736709280928  1.20236802610261 -0.13840905630563
 6  0.61986059265927  0.16101677817782  2.46136515661566
 6 -6.61361187568757  0.75799504790479 -1.39616534523452
 6 -0.12217847394739 -2.04828356525653  0.23094517601760
 6  1.12793969016902 -1.89093864046405 -0.33025460766077
 6 -5.39761036133613  0.43404161886189 -2.02518983048305
 6  1.97937202240224 -2.90271080948095 -0.99963697299730
 6 -2.17407310821082  1.64678043494349  3.16549093929393
 6 -7.27318481168117  1.68276640584058  0.88750273617362
 6  3.10727706140614 -2.29022897409741 -1.44433567866787
 6  1.13269929722972  1.59711820522052  2.63532716861686
 6  3.03274134943494 -0.82242086768677 -1.03017700590059
 6  1.60386415661566 -4.31981794619462 -1.05328704560456
 6 -7.94299020502050  0.56452809040904 -2.00657904570457
 6  1.62487005260526 -5.00259119371937  0.30890688618862
 6  4.31519712871287 -2.92946141494149 -2.10638987028703
 6  3.95112598319832  0.14894429792979 -1.42785746814681
 6  2.60314093529353  1.59198678687869  2.93131903180318
 6  3.82464684248425  1.67329274077408 -1.12616918421842
 6 -9.12281726512651  0.59746190649065 -1.43646846214621
 6  1.06987205190519 -6.33407005720572  0.45561422042204
 6  4.59318815341534  2.73348010291029 -1.54227131023102
 6  3.98916818521852  3.72079260296030 -1.05063635793579
 6  2.74337590839084  3.28997684878488 -0.33266202890289
 6  5.98187179247925  2.50186502710271 -2.17274923002300
 6  4.26808242804280  5.20595547134713 -1.17441945534553
 6  6.64581463906391  3.55320100490049 -2.59204368126813
 1 -4.25607009310931  2.31341242134213  0.11544458475848
 1 -4.91443610051005 -0.56321779787979  1.32133687788779
 1 -4.54464130403040  0.85914991469147  2.28691560126013
 1 -2.72686172607261 -1.26228362386239 -0.27537445924592
 1 -3.41986298359836  0.55066698379838 -1.59585713661366
 1  0.44705914061406 -0.47977766576658  3.37439698779878
 1  1.33432744214422 -0.46819148654865  1.91389652245225
 1 -0.58601726262626 -2.85405287028703  0.21454645694569
 1 -3.36945709100910  1.80161142524252  3.36099608930893
 1 -1.70691190629063  1.26046541044104  4.19523791169117
 1 -1.67246362746275  2.49480330013001  2.79873729552955
 1 -6.62383583448345  2.26196500000000  1.72951518451845
 1 -7.75922568956896  0.87906771597160  1.52663967466747
 1 -7.98407434463446  2.50683676677668  0.54585306550655
 1  0.86111882028203  2.29283131973197  1.73058112541254
 1  0.49983309580958  2.16991381338134  3.45275109930993
 1  1.75436976337634  0.24571521652165  0.05359999469947
 1  2.09896768896890 -4.89112294269427 -1.81475608530853
 1  0.46151794929493 -4.24101394889489 -1.34927341074107
 1 -7.82225328712871  0.53513374397440 -3.07930386858686
 1  0.98272046094609 -4.45240642034203  0.87788536513651
 1  2.58020429052905 -4.90713791829183  0.71707952285229
 1  4.48909397169717 -3.92825027722772 -2.32160562166217
 1  5.25183628202820 -2.55384423462346 -1.42234585218522
 1  4.69204063716372 -2.41436366896690 -3.10022909650965
 1  4.82013163266327 -0.24187628212821 -1.74862103780378
 1 -9.25365896639664  0.85491294679468 -0.36417910771077
 1 -9.93002113571357  0.53533494919492 -2.09010511051105
 1  4.13405809230923  2.70093347704770  3.03559832553255
 1  6.23529699789979  1.46581873107311 -2.63571238623862
 1  5.05194589438944  5.54953771797180 -0.64984360426043
 1  4.39410143264326  5.58153491919192 -2.21940448534853
 1  3.45362303190319  5.76957656405641 -0.59973171477148
 1  0.68426573467347 -7.74504566166617  1.82716877177718
 1  7.65821826622662  3.29249478937894 -3.18224549784978
 1  6.53778566606661  4.53952946514652 -2.15336768926893

