%nproc=4
%Mem=4GB
# td=(NStates=1) B3LYP/SVP 

TD

0 1
 8 -5.41395762576258  0.08922436203620 -3.21818160786079
 8  2.87932793829383  3.02241949664966  3.30139621802180
 8  3.41205955455546  0.89085448444844  2.65763764886489
 8  1.49776741624162 -7.03607987808781  1.69318782508251
 8  0.66000088808881 -6.96246266986699 -0.43475145804580
 8  1.76652370047005  4.00547367016702  0.02771227862786
 7 -2.37405701680168 -0.97265569576958  0.56853386998700
 7 -4.30307518891889  0.62649031553155 -1.21510986578658
 7  1.80446083768377 -0.73828540154015 -0.50377885548555
 7  2.59337487938794  1.86709245474547 -0.45866261296130
 6 -4.81807819901990  1.20819231623162  0.06849264906491
 6 -4.42599999279928  0.26568673397340  1.28521587928793
 6 -2.95752084768477 -0.02253199649965  1.39120113311331
 6 -1.93105220192019  0.67433239043904  2.08063123272327
 6 -0.69989659996000 -0.12838827432743  1.73093377097710
 6 -0.99493368116812 -0.87503056195620  0.77082890229023
 6 -6.31416377247725  1.27130491979198 -0.09070428582858
 6  0.58066667326733  0.27420809730973  2.41521054115412
 6 -6.64595511001100  0.86492574097410 -1.29533526222622
 6 -0.27625388148815 -2.00995973287329  0.06284836633663
 6  1.09936683288329 -1.92498204480448 -0.38933051525152
 6 -5.51125172547255  0.37945616031603 -2.03373068456846
 6  1.86848093329333 -2.94204474287429 -1.10570758005801
 6 -2.17323302420242  1.69382513941394  3.16618100830083
 6 -7.06498399159916  1.89292742194219  1.12026601250125
 6  3.10330666436644 -2.28913886508651 -1.43050429552955
 6  1.02207823512351  1.68359685308531  2.43589722562256
 6  3.02564063936394 -0.91982060766077 -1.14433842204220
 6  1.63496726692669 -4.45656162056206 -1.12330404730473
 6 -8.00615652165217  0.73372501010101 -2.04081246904691
 6  1.87531509710971 -5.07856879147915  0.34430042554255
 6  4.44253986298630 -2.94550301910191 -2.06962619391939
 6  3.95912678327833  0.06895629912991 -1.34368905130513
 6  2.56042666386639  1.81174876307631  2.76592249214921
 6  3.70670504830483  1.44519993149315 -1.06862342964296
 6 -9.21170615401540  0.78324048434843 -1.43295811111111
 6  1.25916098079808 -6.42839949014902  0.45189384838484
 6  4.62709154375437  2.49468622352235 -1.42857994109411
 6  3.94661392979298  3.66892741644164 -0.96532782708271
 6  2.68872044284428  3.23408125922592 -0.44349311201120
 6  6.00170377567757  2.43395823642364 -1.87518947404740
 6  4.33766938673867  5.03369824562456 -0.94285629902990
 6  6.78711876947695  3.51513719851985 -2.31512598949895
 1 -4.45763024912491  2.34323540364036  0.22504554485449
 1 -5.12814747164716 -0.60739221532153  1.22942768696870
 1 -4.69010585048505  0.89470347004700  2.24311122082208
 1 -2.68888792869287 -1.59302669816982 -0.13327024882488
 1 -3.31011200850085  0.87477939503950 -1.58350590149015
 1  0.60198463316332  0.02268258025803  3.36814636273627
 1  1.45687969736974 -0.09487415481548  1.80546567936794
 1 -0.79606826772677 -2.89746721172117 -0.06180117781778
 1 -3.20761090639064  1.65649691379138  3.72650263996400
 1 -1.24242545764577  1.62013137703770  3.82760114801480
 1 -1.81398777987799  2.74868868866887  2.72965038683868
 1 -6.53039649054905  2.81780058355836  1.64976720972097
 1 -7.57204697169717  1.10596040524052  1.83577058775878
 1 -8.04247018421842  2.29162524562456  0.56993547374738
 1  1.13499620802080  2.37047908450845  1.57786585388539
 1  0.35040815331533  2.11168799079908  3.25319114331433
 1  1.50352467886789  0.20086073107311 -0.16970233553355
 1  2.31864965716572 -4.94196802720272 -1.95860046974697
 1  0.66906870437044 -4.72884273177318 -1.57992647604760
 1 -8.00468152995299  0.61301153175318 -3.16038197639764
 1  1.47681987088709 -4.33052423212321  1.11596917351735
 1  2.85254152425243 -5.32151935643564  0.49635745064506
 1  4.09570463276328 -3.89041649384939 -2.53394685578558
 1  4.93933503190319 -3.00031888208821 -0.91987560516052
 1  4.81359279237924 -2.15520775337534 -2.82548162176218
 1  4.85040465996600 -0.20860295479548 -1.56693286898690
 1 -8.99614321482148  0.72375983148315 -0.27270996079608
 1 -10.14913304690469  0.85208662436244 -1.85601170117012
 1  3.73079776627663  2.96694007770777  3.37334209990999
 1  6.50427389558956  1.36605875507551 -1.90742955795580
 1  5.10893159295930  5.34431719591959 -0.55077369726973
 1  4.41637365986599  5.51918868456846 -2.00413295819582
 1  3.45403307290729  5.44326393279328 -0.40282202380238
 1  1.39245655375538 -7.94117527462746  1.58926498139814
 1  7.83846629102910  3.49326486638664 -2.70750802410241
 1  6.31094298179818  4.62216772897290 -2.13549590209021

