%nproc=4
%Mem=4GB
# td=(NStates=1) B3LYP/SVP 

TD

0 1
 8 -5.35367159715972  0.23176861646165 -3.41235102480248
 8  3.15035504100410  2.97509476417642  3.02690876927693
 8  3.41360970957096  0.73213861286129  3.05652753785379
 8  1.40182782228223 -7.13961023112311  1.56996550285029
 8  0.53371825982598 -7.13090951455145 -0.44133211611161
 8  1.52273932203220  3.99239236203620 -0.05084557715772
 7 -2.29194880598060 -0.93122155235524  0.62051906850685
 7 -4.32504738613861  0.50405807230723 -1.16560491529153
 7  1.90155054665467 -0.73209478247825 -0.40881935953595
 7  2.44317985988599  2.01168691419142 -0.51575832253225
 6 -4.71806819801980  1.13953545054505  0.02762856265627
 6 -4.35829322212221  0.25453561886189  1.19999735743574
 6 -2.99724482008201 -0.05247499079908  1.39401141414141
 6 -1.95936503320332  0.53738869606961  2.21098426802680
 6 -0.64260087038704  0.03394795929593  1.85800647824782
 6 -0.90466465426543 -1.02718577747775  0.85028684808481
 6 -6.21223357945795  1.26870465976598 -0.20218543394339
 6  0.66057466406641  0.19141981848185  2.58180720082008
 6 -6.55080559505951  0.87560680908091 -1.33924965366537
 6 -0.12107836393639 -2.02732146904690  0.13222530403040
 6  1.10935783198320 -1.92643218981898 -0.27145872807281
 6 -5.34114471477148  0.50745896059606 -2.13020033153315
 6  1.99601368656866 -2.89526006440644 -0.86042305160516
 6 -2.09437513841384  1.69556531343134  3.16314070427043
 6 -7.00739823302330  1.97031516071607  0.85741972787279
 6  3.12022835653565 -2.32571252245224 -1.39494073917392
 6  1.25074110141014  1.59535802920292  2.60814445034503
 6  2.96035411071107 -0.89471809740974 -1.09306329452945
 6  1.47976174637464 -4.39787575197520 -0.89230094699470
 6 -7.85736164216422  0.81364300190019 -2.04959334713471
 6  1.77833539913991 -5.17887882248225  0.39099509500950
 6  4.28731434043404 -2.97284575337534 -2.01722095339534
 6  3.80348121872187  0.19225862936294 -1.46321100350035
 6  2.71833245444544  1.62132972117212  2.94499039893989
 6  3.55266964476448  1.54001941344134 -1.16047261456146
 6 -9.08469345274528  0.77846000630063 -1.49181399669967
 6  1.18728379307931 -6.59524617481748  0.41326998599860
 6  4.45160399499950  2.69021577647765 -1.51551863496350
 6  3.73078234663466  3.83305382908291 -1.04787608190819
 6  2.55580715151515  3.31239909100910 -0.30964972767277
 6  5.79687329262926  2.58113295389539 -2.01243319841984
 6  4.25679129892989  5.19830470627063 -1.00153216661666
 6  6.67986804440444  3.53334901970197 -2.45967044394439
 1 -4.15575006110611  2.14137521762176  0.12397543784378
 1 -4.84207886478648 -0.71618309440944  1.19614435863586
 1 -4.45283212311231  0.76858085778578  2.15415232493249
 1 -2.74042308220822 -1.59711710721072 -0.08863578537854
 1 -3.31487248454845  0.28572048914891 -1.39689724062406
 1  0.59095353005300 -0.20173986198620  3.56070561866187
 1  1.45995000440044 -0.51670633803380  2.19288442124212
 1 -0.43747240814081 -3.08973643864386 -0.14582958065807
 1 -3.21498164346435  1.98843010711071  3.33397338703870
 1 -1.72467368246825  1.44227359125913  4.12735112301230
 1 -1.69221560266027  2.52898671847185  2.68260568236824
 1 -6.24922837373737  2.95311411491149  1.17809004200420
 1 -7.18216798379838  1.24430423962396  1.82433944464446
 1 -7.90045598279828  2.29442552565257  0.46303478367837
 1  1.46129883828383  1.99737177377738  1.45311337863786
 1  0.53081619411941  2.36418324032403  2.98867469166917
 1  1.71603592999300  0.39471011601160 -0.31318668396840
 1  2.21648944114411 -4.94353818421842 -1.65421003070307
 1  0.39448124562456 -4.27986783428343 -1.17733621702170
 1 -7.91187224902490  0.92510274087409 -3.16162210041004
 1  1.77116930583058 -4.45814699439944  1.33503107970797
 1  3.01167743784378 -5.41678888338834  0.47016483138314
 1  4.24625968826883 -3.99173662586259 -2.05944940604060
 1  5.10735183358336 -2.40128897909791 -1.37508112571257
 1  4.28959039213921 -2.59760199279928 -3.13597267086709
 1  4.67098671817182  0.00872877837784 -2.07253342904290
 1 -9.01683528402840  0.56554400990099 -0.31676436623662
 1 -10.08365649924993  0.59069048474848 -1.87877397739774
 1  4.01125581208121  2.91605498919892  3.71311607730773
 1  6.01362483068307  1.54585673487349 -2.27253606860686
 1  5.19605030483048  5.47778054225423 -0.22084070397040
 1  4.43526554905491  5.79491625732573 -1.91073361826183
 1  3.49639730933093  5.81553115951595 -0.47794953655366
 1  0.97952526062606 -7.94709586668667  1.26348240314031
 1  7.62251469586959  3.32882842274228 -3.02203947724773
 1  6.56473836133613  4.64997050925093 -2.52314466696670

