%nproc=4
%Mem=4GB
# td=(NStates=1) B3LYP/SVP 

TD

0 1
 8 -5.36903313331333 -0.02447700810081 -3.27206699639964
 8  2.92191219671967  3.03608086278628  3.21352743114311
 8  3.45517386598660  0.86341174017402  2.91051293639364
 8  1.59586722622262 -7.34565083518352  1.16097460376038
 8  0.56526141414141 -6.87779420302030 -0.71449943284328
 8  1.80579762786279  4.06846996979698 -0.04072456505651
 7 -2.29889950105010 -0.91776020622062  0.66831384798480
 7 -4.38020290169017  0.56614428092809 -1.17245560036004
 7  1.90444083568357 -0.70451202420242 -0.18083656125613
 7  2.66644218611861  1.88062380788079 -0.48371511821182
 6 -4.85875226642664  1.07168866586659  0.07373317311731
 6 -4.42304969776978  0.31899206450645  1.39876723442344
 6 -2.97275237083708  0.04149440614061  1.46321833483348
 6 -1.87797689438944  0.60500545774577  2.18324149374937
 6 -0.71442805310531 -0.00191562706271  1.87917859545955
 6 -1.00763495129513 -0.89407246614661  0.85403722312231
 6 -6.23537589368937  1.25426321562156 -0.14528974437444
 6  0.59209781638164  0.23333400990099  2.69917893799380
 6 -6.73970448494849  0.83614286268627 -1.39114484318432
 6 -0.18454471057106 -1.94048278517852  0.30524260576058
 6  1.09993688988899 -1.89702924952495 -0.20636221842184
 6 -5.44589518981898  0.35863407810781 -2.10739805130513
 6  1.98747283248325 -2.87805834423442 -0.86924393369337
 6 -2.15378107900790  1.75637139403940  3.19710410061006
 6 -7.24701219441944  1.80167829702970  0.90199418531853
 6  3.17884421812181 -2.35858580978098 -1.19308055315532
 6  1.17632365966597  1.63573206660666  2.69699333523352
 6  3.11772984828483 -0.92138076367637 -0.96036002420242
 6  1.59406317651765 -4.37285324972497 -0.94692640954095
 6 -7.96639254525453  0.89996163376338 -2.09664805260526
 6  1.70899846544654 -5.13711464606461  0.40602659815982
 6  4.38246385538554 -3.02948141694169 -1.93622285358536
 6  3.98563943454345  0.05786519001900 -1.27891257365737
 6  2.62509313051305  1.75526311451145  2.86679257915792
 6  3.76369074687469  1.49392480398040 -1.07651421872187
 6 -9.30687567096710  0.87154931523152 -1.62405722102210
 6  1.22383744844484 -6.55195184538454  0.24245290429043
 6  4.52218105270527  2.63373012791279 -1.44249133223322
 6  3.97989725812581  3.75224574827483 -1.10479177347735
 6  2.71916348714872  3.43044089518952 -0.57341610431043
 6  5.77731133643364  2.43795863646365 -2.11532348744874
 6  4.30893651345135  5.25903077887789 -1.25644765816582
 6  6.65946600420042  3.40096578137814 -2.61651612851285
 1 -4.37747223332333  2.12727380748075  0.27340038033803
 1 -5.01290594749475 -0.61428290439044  1.22568731293129
 1 -4.80311715161516  0.98333233293329  2.08886579627963
 1 -2.71201024092409 -1.43234062956296 -0.15601252305231
 1 -3.46485748304830  0.76831874897490 -1.55975352625263
 1  0.43362779747975 -0.29614930293029  3.59157870597060
 1  1.21304531393139 -0.52759742714271  2.28359349214921
 1 -0.74886354725473 -2.83916138113811  0.18341334363436
 1 -3.21808195349535  1.87029829392939  3.65101509120912
 1 -1.65314652975298  1.45903526742674  4.28800718861886
 1 -1.99283566466647  2.79948376817682  2.68577599939994
 1 -6.58227167806781  2.45675447894789  1.36684891789179
 1 -7.39742950995099  0.97751756095610  1.62075908660866
 1 -8.04915085228523  2.38278436153615  0.51085956615662
 1  0.82241494989499  2.31259329592959  1.70756882418242
 1  0.68212132463246  2.11263808580858  3.45181100530053
 1  1.63674800120012  0.30332097709771 -0.12136750205021
 1  2.10948874107411 -4.97395122552255 -1.80316492619262
 1  0.51186298379838 -4.32814266176618 -0.96023450685068
 1 -7.94004506630663  1.13853408400840 -3.43740967916792
 1  0.95550773967397 -4.55010619031903  1.01062863946395
 1  2.64287055715572 -5.16044324882488  0.89368718361836
 1  4.24458952125213 -4.11726917911791 -1.89492295339534
 1  5.27662876127613 -2.78092694289429 -1.42204582218222
 1  4.38260969406941 -2.61534376697670 -3.08169724332433
 1  4.86157577707771 -0.58394048854886 -1.71227740344034
 1 -9.77085068556856  0.63772122762276 -0.45250794059406
 1 -10.16614474807481  1.05462687838784 -2.25935203520352
 1  3.90057474397440  2.88313169686969  3.63664843054305
 1  6.18633210141014  1.34275642484248 -2.10228904390439
 1  5.25781648144814  5.51230399459946 -0.90460908080808
 1  4.21775379787979  5.53180994669467 -2.30790333523352
 1  3.49918758835884  5.79228883528353 -0.97432917451745
 1  1.03399070717072 -8.29637079417942  1.25490154505451
 1  7.65740818521852  3.23310885078508 -2.82728000130013
 1  6.39496138363836  4.32934844704470 -2.65373772627263

