%nproc=4
%Mem=3GB
# td=(NStates=1) B3LYP/SVP 

TD

0 1
 8 -3.25912282248225 -1.29072412791279 -2.91121177547755
 8  3.32387284208421  3.07163882238224  3.11547581848185
 8  3.74988929712971  1.38720584888489  4.50660510411041
 8  7.77298590149015 -1.62527864206421 -0.67297805960596
 8  6.65549970637064 -2.99080987588759 -2.16679312741274
 8 -2.85379628612861  1.66194168326833  1.30968102860286
 7 -0.38218396459646 -2.30038635293529  0.88558339913991
 7 -2.68177021502150 -1.12383751875188 -0.69542168676868
 7  1.10197174657466  0.03115402510251 -0.81754669186919
 7 -0.99827897339734  1.45499090699070 -0.25959685758576
 6 -3.38260341004100 -1.29168673107311  0.61894886878688
 6 -2.76879550565057 -2.17523166936694  1.69947525432543
 6 -1.25678131983198 -1.87762557655766  1.90791878047805
 6 -0.58130793309331 -1.15234642634263  2.90656867736774
 6  0.77461857445745 -1.11151615261526  2.45358655325533
 6  0.89870255645565 -1.86007244194419  1.17896270027003
 6 -4.75249019561956 -1.89481513021302  0.26078296559656
 6  1.88241283268327 -0.51233156275628  3.27575973047305
 6 -4.71271763316332 -2.11985069346935 -1.09287962846285
 6  1.93863181958196 -1.92118031023102  0.24137641634163
 6  2.08805482738274 -0.88225013721372 -0.65695959745975
 6 -3.48223289318932 -1.49401136643664 -1.72728001140114
 6  2.99996105930593 -0.74983573187319 -1.80589448834883
 6 -1.25365393759376 -0.51500535753575  4.08231373967397
 6 -5.77056228032803 -2.32326880718072  1.25700670627063
 6  2.64965462236224  0.45806317451745 -2.43319792979298
 6  2.06256568896890  1.00969666166617  2.84767140874087
 6  1.31448481498150  0.98321497009701 -1.84301040704070
 6  4.19702505160516 -1.55896532563256 -1.96535616571657
 6 -5.84948928502850 -2.50600269066907 -1.93665711391139
 6  5.40126567756776 -1.14305605080508 -1.17051046794679
 6  3.26323641904190  1.34144254685469 -3.58919542874287
 6  0.55670809490949  2.03772891979198 -2.02016376147615
 6  3.10465910621062  1.83720330583058  3.55312065726573
 6 -0.71181501310131  2.28172280448045 -1.27957324522452
 6 -6.78140206670667 -3.39516328042804 -1.61174973367337
 6  6.72954252385238 -2.08238649374937 -1.40157084708471
 6 -1.46324497929793  3.49468170137014 -1.29459753445345
 6 -2.36837092649265  3.38612909190919 -0.34075198139814
 6 -2.19042131453145  2.13287422092209  0.39414834683468
 6 -1.21492147054705  4.62390865106511 -2.11360312831283
 6 -3.41012164866487  4.28303878677868  0.18030226992699
 6 -2.07103099429943  5.69393481168117 -2.36192992579258
 1 -3.48191668486849 -0.08323381328133  0.83964816941694
 1 -2.59629125552555 -3.25908103310331  1.28603895299530
 1 -3.53446326612661 -2.10037348174818  2.50995038373837
 1 -0.75753105790579 -2.69570833593359 -0.02862585258526
 1 -1.87251564126413 -0.27241354485449 -0.54874897729773
 1  1.78203616501650 -0.73568502230223  4.28252035113511
 1  2.99244657755776 -0.95520741204120  2.89339426882688
 1  2.48253706760676 -2.62315389828983  0.41978503170317
 1 -1.77093972327233 -1.36512578657866  4.63629069086909
 1 -0.45025479347935 -0.08539274287429  4.84903125962596
 1 -2.02026133993399  0.32867531423142  3.98585735103510
 1 -5.88522931013101 -1.45981411261126  2.19833412641264
 1 -5.69315807650765 -3.38482258685869  1.84131697799780
 1 -6.82627000380038 -2.35234087748775  0.96534289598960
 1  2.01571771117112  1.14015395729573  1.77485509680968
 1  1.10249020052005  1.54605684998500  3.02440041374137
 1  0.30968922652265  0.20002437223722 -0.12483451575158
 1  4.36419213841384 -1.60295335433543 -3.01353695559556
 1  3.98623945374537 -2.70864264346435 -1.92020912891289
 1 -5.55329746814681 -1.94426535113511 -2.80594405820582
 1  5.11703962526253 -1.27697817771777  0.00967419111911
 1  5.88057949924993 -0.11141813791379 -1.21443592609261
 1  4.17164707620762  0.86340283238324 -3.97146537603760
 1  3.60370612221222  2.32176325502550 -3.11374370977098
 1  2.51814760406041  1.76529102700270 -4.46792994499450
 1  0.51549545954595  2.62163365986599 -2.99898079007901
 1 -6.98003708980898 -3.87279946384638 -0.72666168736874
 1 -7.36124438933894 -3.70049137963796 -2.38159121262126
 1  4.12583631113111  3.35032439343934  3.72479573377338
 1 -0.17259113791379  4.51043232273227 -2.61301919731973
 1 -4.40159874947495  4.46683326512651 -0.47899905140514
 1 -4.03671242094210  3.84338913251325  1.03649446084608
 1 -3.19226754295430  5.20688097919792  0.63884965486549
 1  8.61585727922792 -1.90728388258826 -0.96714734973497
 1 -1.78646157075708  6.53696415351535 -2.97705255745575
 1 -2.95004735763576  5.68773014881488 -1.89289519701970

