%nproc=4
%Mem=3GB
# td=(NStates=1) B3LYP/SVP 

TD

0 1
 8 -3.37942485268527 -1.48948400390039 -3.00167082138214
 8  3.01605206000600  3.14395605410541  3.21180545144514
 8  4.08167247544754  1.24655178347835  4.06220066366637
 8  7.79623822672267 -1.52219833403340 -0.61108186998700
 8  6.92710686708671 -2.87143793869387 -2.17716416451645
 8 -2.76013692019202  1.68344383348335  1.34647470797080
 7 -0.27395314151415 -2.35926224052405  0.99819466026603
 7 -2.72955499349935 -1.41892702770277 -0.75993813841384
 7  1.13105465486549  0.04767567726773 -0.75152008920892
 7 -1.03827297279728  1.53248865676568 -0.10667156505651
 6 -3.39717486718672 -1.40782834523452  0.52612958685869
 6 -2.62611123722372 -2.33491763796380  1.62406771357136
 6 -1.24981062276228 -1.91834964896490  1.87708569716972
 6 -0.68728853115312 -1.10474166586659  2.79912793329333
 6  0.73359447204720 -1.12503750475048  2.56729792439244
 6  0.94762744894489 -1.82653908860886  1.36386119011901
 6 -4.78844379097910 -1.93797944664466  0.20317720502050
 6  1.78663325472547 -0.32865319491949  3.31014316881688
 6 -4.89088544994499 -2.09460816921692 -1.11507184768477
 6  2.06001395779578 -1.89342753495350  0.31317359605961
 6  2.10569659155916 -0.91677358955896 -0.69858375987599
 6 -3.58941361126113 -1.65320728602860 -1.82963024642464
 6  3.04339540274027 -0.70143089138914 -1.74880877977798
 6 -1.39998857105711 -0.46035989298930  3.82968847714771
 6 -5.87586281038104 -2.00066654695470  1.25538654425443
 6  2.57179683658366  0.43405077327733 -2.42493710371037
 6  1.88239767216722  1.04114980698070  2.86211285288529
 6  1.31899526602660  0.88201485008501 -1.74759086508651
 6  4.25200054915492 -1.48075750485049 -2.00700033013301
 6 -5.99093342944294 -2.53235532593259 -1.98742219041904
 6  5.52376792779278 -1.09341108630863 -1.21009442634263
 6  3.15081517691769  1.02011041364136 -3.65816232543254
 6  0.52577500160016  1.96136128302830 -1.96555830093009
 6  3.16522516281628  1.81953153865387  3.41834717991799
 6 -0.58273210481048  2.24305893809381 -1.10310559845985
 6 -7.09564349084908 -3.36208997309731 -1.61161972067207
 6  6.72211178077808 -1.88316657175718 -1.40850154015402
 6 -1.33838249304930  3.64163639683968 -1.15201327602760
 6 -2.35482957235724  3.41387186618662 -0.13690159635964
 6 -2.03099537193719  2.06378731223122  0.46796572857286
 6 -1.08829880828083  4.69444570477048 -2.12955472347235
 6 -3.44577521402140  4.31246172907291  0.30151439113911
 6 -1.81162505370537  5.80482590079008 -2.33133686648665
 1 -3.19974846804681 -0.43286877677768  0.81052525712571
 1 -2.91245287168717 -3.25693081808181  1.23845419451945
 1 -2.95765558535854 -2.13955740014001  2.51629101780178
 1 -0.53259856465647 -2.74177294239424  0.15286229622962
 1 -2.04523291299130 -0.59585588908891 -0.92307641004100
 1  1.59050701210121 -0.54162561636164  4.45419751885188
 1  2.78016534943494 -0.90330222152215  2.92301723112311
 1  2.79384819871987 -2.76682826572657  0.60695374857486
 1 -2.37343997329733 -1.04408368236824  4.26248331013101
 1 -0.77481724972497 -0.13282748634864  4.57142349884989
 1 -1.91870118391839  0.26521896859686  3.35400416571657
 1 -5.79936072327233 -1.11385951715172  2.01193548654866
 1 -5.59805856655665 -2.95778988358836  2.02157500380038
 1 -6.92167954475448 -2.13500914431443  1.09115547724772
 1  2.13204934433443  1.05717565946595  1.65272288358836
 1  1.07311726322632  1.80563280758076  3.12745071877188
 1  0.14698295589559  0.17902227202720 -0.09680171247125
 1  4.32911863106311 -1.39019207820782 -3.09451505340534
 1  3.91885271507151 -2.67099887908791 -1.79659676767677
 1 -6.04929706810681 -2.22786371097110 -3.12325578937894
 1  5.21932985428543 -1.06193667356736 -0.01567834413441
 1  5.69623106440644  0.02757576147615 -1.44695917841784
 1  3.96854676617662  0.60709720182018 -4.17814604410441
 1  3.20720647224723  1.96689776847685 -3.56234857025703
 1  2.37868365766577  1.03724822272227 -4.49609276127613
 1  0.52158606860686  2.67021851835184 -2.70468136013601
 1 -7.03654274037404 -3.90350253415341 -0.63468248944894
 1 -7.47614587948795 -3.51911324182418 -2.42836589008901
 1  3.87627135463546  3.48131749274927  3.74818807300730
 1 -0.07624150295030  4.60997227672767 -2.58360625602560
 1 -4.11595018461846  4.47220380218022 -0.51880303180318
 1 -3.84614336403640  3.73451824542454  1.20142095349535
 1 -2.99954827102710  5.39293958505850  0.47169293919392
 1  8.63700939443945 -2.09585273947395 -0.75168580358036
 1 -1.62508543314331  6.34943540064006 -3.26426127832783
 1 -2.78932128502850  5.94434581038104 -1.69445535303530

