%nproc=4
%Mem=4GB
# td=(NStates=1) B3LYP/SVP 

TD

0 1
 8 -5.22912914291429  0.05773121272127 -3.28434822452245
 8  2.91444144964496  2.86201345604560  3.56911298969897
 8  3.36375472407241  0.71916731573157  3.01753363846385
 8  1.71858949844985 -7.25691196129613  1.50497900420042
 8  0.62641752975298 -7.03804022762276 -0.38782676557656
 8  1.55740278837884  4.00780390319032 -0.05021551415141
 7 -2.29418903000300 -1.00991942214221  0.64862187878788
 7 -4.30679556095610  0.71027869436944 -1.27209556435644
 7  1.80541093269327 -0.72788436143614 -0.56689516711671
 7  2.37884342624262  1.89268501400140 -0.68252499919992
 6 -4.67579397059706  1.24080557755776  0.01404720452045
 6 -4.33693108590859  0.27210737603760  1.21362872057206
 6 -2.88705380098010 -0.05932567586759  1.39175118811881
 6 -1.87561665836584  0.50236519371937  2.09199236883688
 6 -0.72048865916592 -0.05294072957296  1.97851852945295
 6 -0.95218940674067 -1.04237729662966  0.95907772717272
 6 -6.18938129422942  1.46882467176718 -0.25375059045905
 6  0.65103370997100  0.15675635213521  2.73534255435544
 6 -6.52808332283228  0.99126837523752 -1.41226695539554
 6 -0.14823107920792 -1.99763850075008  0.27191927342734
 6  1.11222811901190 -1.85427497409741 -0.36598818101810
 6 -5.35418601890189  0.50793900860086 -2.17054436593659
 6  1.94215830103010 -3.00443098149815 -0.95176218551855
 6 -2.10288598949895  1.64152990989099  3.22788717891789
 6 -7.02397989118912  1.99684781398140  0.83452743864386
 6  3.03868020172017 -2.37827777897790 -1.47012825792579
 6  1.15003103040304  1.51678017141714  2.63731736763676
 6  3.00627870317032 -0.89100772637264 -1.19825381358136
 6  1.53062683288329 -4.37318328272827 -0.89892160906091
 6 -7.83411931793179  0.84743638123812 -2.02262064986499
 6  1.74098166376638 -5.08413934853485  0.50896689218922
 6  4.30664627362736 -3.09966843564356 -2.04946417771777
 6  3.87958882948295  0.13438284178418 -1.37219190159016
 6  2.63789441064106  1.67288487668767  3.12253815371537
 6  3.53731810961096  1.48107351885188 -1.17362392969297
 6 -9.00201518491849  0.90794295459546 -1.42704752005200
 6  1.26926199089909 -6.51902855305531  0.41171983098310
 6  4.50983981858186  2.64436119101910 -1.51518860196020
 6  3.74947421582158  3.80113063676368 -1.09748104240424
 6  2.47897946874687  3.36397424852485 -0.50641940464046
 6  5.70075368066807  2.66795163576358 -2.35250720582058
 6  4.22998861866187  5.20986586238624 -1.15711772517252
 6  6.68676873447345  3.59699538433843 -2.43524800170017
 1 -4.02875736183618  2.08622970307031  0.03819685998600
 1 -4.73767842474247 -0.78435991209121  1.07964270847085
 1 -5.01087792769277  0.64942894259426  2.13360026972697
 1 -2.68434747464747 -1.36479387488749 -0.25767268906891
 1 -3.51498249554955  0.77738965606561 -1.52062961386139
 1  0.51448588328833 -0.21235092309231  3.68646819491949
 1  1.34513852325233 -0.64312898029803  2.21887702050205
 1 -0.62122078297830 -2.92844030903090  0.24727973027303
 1 -3.25924606990699  1.76145740984098  3.48653864356436
 1 -1.32988420352035  1.56586595049505  4.07466585448545
 1 -1.76169255035504  2.62073589338934  2.67546496829683
 1 -6.43917736863686  2.73221202470247  1.32425465846585
 1 -7.36483625062506  1.19663947314732  1.53907091779178
 1 -7.94563050025002  2.56611269436944  0.60807928812881
 1  1.15312802120212  1.97241927852785  1.55450351765177
 1  0.42490560306031  2.41010783278328  3.15273109730973
 1  1.39064339073907  0.26800744574458 -0.32392775807581
 1  1.95845363756376 -4.95372920332033 -1.77549215891589
 1  0.38583038053805 -4.34491433893389 -1.01929041244124
 1 -7.82911397319732  0.99503973457346 -3.11875781398140
 1  1.23989617851785 -4.46554773447345  1.25681325792579
 1  2.83939020912091 -5.15442264676468  0.78167598249825
 1  3.90711577387739 -4.21676912911291 -2.16749021012101
 1  5.13060415881588 -3.09439829002900 -1.29491310891089
 1  4.54085551865186 -2.72346457905791 -2.94166323992399
 1  5.04658427792779 -0.12214430893089 -1.52197837353735
 1 -9.20552415291529  0.80602805830583 -0.27269995979598
 1 -9.89488762236224  0.52069348504850 -2.17363346334633
 1  3.84939962646265  3.06786016971697  3.72386715241524
 1  5.88148161636164  1.65249739893989 -2.73425224022402
 1  5.12514321412141  5.68084084828483 -0.54340296019602
 1  4.47585960846085  5.39852661836184 -2.26182872777278
 1  3.39046671627163  5.89189879627963 -0.75304704630463
 1  1.44241154925492 -8.18987014411441  1.35029108400840
 1  7.47536998139814  3.29219475937594 -3.10365763906391
 1  6.76311819931993  4.54797030923092 -2.00251260376038

