%nproc=4
%Mem=4GB
# td=(NStates=1) B3LYP/SVP 

TD

0 1
 8 -5.25035126512651  0.06762220182018 -3.26843663336334
 8  2.92641264676468  2.89691694639464  3.31746782518252
 8  3.37559590819082  0.69941534053405  2.89298118321832
 8  1.38216585608561 -7.03108937903790  1.67117562386239
 8  0.75481036903690 -7.00327675127513 -0.54524250715072
 8  1.76047309540954  4.07546066886689  0.13486299369937
 7 -2.35601521262126 -0.89701813201320  0.58957597419742
 7 -4.32114699609961  0.71023869036904 -1.25020337513751
 7  1.76704709630963 -0.63517509050905 -0.54883336093609
 7  2.52574811671167  1.85582132763276 -0.53610035673567
 6 -4.72308870007001  1.23045454245425  0.04923072287229
 6 -4.36447384018402  0.25834599989999  1.21744910261026
 6 -2.86334142974297  0.06758701540154  1.31521353435344
 6 -1.90897999469947  0.50397535473547  2.24855802540254
 6 -0.67590420072007 -0.07104253975398  1.94963564116412
 6 -0.96009019681968 -0.98017107600760  0.82447426682668
 6 -6.23828618471847  1.35410319961996 -0.17977319271927
 6  0.65652425902590  0.12051272777278  2.50671969206921
 6 -6.55796631113111  0.84342359075908 -1.33604933363336
 6 -0.14123037913791 -2.03300203710371  0.22259434093409
 6  1.11529842604260 -1.83454300090009 -0.31723330553055
 6 -5.39603020332033  0.56858507320732 -2.15418272977298
 6  1.92821690689069 -2.88266880528053 -0.92913992329233
 6 -2.04067976887689  1.69405516241624  3.20458484868487
 6 -7.13943143634363  1.95068319751975  0.91274526042604
 6  3.10952728642864 -2.32777272847285 -1.44184542964296
 6  1.14490051735174  1.54453294669467  2.67938157405741
 6  2.91332940824082 -0.79928855445545 -1.17650163836384
 6  1.52820659085909 -4.33100906530653 -0.97183890079008
 6 -7.88619452545255  0.65312695029503 -2.06083447124713
 6  1.77081464706471 -5.05148608320832  0.35753174867487
 6  4.25667127612761 -2.94165263406341 -2.08548778007801
 6  3.86655752635264  0.11834123762376 -1.45572025442544
 6  2.58170879207921  1.63565115331533  2.93742964286429
 6  3.72713709150915  1.50627603910391 -1.15093166046605
 6 -9.13659864326433  0.64241640194019 -1.46458127342734
 6  1.29386445114511 -6.36943359355936  0.42861152015202
 6  4.54127296189619  2.67496425132513 -1.49236631973197
 6  3.88263753215322  3.73477400110011 -1.02002329662966
 6  2.62333390419042  3.31679953105311 -0.39686844954495
 6  5.84948855415542  2.37915275587559 -2.03269522462246
 6  4.12413803360336  5.11045592139214 -1.18252026542654
 6  6.71281133873387  3.36383206800680 -2.53534801170117
 1 -4.37767225332533  2.29683076317632  0.17079011931193
 1 -5.00301495839584 -0.50489196529653  1.35271001520152
 1 -4.68754559445945  0.75206920662066  2.12811972167217
 1 -2.72117115701570 -1.44130152565257 -0.18455537733773
 1 -3.35841683898390  0.78276019311931 -1.60766831773177
 1  0.67545197989799 -0.47356704470447  3.57090663876388
 1  1.42455646504650 -0.45385005240524  1.84540967376738
 1 -0.58280694159416 -2.93985145014501  0.07350235253525
 1 -3.16659680498050  2.00487175127513  3.12125211491149
 1 -1.76261747684769  1.61939130303030  4.43501188908891
 1 -1.75401178227823  2.64805862566257  2.69803722552255
 1 -6.75800925182518  2.74398320182018  1.68567080008001
 1 -7.67562732973297  1.08087789698970  1.33115012571257
 1 -7.86827276447645  2.34248033113311  0.60475895609561
 1  0.86146885528553  2.22432446904690  1.90625869316932
 1  0.60011312381238  2.03687050905090  3.52918874307431
 1  1.57687201360136  0.34424506950695 -0.09074443974397
 1  1.99854764696470 -4.92852668306831 -1.69036364606461
 1  0.35072687018702 -4.34239408690869 -1.01318980238024
 1 -7.75953701550155  0.41804203480348 -3.14876081428143
 1  1.35914810371037 -4.41507268696870  1.24358193479348
 1  2.88442471257126 -4.95861306580658  0.64206202110211
 1  4.31939700200020 -3.99383683588359 -1.85430889198920
 1  5.15910700910091 -2.70965981618162 -1.71962558015802
 1  4.37006843994399 -2.58247047964796 -3.07342641624162
 1  4.76072569206921 -0.01186328082808 -2.02333850955095
 1 -9.20555415591559  0.53177063256326 -0.38245093489349
 1 -10.08816695029503  0.46492790849085 -2.05237133713371
 1  3.94742942944294  2.77935131883188  3.36536130183018
 1  6.22665613381338  1.43632578177818 -2.08261707670767
 1  4.86751745154515  5.66672943714372 -0.47606622652265
 1  4.36713873637364  5.35559232493249 -2.13487603250325
 1  3.03663133273327  5.63371297769777 -0.84301604320432
 1  1.10260756885689 -7.93222437953795  1.58351440634063
 1  7.69767221162116  3.17904344424442 -2.94463173647365
 1  6.57798968646865  4.46796230843084 -2.15087744024402

