%nproc=4
%Mem=4GB
# td=(NStates=1) B3LYP/SVP 

TD

0 1
 8 -5.19205543554355  0.16439187878788 -3.35682547224723
 8  3.06987699319932  2.81721897659766  3.23986006440644
 8  3.31479982858286  0.54293969296930  3.06019790489049
 8  1.59433707320732 -7.21052732283228  1.59732823912391
 8  0.61772666066607 -7.01185760936094 -0.48552653555355
 8  1.68641568966897  4.02201532433243  0.06805631303130
 7 -2.36790640174017 -0.98872730293029  0.68318533513351
 7 -4.30727560896090  0.74554222072207 -1.27914626942694
 7  1.80250064166417 -0.66212778577858 -0.42041051865187
 7  2.40745628752875  1.89279502500250 -0.65665241194119
 6 -4.64734112531253  1.23188468546855  0.02021782158216
 6 -4.31116850965097  0.32924308960896  1.25737309500950
 6 -2.91073616921692  0.00224048074807  1.42971498449845
 6 -1.97529662636264  0.59844480168017  2.20230339993999
 6 -0.76766337663766  0.02365693019302  1.89688036563656
 6 -0.95865005280528 -1.06772983188319  0.92591441084108
 6 -6.18355071117112  1.33060084938494 -0.17975319071907
 6  0.45740434703470  0.21868254475448  2.59347836793679
 6 -6.57459797429743  0.89502875127513 -1.41471720042004
 6 -0.12452870897090 -1.96514525142514  0.25155723722372
 6  1.06704360056006 -1.91577112371237 -0.35883746594659
 6 -5.26774737503750  0.56075429012901 -2.14968227972797
 6  1.88702278747875 -2.96086662506251 -0.99530653995400
 6 -2.15501120202020  1.79105486238624  3.14932932313231
 6 -7.05425291849185  1.83735186438644  0.99363334923492
 6  3.08029436313631 -2.29280923212321 -1.33932517761776
 6  1.20935696299630  1.66383487688769  2.64556819271927
 6  3.07455553085309 -0.90204883048305 -0.91424541274127
 6  1.56527029722972 -4.37906387078708 -0.90192190909091
 6 -7.86869277527753  0.83983562116212 -2.12345073287329
 6  1.97318488408841 -5.07379831443144  0.30525652115212
 6  4.37677328632863 -2.87144561336134 -1.95392462376238
 6  3.84552542314231  0.07911731523152 -1.37545222762276
 6  2.62174279547955  1.54381196939694  2.94441034093409
 6  3.57301167896790  1.47723313481348 -1.18564513181318
 6 -9.00604558795880  0.89361152145215 -1.49166398169817
 6  1.31670673537354 -6.60184683488349  0.40487914691469
 6  4.42444127872787  2.67897465236524 -1.52866995009501
 6  3.74721398979898  3.77133765746575 -1.11704299859986
 6  2.52815438623862  3.37787563866387 -0.48507727042704
 6  5.66903050835084  2.51456629722972 -2.24121607670767
 6  3.96624224402440  5.17197207300730 -1.18325033843384
 6  6.66374643224322  3.43875956075608 -2.46073054995500
 1 -4.36600108620862  2.32767384748475  0.32402544284429
 1 -4.83976863376338 -0.66978845494549  1.20837558175818
 1 -4.35770261016102  0.91470547024702  2.13482039173917
 1 -2.71591063096310 -1.89740713621362  0.06667974617462
 1 -3.28069906720672  0.63818573567357 -1.62172972387239
 1  0.25910034473447 -0.01052074007401  3.61319086718672
 1  1.13882789218922 -0.57289195659566  2.29099423222322
 1 -0.61483014391439 -3.10863832883288  0.19968497079708
 1 -3.18421856715672  1.86318758285829  3.29236922662266
 1 -1.48543975907591  1.65261462536254  4.12719110701070
 1 -1.45836221732173  2.70915473527353  2.69432685448545
 1 -6.48049150005000  2.33020182368237  1.79562179517952
 1 -7.52046181318132  0.80343015221522  1.25035204590459
 1 -7.77696363356336  2.50864694779478  0.58315679587959
 1  1.20121282968297  2.09671170777078  1.59306737403740
 1  0.75530864336434  2.26148297029703  3.38181400560056
 1  1.56819114551455  0.40880152515252 -0.23424879017902
 1  1.91662945514551 -4.98230206060606 -1.81426603630363
 1  0.37324912241224 -4.37771761926193 -1.11389987338734
 1 -7.67391845364536  0.83278350895090 -3.14887082528253
 1  1.76244843374337 -4.73555473517352  1.40902847944795
 1  3.08909517961796 -5.28409561406141  0.54143195809581
 1  4.12924798709871 -3.96226367856786 -2.63716717781778
 1  5.27158825722572 -3.18708755895590 -1.13587720532053
 1  4.48120955405541 -2.02960519311931 -2.79127820142014
 1  4.87084670417042 -0.16176827132713 -1.84597077277728
 1 -9.16745034553455  0.91448890439044 -0.37048973877388
 1 -10.14518265186519  0.81112252795280 -1.86186228622862
 1  4.15651033753375  2.86061944564456  3.42304707040704
 1  6.13296676487649  1.45910806000600 -2.38713752875288
 1  4.88471917171717  5.51884464866487 -0.69618823872387
 1  4.33991601410141  5.62041880758076 -2.22568511341134
 1  3.19744741434143  5.77520712711271 -0.78029977157716
 1  1.36208351645164 -8.14227538463846  1.34760081498150
 1  7.50087253165317  3.07145268516852 -3.18391566486649
 1  6.67856974447445  4.52710822302230 -2.18338069056906

