%nproc=4
%Mem=3GB
# td=(NStates=1) B3LYP/SVP 

TD

0 1
 8 -3.12137904810481 -1.50659571507151 -2.92537319161916
 8  3.18015847064706  3.10893255175518  3.13008727962796
 8  4.02130643884388  1.35067219551955  4.26489093269327
 8  7.68591719461946 -1.59490560476048 -0.54821558335834
 8  6.69901405780578 -3.01830262516252 -1.93737018511851
 8 -2.53434434093409  1.81782727182718  1.60024008450845
 7 -0.32504825102510 -2.36099241354135  0.88260310111011
 7 -2.73659569756976 -1.09980511551155 -0.66161830643064
 7  1.09218076747675  0.12996390609061 -0.71516645384538
 7 -1.05422456795680  1.46042145004500 -0.25241613951395
 6 -3.39903505320532 -1.26026358875888  0.64815178907891
 6 -2.68547717381738 -2.24205835203520  1.61789709650965
 6 -1.28273391509151 -1.98451626562656  1.77286527512751
 6 -0.63331313361336 -1.28573976567657  2.82452047254725
 6  0.74212532513251 -1.15887088808881  2.46766796139614
 6  0.93456614281428 -1.80562699739974  1.28269307330733
 6 -4.74143909050905 -1.83927957665767  0.25162204950495
 6  1.79515410681068 -0.38730906050605  3.24304645914591
 6 -4.84354071547155 -1.94862357075708 -1.16502684318432
 6  2.07468542494249 -1.90201839403940  0.23169544824482
 6  2.03835985788579 -0.91230314251425 -0.74340824232423
 6 -3.52804747464746 -1.47055902120212 -1.70934821822182
 6  3.09052011521152 -0.64088483678368 -1.72212611151115
 6 -1.26113468566857 -0.58930278727873  3.96257176547655
 6 -5.87814303840384 -2.08910539083908  1.19565057065707
 6  2.48261791869187  0.40325769396940 -2.48311292129213
 6  1.96280571297130  0.99831552355236  2.83723036463646
 6  1.22941630813081  0.94289093769377 -1.87737384338434
 6  4.27402275137514 -1.40431986108611 -2.07702733283328
 6 -5.82086642274227 -2.52812490289029 -2.03281672987299
 6  5.55327087808781 -1.03572531773177 -1.19182259915992
 6  3.11870196559656  1.06518492109211 -3.71244775397540
 6  0.38764118821882  2.06249139603960 -2.08177992309231
 6  3.16718535883588  1.77040662616262  3.50036538173817
 6 -0.71019485108511  2.28913354555456 -1.22776806470647
 6 -6.78472239873987 -3.44110787488749 -1.71026958565857
 6  6.63157272687269 -2.00656891199120 -1.27146783678368
 6 -1.44067272207221  3.48788102130213 -1.29735781048105
 6 -2.27857194659466  3.39681016001600 -0.17546545274527
 6 -2.00686295869587  2.23088402190219  0.51877080908091
 6 -1.36650662906291  4.54745100530053 -2.25050681868187
 6 -3.32858349484949  4.32898338123812  0.46744098379838
 6 -2.18221211241124  5.65139055725573 -2.38398213101310
 1 -3.70483897709771 -0.25060054995499  1.15023922852285
 1 -2.80169179557956 -3.28838396339634  1.12149249834984
 1 -3.33519333913391 -2.25725917031703  2.56168555725573
 1 -0.80509581438144 -2.51393015811581  0.06184319431943
 1 -1.93999238893889 -0.39782608610861 -0.70667476987699
 1  1.76324428582858 -0.54678613241324  4.37823992309231
 1  2.80762809570957 -1.05651754305431  3.29166409580958
 1  2.85481429532953 -2.76666824972497  0.23345639883988
 1 -2.12349497879788 -1.30446972097210  4.35686274807481
 1 -0.56813658165817 -0.49816402000200  4.80877723422342
 1 -1.72766208000800  0.17501994869487  3.58094685998600
 1 -5.80740152735273 -1.53971210241024  2.06581087408741
 1 -5.70754951565157 -3.15959006360636  1.61161400770077
 1 -6.79115649244924 -1.81324696809681  0.51076743844384
 1  2.07174331373137  1.05908585048505  1.71685929722972
 1  1.06706665816582  1.46919916421642  2.92248022172217
 1  0.11481973957396 -0.12564819501950 -0.12396442874287
 1  4.49417513671367 -1.36732979197920 -3.33383898579858
 1  4.18123895369537 -2.57668944814482 -1.80145725372537
 1 -5.77201934033403 -2.23667459205921 -3.17292075587559
 1  5.09900782208221 -1.14822530243024 -0.12249902620262
 1  6.09073051435144 -0.04785178127813 -1.53553803630363
 1  3.71433134463446  0.25903239533953 -4.05728395789579
 1  3.88624437603760  1.99921099979998 -3.28861119651965
 1  2.45931172047205  1.72180667856786 -4.35938909090909
 1  0.51913582358236  2.66934843134313 -2.94209510151015
 1 -6.74926401250125 -4.07638982288229 -0.64729375057506
 1 -7.36717498239824 -3.86880821132113 -2.64288734223422
 1  4.06335006250625  3.39490885188519  3.63036629082908
 1 -0.67221109990999  4.37369864936494 -2.90783867926793
 1 -4.17156574617462  4.64643122492249 -0.47388854035404
 1 -3.91506025572557  3.88911370497050  1.39995080648065
 1 -2.66289460566057  5.17874816591659  0.75019078897890
 1  8.35802149564957 -2.34259741394139 -0.56003663866387
 1 -2.04082700730073  6.31048150525052 -3.48257310951095
 1 -3.19480183308331  5.71649302510251 -1.75847175467547

