%nproc=4
%Mem=3GB
# td=(NStates=1) B3LYP/SVP 

TD

0 1
 8 -3.35318222842284 -1.19516457195720 -2.79187984228423
 8  2.78912936773677  3.21287294579458  3.27349162006201
 8  3.56784109230923  1.44805193349335  4.48700314391439
 8  7.79856845974597 -1.65739185338534 -0.87807856965697
 8  6.67856201260126 -3.09555034993499 -2.13260970907091
 8 -2.60054096059606  1.58412390149015  1.40418047854785
 7 -0.24080982718272 -2.34966128042804  0.88107294809481
 7 -2.71367340534053 -1.19336447144714 -0.56298844344434
 7  1.25298684808481  0.22458336803680 -0.70576551375138
 7 -0.99763890939094  1.41300670857086 -0.25258615651565
 6 -3.36210135983598 -1.45727328972897  0.62039901380138
 6 -2.58457708380838 -2.37217136333633  1.62490779757976
 6 -1.20411605330533 -1.99457727172717  1.76478446704670
 6 -0.55247504980498 -1.28747993969397  2.75640366086609
 6  0.73434454705471 -1.17582258325833  2.51780297489749
 6  1.00811349754975 -1.81529796449645  1.25844064806481
 6 -4.76042098869887 -1.92131778047805  0.28892577987799
 6  1.84248884028403 -0.38550888048805  3.16877903240324
 6 -4.80688705010501 -2.05102381078108 -1.12255259575958
 6  2.10429838623862 -1.90550874307431  0.29103138183818
 6  2.13514953685369 -0.86775868806881 -0.64849875137514
 6 -3.57833250315031 -1.43407537283728 -1.61743902730273
 6  3.07900896409641 -0.58716946524652 -1.68062196109611
 6 -1.34788336053605 -0.62141599859986  3.86591209950995
 6 -5.79312453655366 -2.12999948024802  1.33512451805181
 6  2.53037269416942  0.38217558575858 -2.43332794279428
 6  1.76255568796880  1.16060175217522  2.87287392899290
 6  1.41578494499450  0.92720936953695 -1.85068117411741
 6  4.27196254535454 -1.40134956405641 -1.99821945204520
 6 -5.84942927902790 -2.54990708110811 -1.90817426562656
 6  5.58612416341634 -1.01427317251725 -1.20922433933393
 6  3.18855895129513  1.06212461506151 -3.77969447864786
 6  0.49759218331833  1.96406155305531 -2.06403814891489
 6  2.84352299259926  1.92644222972297  3.60878622382238
 6 -0.66546037763776  2.17599223142314 -1.28985427332733
 6 -6.98138206470647 -3.14935869997000 -1.59248780748075
 6  6.66804637423742 -2.04737299239924 -1.47014770477048
 6 -1.47291594639464  3.47640987418742 -1.36484455915592
 6 -2.24418850825082  3.35021550055006 -0.23656156235624
 6 -1.97471974437444  2.04729566306631  0.35856478847885
 6 -1.23779375777578  4.46510277047705 -2.29049081708171
 6 -3.31578221472147  4.36772725562556  0.37677191689169
 6 -1.71959585078508  5.73235865406541 -2.28734246704670
 1 -3.36136462966297 -0.64387987788779  1.19430363496350
 1 -2.55057668406841 -3.34226935193519  1.25513586268627
 1 -3.23630345014501 -2.52065550995100  2.52592198089809
 1 -0.22691799659966 -2.93281204630463 -0.04748773877388
 1 -1.95866425612561 -0.38796510001000 -0.65319942234223
 1  1.89791775317532 -0.80348180198020  4.21711381048105
 1  2.87325465836584 -0.78251014231423  2.88849377877788
 1  2.98072688658866 -2.62791437433743  0.52889594279428
 1 -2.30198282758276 -1.35607488148815  4.10619768156816
 1 -0.77941770977098 -0.28745294889489  4.67754411091109
 1 -1.63463277707771  0.49530197689769  3.38136690199020
 1 -5.43501428862886 -1.67330546174617  2.38723301630163
 1 -6.18088684938494 -3.31777588218822  1.45202804910491
 1 -6.56998437523752 -1.70301594499450  1.03717007870787
 1  1.67903404280428  1.55900584248425  1.81171878317832
 1  0.90357030853085  1.51977422172217  3.25516349004900
 1  0.38143640124012  0.32217658745875 -0.15847788008801
 1  4.62075779497950 -1.23099615861586 -3.08455405730573
 1  4.00840166996700 -2.46288806800680 -1.73693080108011
 1 -5.88298043644364 -2.08248917351735 -2.96197966176618
 1  5.30473839513951 -1.00959143904390 -0.10767754405441
 1  5.79542098339834 -0.06483347944794 -1.38216269876988
 1  4.08958887038704  0.47331382348235 -4.19545777527753
 1  3.48566431803180  2.06080715941594 -3.68576091149115
 1  2.34064985428543  1.10400489838984 -4.73254640664066
 1  0.73306721672167  2.62986448294830 -2.86313720572057
 1 -7.05902498859886 -3.61629381328133 -0.66049507070707
 1 -7.80752901780178 -3.34828615911591 -2.46247930143014
 1  3.45291901940194  3.66414577557756  3.69518277247725
 1 -0.28793267206721  4.12672395189519 -3.00071796719672
 1 -4.19767835743574  4.50613719551955 -0.36233738523852
 1 -3.56256500620062  3.84703949754976  1.12092290369037
 1 -2.79711802800280  5.33030332143214  0.61249701960196
 1  8.42716841034103 -2.30872402660266 -1.29687032203220
 1 -1.51756468106811  6.31384184128413 -3.23990884308431
 1 -2.41917427032703  5.94798617441744 -1.57856376387639

