%nproc=4
%Mem=4GB
# td=(NStates=1) B3LYP/SVP 

TD

0 1
 8 -5.36796302630263 -0.28483304370437 -3.22939272897290
 8  3.01287129262926  2.86443369806981  3.41654773317332
 8  3.41796014461446  0.70057545654565  3.15257714281428
 8  1.31635927542754 -7.00061633173317  1.57511601790179
 8  0.83146803480348 -7.10533695729573 -0.72148013091309
 8  1.78339538763876  4.06822994579458  0.04983449084908
 7 -2.36889650075007 -0.98622705290529  0.60363738033803
 7 -4.37826270767077  0.40814848134813 -1.32611096589659
 7  1.86505689728973 -0.72296386938694 -0.26796527412741
 7  2.50297583948395  1.94497024252425 -0.66409315601560
 6 -4.73482987418742  1.16856835383538 -0.10967516771677
 6 -4.25010240304030  0.42558272357236  1.16874423212321
 6 -2.82089718531853  0.04714497119712  1.32310432343234
 6 -1.91329042574257  0.69847480468047  2.12329549914991
 6 -0.67926453675368  0.03367793229323  1.91103178077808
 6 -0.96022020982098 -1.11326438533853  0.98096991639164
 6 -6.15259761586159  1.44401219051905 -0.22798801420142
 6  0.64894350095010  0.14255493199320  2.55959497959796
 6 -6.67393790829083  0.85483473187319 -1.39000472917292
 6 -0.12989924602460 -2.05617435433543  0.24547662916292
 6  1.15669256545655 -1.92518206480648 -0.18892047424742
 6 -5.55293589388939  0.32962117681768 -2.18776608810881
 6  1.90556464166417 -2.85181571997200 -0.87169417871787
 6 -2.14105980688069  1.67998375527553  3.20977536773677
 6 -6.99168666186619  2.10279840904090  0.75113909980998
 6  3.06250258395840 -2.33979393059306 -1.37144838993899
 6  1.14832085938594  1.55014350775078  2.53440707660766
 6  2.94870294559456 -0.88583720932093 -0.93802779097910
 6  1.54165793599360 -4.25532149654965 -0.88364008090809
 6 -8.01043694969497  0.67589922752275 -1.95803419121912
 6  1.60693825942594 -5.05610654525452  0.41580757625763
 6  4.16618222722272 -2.91721018981898 -2.34680391169117
 6  3.86044691529153  0.13935333883388 -1.37859254165417
 6  2.69558017921792  1.61113870207021  3.07993389328933
 6  3.68748312611261  1.58027343884388 -1.18182474977498
 6 -9.19473445684569  0.86373853415342 -1.32824764006401
 6  1.21267633233323 -6.47138378857886  0.37283594259426
 6  4.60311914651465  2.67410416531653 -1.45321240434043
 6  3.92296156455646  3.81529205290529 -1.03764505880588
 6  2.62607417821782  3.34353220432043 -0.52378114081408
 6  5.88604220952095  2.53975881648165 -2.10531248634863
 6  4.28989460926093  5.16048092389239 -1.10561257465747
 6  6.69128918651865  3.59010469526953 -2.47630210711071
 1 -4.29826431253125  2.25807688778878 -0.13909086878688
 1 -5.10073473037304 -0.35724720082008  1.04920966516652
 1 -4.62935977587759  0.89584358405841  2.02334924462446
 1 -2.68719775967597 -1.12061945744574 -0.34292121392139
 1 -3.40144114141414  0.26224814191419 -1.73463101400140
 1  0.63048748344834 -0.27990767876788  3.60527007510751
 1  1.30468447784779 -0.57269193659366  2.18228336113611
 1 -0.65257391829183 -2.99471693669367  0.06041104340434
 1 -3.32505265056506  1.66297756185619  3.20070005970597
 1 -1.49979119421942  1.35966533043304  4.29038742664266
 1 -1.66920330143014  2.69658347814781  2.97748517031703
 1 -6.63428687958796  2.95700450395040  1.21351358435844
 1 -7.36113588058806  1.48498830803080  1.53339034973497
 1 -7.96322225942594  2.63258934203420  0.41220970117012
 1  1.19606231463146  2.11330336693669  1.59816788408841
 1  0.49479259175918  2.35139196119612  3.19737556175618
 1  1.62851717811781  0.25049569456946 -0.13081844714471
 1  2.02784057625763 -4.96383021342134 -1.73700831053105
 1  0.49287108460846 -4.56743659115912 -1.44575305870587
 1 -7.87272833463346  0.29264949554955 -3.10771670987099
 1  1.08987117601760 -4.47051823152315  1.25798337493749
 1  2.66481275137514 -5.02555976047605  0.83859167406741
 1  4.05334039633963 -4.11778923112311 -2.55122858395840
 1  5.17492859125913 -2.62060091029103 -2.07068068566857
 1  4.09990142324232 -2.43482571517152 -3.20240931453145
 1  4.70169978947895 -0.18166026052605 -2.28225440114011
 1 -9.24230783128313  1.23013046854685 -0.27507019681968
 1 -10.21508964256426  0.67282869856986 -1.77119321932193
 1  4.17096178267827  2.71247463116312  3.63955872157216
 1  6.03270673887389  1.60339248844884 -2.35456427142714
 1  5.31381208100810  5.39822258645865 -0.56797541744174
 1  4.43054507700770  5.56612337803780 -2.01795434033403
 1  3.70173784338434  5.93350295669567 -0.71919366096610
 1  1.08389569766977 -7.96732788988899  1.56653270817082
 1  7.71794423882388  3.61015655555555 -3.03888116141614
 1  6.35225711321132  4.65303081528153 -2.48680103260326

