%nproc=4
%Mem=3GB
# td=(NStates=1) B3LYP/SVP 

TD

0 1
 8 -3.24877178737874 -1.25991104660466 -2.95233588788879
 8  3.38651910671067  3.04567622612261  2.62480675157516
 8  3.61753606180618  1.53865099339934  4.52448689228923
 8  7.58173677657766 -1.65446156035604 -0.65015577737774
 8  6.69255341174117 -2.80830162506251 -2.41515796389639
 8 -2.55089599609961  1.67800328942894  1.57030709120912
 7 -0.23716946314631 -2.37517383168317  0.99731457225723
 7 -2.77183922192219 -1.14417955295530 -0.69896204080408
 7  1.11979352875288  0.03827473717372 -0.63594853205321
 7 -0.94385353085309  1.51316672457246 -0.11798269616962
 6 -3.37374252395240 -1.28302586498650  0.56105307920792
 6 -2.67612623872387 -2.29476362256226  1.54860016681668
 6 -1.26582222392239 -1.95931374537454  1.83547153575358
 6 -0.62391219351935 -1.20316150785079  2.88200622112211
 6  0.71156226882688 -1.05619062006201  2.60240143474347
 6  0.93001568776878 -1.75916235093509  1.35427023102310
 6 -4.77007195379538 -1.88975462416242  0.17277416471647
 6  1.83568816021602 -0.39947027662766  3.27399955445545
 6 -4.77138349974997 -2.07838654705471 -1.22828316881688
 6  2.06361431783178 -1.90617881008101  0.43404568326833
 6  2.15010103200320 -0.90753266546655 -0.59019292079208
 6 -3.59976464636464 -1.42069403470347 -1.79580686408641
 6  2.95191625482548 -0.80554130243024 -1.66948084698470
 6 -1.40967954015402 -0.47661151815182  3.96710221852185
 6 -5.84032925702570 -2.25184166446645  1.11036204180418
 6  2.49687934483448  0.31063843204320 -2.28387299729973
 6  1.83737316971697  1.07023271527153  2.91181782338234
 6  1.33974734123412  0.92538918751875 -1.70557666366637
 6  4.20437578667867 -1.54061349044904 -2.02309193929393
 6 -5.77444178027803 -2.47978006840684 -2.03670711891189
 6  5.39516506750675 -1.08443018821882 -1.21057447434743
 6  3.05588568396840  0.94782318491849 -3.62682919211921
 6  0.50226265036504  1.99309445634563 -1.97366911201120
 6  3.02753139343934  1.87311689718972  3.55543088828883
 6 -0.50215404700470  2.24383901610161 -1.14504979287929
 6 -6.70056398289829 -3.40380414451445 -1.86734529322932
 6  6.66284585418542 -1.92701095619562 -1.53437412741274
 6 -1.41378003280328  3.45805803900390 -1.16151422612261
 6 -2.24246833623362  3.37097757675768 -0.12706061226123
 6 -1.92484475687569  2.14284521802180  0.56663559555956
 6 -1.30418039643964  4.45744200440044 -2.27367913591359
 6 -3.27093773027303  4.42022250515051  0.45503974367437
 6 -2.13910780198020  5.58007342554255 -2.42705643844384
 1 -3.60456895009501 -0.37474296419642  1.13010721532153
 1 -2.83266489288929 -3.36937206220622  1.16666701580158
 1 -3.03968378817882 -2.33609705410541  2.48444783348335
 1 -0.27400270507051 -2.83904266936694  0.02901991199120
 1 -2.12670105980598 -0.36802310581058 -0.81276537893789
 1  1.68302626402640 -0.42000345414541  4.26254835393539
 1  2.91242857575758 -0.94641653295330  3.10897582698270
 1  2.75706452035204 -2.57845942884288  0.42027508070807
 1 -2.36471910121012 -1.12255152915292  4.39086614841484
 1 -0.68701846984698 -0.26725092869287  4.92201855835584
 1 -1.70447976177618  0.58841128782878  3.53456222152215
 1 -5.84413520072007 -1.66519465066507  1.93197749074908
 1 -5.72483124382438 -3.22637674227423  1.58759160546055
 1 -6.71351872867287 -2.14570021342134  0.61798816051605
 1  2.08428456785679  1.20298023992399  1.84827243854385
 1  0.85851580308031  1.60881312561256  3.07295526922692
 1  0.13855211281128  0.36816118591859 -0.13345537783778
 1  4.45448116731673 -1.32697575657566 -3.05403100500050
 1  3.97036786658666 -2.65102688188819 -2.03255036303630
 1 -6.02622476087609 -1.91723264786479 -3.04193765756576
 1  5.21701962326233 -1.09177965786579 -0.11015779207921
 1  5.79465090639064 -0.13752074817482 -1.45985046754675
 1  4.00445035653565  0.48276476857686 -4.03843207270727
 1  3.58464421602160  1.97359843854385 -3.30727306270627
 1  2.29354514381438  1.09785428332833 -4.27953110511051
 1  0.75970988098810  2.60402189868987 -2.75536642864286
 1 -6.71187027312731 -4.10014219811981 -0.81780080128013
 1 -7.46248451335134 -3.73113444394439 -2.53579663316332
 1  4.16110983848385  3.32321168216822  3.10429368356836
 1 -0.63458733753375  4.35352663216322 -3.06312420782078
 1 -4.04668325792579  4.59045562736274 -0.34070522202220
 1 -3.53289203890389  4.08072286588659  1.39117992939294
 1 -2.50086840304030  5.41425171627163  0.58659442934293
 1  8.31001669516952 -2.24570772497250 -0.99296993199320
 1 -2.00773369796980  6.25522597969797 -3.15515036723672
 1 -2.86947930083008  5.88801017681768 -1.61354726222622

