%nproc=4
%Mem=3GB
# td=(NStates=1) B3LYP/SVP 

TD

0 1
 8 -3.33412032223222 -1.18833388888889 -2.86530718501850
 8  2.91588204300430  3.12126378487849  3.06789106000600
 8  3.61056536473647  1.53877100540054  4.35936037963796
 8  7.66655525842584 -1.46614272847285 -0.54017477927793
 8  6.84807896429643 -2.81026182108211 -2.23523997209721
 8 -2.43532443894389  1.62480796989699  1.54257431793179
 7 -0.31487723392339 -2.43613992829283  0.90522536333633
 7 -2.69083112111211 -1.19482461746175 -0.60140228482848
 7  1.27310886028603  0.09251016071607 -0.65617055425543
 7 -1.01974111961196  1.38734414231423 -0.32493339123912
 6 -3.38229337903790 -1.33687124952495  0.68993596749675
 6 -2.65566419251925 -2.34369851605160  1.71844715151515
 6 -1.20859650135013 -2.01997981198120  1.86064405300530
 6 -0.52153195549555 -1.18876006770677  2.77667568806881
 6  0.83578469106911 -1.17576257725773  2.42992418701870
 6  0.93569625582558 -1.97424385908591  1.19162396639664
 6 -4.74947989458946 -1.93025867456746  0.25910279757976
 6  1.87121171257126 -0.43036336593659  3.04727688218822
 6 -4.69763612501250 -1.97116582498250 -1.08552889338934
 6  2.04854281068107 -1.99910810301030  0.31108338703870
 6  2.11064708660866 -0.97729964216422 -0.66711061256126
 6 -3.50239490939094 -1.42077404270427 -1.71723900730073
 6  2.99836089928993 -0.67497824612461 -1.78050194909491
 6 -1.10073864606461 -0.51236509350935  3.95326083438344
 6 -5.87569279337934 -2.18657513781378  1.23313431903190
 6  2.52679233613361  0.39097646584658 -2.45555016501650
 6  1.94634406680668  1.08195388738874  2.59001564316432
 6  1.38269163566357  0.85770241884188 -1.74770087608761
 6  4.21015636473647 -1.55628505760576 -1.97152678277828
 6 -5.83718805490549 -2.34499659005901 -2.04844829302930
 6  5.28751430243024 -1.34155590079008 -0.99061247814782
 6  3.14044413981398  1.03433183578358 -3.64561107030703
 6  0.54493691779178  1.93669881678168 -2.04682642774277
 6  2.89547818811881  1.93553313881388  3.48341368656866
 6 -0.59265309690969  2.30239487168717 -1.23008829672967
 6 -6.93116704320432 -3.15772953705371 -1.72541109980998
 6  6.67762733233323 -1.93696195129513 -1.38688937893789
 6 -1.43012166696670  3.46775900910091 -1.29098717341734
 6 -2.34099818921892  3.33022350135013 -0.18970687688769
 6 -2.05841811421142  2.00798173167317  0.47282621462146
 6 -1.31226120452045  4.54812107230723 -2.30414218221822
 6 -3.33265390189019  4.34341482438244  0.40014425412541
 6 -2.00328421962196  5.69332475067507 -2.22615634843484
 1 -3.48718721192119 -0.36032152205221  1.14170837543754
 1 -2.70054168056806 -3.29412453745375  1.38408875797580
 1 -3.11320113991399 -1.91375481988199  2.72200158885889
 1 -0.41691699649965 -2.96278504360436 -0.04877786778678
 1 -1.81350974067407 -0.59797610111011 -0.79312341474147
 1  1.83931189258926 -0.49339079287929  4.15706780588059
 1  2.83384071697170 -0.82516440774077  2.72513744314431
 1  2.83210202410241 -2.65685726862686  0.47210026322632
 1 -1.89907253655365 -1.19441871587159  4.09553661546155
 1 -0.40780054805481 -0.35975017861786  4.66496285278528
 1 -1.63833314711471  0.47325977267727  3.59116788208821
 1 -5.90204099129913 -1.43807193839384  2.05261955495550
 1 -5.71751051175117 -3.26807091169117  1.66510935723572
 1 -6.93177055385538 -1.98619426282628  1.08557491919192
 1  2.16168230763076  1.34555449734973  1.52040965226523
 1  1.11395134663466  1.67257950225022  2.78530650435044
 1  0.26568482608261  0.14089845964596 -0.16302833513351
 1  4.59918563776378 -1.52018507750775 -3.05148074997500
 1  3.95311614141414 -2.59981176037604 -1.86070317831783
 1 -5.98292043044304 -1.80348127272727 -3.12696616041604
 1  4.89673759505951 -1.82041252115211  0.05602882658266
 1  5.47775921722172 -0.08632562866287 -0.81332581508151
 1  3.92283219471947  0.43531002310231 -4.06459468896890
 1  3.73609936153615  2.03993507220722 -3.26684902030203
 1  2.46800258955896  1.16614111201120 -4.43310646264626
 1  0.83682759275927  2.37871936843684 -3.04123501550155
 1 -6.97028611471147 -3.81698388228823 -0.86229525072507
 1 -7.78571683658366 -3.40427175767577 -2.33159621312131
 1  3.46454018151815  3.58354771577158  3.87093034723472
 1 -0.51725560436044  4.31377265676568 -3.14051194659466
 1 -4.42915150475048  4.49433601540154 -0.28326947844784
 1 -3.58466721642164  4.19219401300130  1.55377618901890
 1 -2.90028834503450  5.45890618171817  0.28446421632163
 1  8.33693938743875 -1.94315746994699 -0.82412304730473
 1 -1.79961288588859  6.31945240234023 -3.16103095529553
 1 -2.80492284518452  5.99519089488949 -1.67858376587659

