%nproc=4
%Mem=3GB
# td=(NStates=1) B3LYP/SVP 

TD

0 1
 8 -3.22268917911791 -1.37845290079008 -2.91865251955196
 8  3.42061251605161  2.97647930643064  2.88794306520652
 8  3.39237354555456  1.44361148944894  4.74756920052005
 8  7.75511411431143 -1.60500661486149 -0.76797755955596
 8  6.67988214461446 -2.92595339023902 -2.11049749784978
 8 -2.65160606710671  1.64984047314731  1.49934999549955
 7 -0.27811355755576 -2.46165247954796  0.99797463826383
 7 -2.62198423642364 -1.21720685568557 -0.62775492009201
 7  1.09709125852585  0.07715862556256 -0.71033597079708
 7 -0.92813195869587  1.50737614551455 -0.18329922782278
 6 -3.30252540224022 -1.36523408580858  0.64411138503850
 6 -2.75741436753675 -2.38023216941694  1.65484079087909
 6 -1.25345098679868 -2.07329514351435  1.88126611521152
 6 -0.68280808310831 -1.22675386708671  2.87087510801080
 6  0.76257737033703 -1.13284828582858  2.57369856445645
 6  0.95070775697570 -1.82792922762276  1.35649045304530
 6 -4.61085603220322 -1.85933158185819  0.24113100040004
 6  1.92916750815082 -0.42030235983598  3.20025217971797
 6 -4.73735009640964 -1.95660436883688 -1.08782912341234
 6  2.09634759115912 -1.90518871107111  0.36224850355036
 6  2.06103212511251 -0.95218713091309 -0.58825272677268
 6 -3.48812348224822 -1.49814177947795 -1.71810909430943
 6  2.92857392059206 -0.66483723202320 -1.77668156705671
 6 -1.27270584278428 -0.46931078807881  3.96942245054505
 6 -5.66802202630263 -2.24733121342134  1.23024403000300
 6  2.48285794269427  0.41105847404740 -2.48594320432043
 6  1.99048848124812  1.09738543054305  2.64643128472847
 6  1.35225859235924  0.89760640924092 -1.79854596059606
 6  4.16653200230023 -1.51210063916392 -2.06403603370337
 6 -5.86473080918092 -2.42543463386339 -2.12352580078008
 6  5.41230678167817 -0.94799654485449 -1.22541595849585
 6  3.16664676007601  1.08638704130413 -3.62873938313831
 6  0.39920234433443  2.01781692859286 -2.01155290039004
 6  2.98864750505050  1.79371895739574  3.62905825102510
 6 -0.61898573017302  2.29012364456446 -1.22529781768177
 6 -7.00264419091909 -3.02741650575058 -1.72090064876488
 6  6.71692126172617 -1.93185144024402 -1.46127681768177
 6 -1.47854650945094  3.52180441364136 -1.26786486118612
 6 -2.41937602700270  3.31847232623262 -0.20764867106711
 6 -1.98622089448945  2.02934386788679  0.46332526452645
 6 -1.30485046344634  4.47589384958496 -2.33520528852885
 6 -3.47568820532053  4.29729021192119  0.26993123282328
 6 -1.94575846704670  5.73301872007201 -2.39788352115212
 1 -3.28955744894489 -0.39633512341234  1.38998320292029
 1 -2.72260388678868 -3.34793991899190  1.18707905700570
 1 -3.31908172797280 -2.23748719311931  2.64850423912391
 1 -0.40892619741974 -2.71947071217122  0.01891890189019
 1 -2.01029941964196 -0.45775207870787 -0.71137523992399
 1  1.87142510391039 -0.40436188998900  4.43666576567657
 1  3.04200153305331 -0.90782267356736  3.18221315071507
 1  2.83589240314032 -2.91386296919692  0.42850590379038
 1 -2.40029265856586 -0.82870214421442  4.26765382718272
 1 -0.50996076407641 -0.22902710631063  4.68519487598760
 1 -1.67601691549155  0.50162260896090  3.51430019531953
 1 -5.59133992119212 -1.41705983718372  2.00023431643164
 1 -5.32168092879288 -3.23242734733473  1.67775062136214
 1 -6.72583996079608 -2.32058770217022  0.96942330403040
 1  2.15707184658466  1.36521646354635  1.62156976827683
 1  0.93446339783978  1.44003624792479  2.45501347504750
 1  0.35585384298430  0.42009637943794  0.00963893159316
 1  4.61276699589959 -1.58191125012501 -3.18957455935594
 1  4.03916474627463 -2.46955873507351 -1.63513062106211
 1 -5.58473061146115 -2.03789471407141 -3.10745420922092
 1  5.47167508880888 -1.07286776667667 -0.23266004230423
 1  5.70080152145215  0.17315031893189 -1.60885536803680
 1  4.02040195169517  0.59492598469847 -4.06341457095710
 1  3.49584533613361  2.21292237093709 -3.29868220362036
 1  2.58207399669967  1.59409390729073 -4.47289044104410
 1  0.46553046304631  2.49627112361236 -3.08640953295330
 1 -7.09110819691969 -3.47466965086509 -0.67344636583658
 1 -7.81777004190419 -3.23356468696870 -2.34174722822282
 1  3.99509323682368  3.32022138313831  3.54450770497050
 1 -0.73985786458646  4.12567384688469 -3.17004489988999
 1 -3.87071566116612  4.74558113991399 -0.72488363986399
 1 -4.26714546424642  3.57766255985599  0.93409422082208
 1 -2.88209652585258  5.04427471857186  0.78459422932293
 1  8.45891158465847 -2.45115827002700 -0.97521815681568
 1 -1.94203712831283  6.42836329342934 -3.42859771197120
 1 -2.28715106800680  6.27666904270427 -1.40563647114711

