%nproc=4
%Mem=4GB
# td=(NStates=1) B3LYP/SVP 

TD

0 1
 8 -5.37667389738974  0.21887732733273 -3.39477926762676
 8  3.18799880538054  2.85137239193919  3.28287436583658
 8  3.45934428302830  0.66304170317032  2.98215010011001
 8  1.46717435693569 -7.00573684378438  1.56862536883688
 8  0.55837072507251 -6.98324474807481 -0.47989597249725
 8  1.51675872397240  3.84489761256126  0.06273578097810
 7 -2.25478508960896 -1.01778020822082  0.57770478707871
 7 -4.29144402580258  0.48631629812981 -1.28469682448245
 7  1.89606999859986 -0.79543111611161 -0.39253773137314
 7  2.58388393029303  1.85961170667067 -0.48356510321032
 6 -4.67407379857986  1.20482197919792 -0.05238943914391
 6 -4.27060445324532  0.28851901720172  1.22375973367337
 6 -2.83194829042904 -0.09060880418042  1.35654766776678
 6 -1.89253835053505  0.60184514171417  2.12672584218422
 6 -0.64758136843684 -0.01810724622462  1.92100277787779
 6 -0.94455864366437 -1.04647770667067  0.90543236263626
 6 -6.15751810791079  1.38469625892589 -0.18568378377838
 6  0.61726033263326  0.21093176967697  2.62328134823482
 6 -6.53076359085909  0.79595884428443 -1.34943067176718
 6 -0.09079533563356 -2.06358509540954  0.18845092659266
 6  1.17291418761876 -1.86198574517452 -0.22982456465647
 6 -5.35254585488549  0.42149036373637 -2.17129444094409
 6  1.97521160636064 -2.94153469186919 -0.95818282758276
 6 -2.23340904180418  1.67608336523652  3.01608599879988
 6 -6.91625911911191  1.99778790799080  0.94420840674067
 6  3.10987732143214 -2.37325727692769 -1.38036928202820
 6  1.27347337463746  1.65314380778078  2.66428006390639
 6  3.08389646494649 -0.96293491909191 -1.09268325652565
 6  1.49503327352735 -4.36891285568557 -0.96797851475148
 6 -7.93163906990699  0.83500513811381 -2.04248263606361
 6  1.58518608420842 -5.00667160176018  0.41923791929193
 6  4.19432504150415 -3.08082655145515 -2.06362559385939
 6  4.02462333293329  0.09056846034603 -1.45364004640464
 6  2.70783140434043  1.62621020922092  3.05030092999300
 6  3.71168554635464  1.56185159665967 -1.12046861416142
 6 -9.16420140354036  0.82370453075308 -1.48138295359536
 6  1.02497756245625 -6.43777042724272  0.48508716771677
 6  4.53427226182618  2.72020877577758 -1.42148923202320
 6  3.76274554295430  3.74911543524352 -1.05114640894089
 6  2.43417498829883  3.19868771987199 -0.45502426512651
 6  5.83116672197220  2.64241908250825 -2.09811176627663
 6  3.94441006080608  5.25371024682468 -1.16169818321832
 6  6.56296635423542  3.78190387518752 -2.52092656955696
 1 -4.11777626372637  2.31833291339134  0.12845588588859
 1 -4.88618327522752 -0.73982545864586  1.20769551375137
 1 -4.71834867476748  0.74565856555656  2.12700961066107
 1 -2.70670971087109 -1.63928132363236  0.01946502470247
 1 -3.43360435773577  0.71217313441344 -1.68032558345835
 1  0.34395883058306  0.08199851185119  3.81890143824382
 1  1.43367737713771 -0.59430409780978  2.41150628342834
 1 -0.69337799869987 -3.11385885088509  0.39178418071807
 1 -3.34567471277128  1.47868913301330  3.31392138183818
 1 -1.49729094419442  1.54992435633563  3.94596298419842
 1 -2.28526490759076  2.68595241504150  2.39485690749075
 1 -6.43651710261026  2.64679348284828  1.48971120412041
 1 -7.09464923192319  1.06065587478748  1.55878288898890
 1 -7.68744468166817  2.49987607070707  0.75353383358336
 1  1.26976968536854  2.30430246684668  1.55326339363936
 1  0.55785889838984  2.29504632663266  3.29603542774278
 1  1.66222054845484  0.33237388238824 -0.25624098939894
 1  2.40782857505751 -4.92810664106411 -1.62031664136414
 1  0.49270106760676 -4.31887173467347 -1.52116059945995
 1 -7.72138320012001  0.64240447104711 -3.01289722792279
 1  0.93038522742274 -4.35326650635063  0.99887746434643
 1  2.58641491159116 -5.24586179067907  1.08708652355236
 1  4.03646870917092 -4.00263771597160 -2.30582404350435
 1  4.93179427782778 -2.88068691889189 -1.42611622922292
 1  4.52559399249925 -2.72640487308731 -2.97351642524252
 1  4.89719933943394 -0.18494058855886 -1.93266944264426
 1 -9.39513311381138  0.82883033853385 -0.26993968376838
 1 -10.10606874047405  0.88511992769277 -2.22396849684968
 1  4.18131281778178  2.78604198789879  3.78141290699070
 1  6.17274074227423  1.73589573877388 -1.96946576157616
 1  4.89168986878688  5.52311507570757 -0.77458607850785
 1  3.96261828432843  5.59416618231823 -2.32943548844885
 1  3.08149581918192  5.70640024642464 -0.75665740734073
 1  1.27309461756176 -8.02117327442744  1.60913696859686
 1  7.52924536893689  3.58628416831683 -2.83983125642564
 1  5.99445133263326  4.72385789798980 -2.64487684018402

