%nproc=4
%Mem=4GB
# td=(NStates=1) B3LYP/SVP 

TD

0 1
 8 -5.45511174117412  0.02602804240424 -3.25766555625563
 8  3.05281528702870  3.01051830653065  3.25066114451445
 8  3.47408575717572  0.83262866186619  2.75339722482248
 8  1.88539617911791 -7.28161443154315  1.30364887118712
 8  0.49154404240424 -6.96667309090909 -0.50625860876088
 8  1.66556360446045  3.98445156795680 -0.01660215281528
 7 -2.34297390849085 -0.89490792099210  0.58277529412941
 7 -4.35133001440144  0.68019568606861 -1.27812616741674
 7  1.74240463206321 -0.65267684068407 -0.53010148774878
 7  2.51422696459646  1.90333607910791 -0.58562530923092
 6 -4.80320671187119  1.21604310131013  0.02431823162316
 6 -4.34018141094109  0.41797196249625  1.26353371107111
 6 -2.95671076667667  0.12516277297730  1.26948896189619
 6 -1.95296439313931  0.67577253445345  2.15176834643464
 6 -0.69976658695870  0.02557712221222  1.85051572917292
 6 -0.98204239203920 -0.95972903180318  0.79811163056306
 6 -6.27665002110211  1.34768255755576 -0.11666688208821
 6  0.62034064066407  0.11920259675968  2.55104412451245
 6 -6.67671818631863  0.78621787018702 -1.35027075577558
 6 -0.21059731583158 -1.97106584348435  0.17617969946995
 6  1.06953384958496 -1.87374692129213 -0.35132671487149
 6 -5.39994059435944  0.43654186888689 -2.12726003750375
 6  1.91290537573757 -2.90872141054105 -0.86714372367237
 6 -2.21495719661966  1.71432718961896  3.14841923212321
 6 -7.16068356155616  2.06164429362936  0.89351333723372
 6  3.10710704440444 -2.28555850705070 -1.31683292839284
 6  1.12913894119412  1.67981647504750  2.55424906080608
 6  3.00555863116312 -0.89322794839484 -1.01604559275928
 6  1.48047181738174 -4.37173313771377 -0.92393411031103
 6 -7.98187409340934  0.51403304090409 -1.96613500130013
 6  1.85040260586059 -5.07711864646465  0.35405140064006
 6  4.22363797279728 -3.01465993479348 -1.99218845014501
 6  3.92867373797380  0.07969737323732 -1.32869755215522
 6  2.60385100630063  1.76409399759976  2.87516341624162
 6  3.66977135493549  1.45945135663566 -1.05905247254725
 6 -9.16981196459646  0.60414257455746 -1.33768858415842
 6  1.27427249194919 -6.51238788898890  0.34210286928693
 6  4.66552538713871  2.62397915281528 -1.30208729182918
 6  3.91860112851285  3.74582510621062 -1.01517281158116
 6  2.62907447824783  3.31384923602360 -0.50476923962396
 6  5.94274788008801  2.44382922352235 -1.85666762186219
 6  4.24017963776378  5.19460433623362 -0.98747076047605
 6  6.90215027262726  3.25476116091609 -2.37556203310331
 1 -4.21775626172617  2.25495657575758  0.06913995429543
 1 -4.97989264616462 -0.53260473657366  1.27588233243324
 1 -4.62761960186019  1.04398839853985  2.19093600330033
 1 -2.77558659855986 -1.37707510301030 -0.24038095989599
 1 -3.51922291959196  0.96962887998800 -1.79574712561256
 1  0.42552698739874 -0.08594828282828  3.72680222832283
 1  1.17832184158416 -0.56272093949395  2.18354348714872
 1 -0.80387904880488 -2.83151061606161  0.09794479677968
 1 -3.29560970627063  1.90344160826083  3.53580357005701
 1 -1.62791400650065  1.54377374127413  4.09666805470547
 1 -1.73498988008801  2.69860368016802  2.81323874567457
 1 -6.51225467636764  2.53453225672567  1.62401463446345
 1 -7.93725349234924  1.38142795199520  1.50912792349235
 1 -7.81594753195319  2.88287437053705  0.56303478367837
 1  1.13812652105211  2.08511054765477  1.59073714101410
 1  0.57356046854685  2.44272109410941  3.07916374057406
 1  1.29561388778878  0.43479412441244 -0.48867423272327
 1  1.90508830103010 -4.66878070847085 -1.84209881958196
 1  0.42377417491749 -4.24127397489749 -1.09213769716972
 1 -7.85256631843184  0.14859509010901 -2.93940987918792
 1  1.36984917381738 -4.58599977967797  1.43653122972297
 1  2.87775404550455 -4.97567477197720  0.50840865576558
 1  3.68992405470547 -4.14777222942294 -2.42909637073707
 1  4.90717181558156 -3.41524037423742 -1.11863548114812
 1  4.51452288538854 -2.41062329492949 -2.92946201980198
 1  5.05047466696670 -0.02831492599260 -1.47992416811681
 1 -9.19416301680168  0.87885534103410 -0.26558924872487
 1 -10.05783391699170  0.18125954165417 -1.94719081908191
 1  3.96694138063806  2.84363774747475  3.43337810351035
 1  6.35012848104810  1.30766291549155 -1.68984779977998
 1  5.29809050885088  5.82272503670367 -0.28696731663166
 1  4.50739276177618  5.50946771247125 -2.09175172007201
 1  3.35599326892689  5.64316392279228 -0.60143188478848
 1  1.67875518361836 -8.21136229332933  1.32825888078808
 1  7.86853929832983  2.77262280218022 -2.82189946324632
 1  6.84481636913691  4.33942945514552 -2.41260361286129

