%nproc=4
%Mem=3GB
# td=(NStates=1) B3LYP/SVP 

TD

0 1
 8 -3.25271218141814 -1.20613566906691 -2.87868852315232
 8  2.77011746654665  3.25424708320832  3.49272354325433
 8  4.09216352455246  1.23639076737674  4.03803824742474
 8  7.81456005890589 -1.46136225042504 -0.82679344114411
 8  6.68280243664366 -2.96414720962096 -2.17006345444544
 8 -2.77580848734873  1.65990147924792  1.39047910841084
 7 -0.26527227342734 -2.40596691099110  1.04728956975698
 7 -2.64549658765877 -1.08095323032303 -0.65689783438344
 7  1.14607615701570  0.07524843454345 -0.68890382758276
 7 -1.00068921442144  1.49695510341034 -0.15091598949895
 6 -3.32871802150215 -1.36626418881888  0.67726470037004
 6 -2.56771539763976 -2.44599874607461  1.56546185298530
 6 -1.16965260696070 -2.13968178217822  1.85292328092809
 6 -0.58797860016002 -1.31112230393039  2.95183320382038
 6  0.75855696829683 -1.22029703070307  2.60062125672567
 6  0.91044373057306 -1.86032246694669  1.31436624062406
 6 -4.68956390299030 -1.82416806550655  0.29766665396540
 6  1.80124471587159 -0.49100943054305  3.35640779527953
 6 -4.75744210561056 -1.94421312971297 -1.10745108560856
 6  2.11477943434343 -1.97179537173717  0.34662694139414
 6  2.14510053195320 -0.89539145134513 -0.56494039553955
 6 -3.49443411331133 -1.39589155445545 -1.77031431483148
 6  3.02077314051405 -0.70282103040304 -1.68573247214721
 6 -1.34241281348135 -0.60649450645065  4.01207671597160
 6 -5.68811403550355 -2.19890637093709  1.26480748634863
 6  2.56118577547755  0.46157352555256 -2.34208881888189
 6  1.82936236863686  1.00567625962596  2.95327196879688
 6  1.33615698219822  0.83950059865987 -1.73514962096210
 6  4.17403275237524 -1.53265269436944 -1.96514614471447
 6 -5.81932626872687 -2.36696878727873 -2.02543599179918
 6  5.57659321032103 -0.96012775797580 -1.22338575547555
 6  3.05784587998800  0.97523592619262 -3.80792730193019
 6  0.47746017011701  1.96042118901890 -1.95926767186719
 6  3.02174081438144  1.80849043454345  3.49986533173317
 6 -0.56971080268027  2.25721035323532 -1.17693298119812
 6 -7.09334326082608 -2.89048281238124 -1.67251581028103
 6  6.78399796939694 -1.95305356045605 -1.47396808680868
 6 -1.49536819161916  3.43891612481248 -1.34251232593259
 6 -2.39828391779178  3.44035451445145 -0.28263616981698
 6 -2.15585785818582  2.10250118361836  0.43929286128613
 6 -1.23609358775878  4.46253251345134 -2.33489525752575
 6 -3.47426806330633  4.26818730163016  0.16850108980898
 6 -1.98250214141414  5.57835325352535 -2.69944367716772
 1 -3.09771826502650 -0.41533702360236  1.26121032563256
 1 -2.52864449084908 -3.31009613461346  0.95199554865487
 1 -3.16320614041404 -2.64207765216522  2.34070345904590
 1 -0.46691199599960 -2.76245501060106  0.22455946594659
 1 -1.63951234093409 -0.35058136163616 -0.58808291069107
 1  1.84738269966997 -0.57827928172817  4.40436253535353
 1  2.70431776467647 -0.91494338563856  3.09076400580058
 1  3.13688250215022 -2.62024360726073  0.12021507470747
 1 -2.10813344264426 -1.02333160716072  4.47951501330133
 1 -0.56342611061106 -0.17028123172317  4.67257361386139
 1 -1.95606492029203  0.32702514921492  3.48035680098010
 1 -5.57440822802280 -1.59275740694069  2.20905519851985
 1 -5.67315607630763 -3.19046315091509  1.38475132143214
 1 -6.68652602940294 -2.17449309270927  0.86440280198020
 1  2.05533167256726  1.15538548044804  1.91332894419442
 1  0.79019897139714  1.28434067836784  3.06155412911291
 1  0.19607786538654  0.21101547134713 -0.09536156845685
 1  4.46145186438644 -1.50817387638764 -3.05386098799880
 1  3.94849567936794 -2.51931371057106 -1.68687579557956
 1 -5.65528766716672 -2.07490841544154 -3.05132859665967
 1  5.40776869816982 -0.89904038393839 -0.12354913121312
 1  5.64677611891189 -0.04091108720872 -1.56426090859086
 1  3.82834274577458  0.28325481758176 -4.05082331183118
 1  3.42881863346335  1.92263334203420 -3.62967530293029
 1  2.14286007530753  0.73246774467447 -4.49281243324332
 1  0.91625553555356  2.91096259275928 -2.52279317131713
 1 -7.24567365346535 -3.12300448434844 -0.64634365556556
 1 -7.74608287318732 -3.27597892839284 -2.53052610611061
 1  3.61744547204721  3.48182754375438  3.88912216641664
 1 -0.23103698249825  4.39323060256025 -2.93842173757376
 1 -4.34705329492949  4.35274185598560 -0.57643879537954
 1 -3.91247999769977  3.84391918551855  1.06120693209321
 1 -3.09283759996000  5.25504579567957  0.40813658355836
 1  8.66899259275928 -1.96668982318232 -0.99851048604861
 1 -1.69853277787779  5.96871732883288 -3.59570442264226
 1 -2.89103145604560  5.98710008580858 -2.06315222272227

