%nproc=4
%Mem=3GB
# td=(NStates=1) B3LYP/SVP 

TD

0 1
 8 -3.30368727892789 -1.46448150365037 -2.89357001130113
 8  2.84109456425643  3.22115377387739  3.01731600250025
 8  3.81432574077408  1.37891501980198  4.20318476207621
 8  7.75315391829183 -1.59010512471247 -0.77150791259126
 8  6.45300945734573 -3.12498329322932 -1.94516096419642
 8 -2.60940184668467  1.55654114321432  1.39474953545355
 7 -0.29320506670667 -2.44389070337034  0.96987182798280
 7 -2.66498853685369 -1.28074320932093 -0.64301644624462
 7  1.11016256565657  0.10593150285028 -0.74383932113211
 7 -1.05117426292629  1.45366077397740 -0.24160505840584
 6 -3.22069721942194 -1.40626818921892  0.65310228412841
 6 -2.62877150325032 -2.34298844504450  1.61654696149615
 6 -1.20883652535254 -2.06621443544354  1.78153614221422
 6 -0.61964176647665 -1.30513170487049  2.79977799829983
 6  0.73567468006801 -1.15866086708671  2.45840703530353
 6  0.96809949614962 -1.94617105180518  1.19965476947695
 6 -4.67791273787379 -1.91449709840984  0.34542142944294
 6  1.76175076647665 -0.33625395499550  3.13933608810881
 6 -4.77249361076108 -2.04400310871087 -1.05054539503950
 6  2.06979493589359 -1.87844603680368  0.32256453515352
 6  2.09531555345535 -0.86644855705571 -0.66211011251125
 6 -3.54973964386439 -1.57887985328533 -1.75403268666867
 6  3.01704276747675 -0.64668541684168 -1.72014591349135
 6 -1.28548712091209 -0.55569942694269  3.94857036533653
 6 -5.74951017511751 -2.06676315661566  1.32736374197420
 6  2.57598725562556  0.48833620182018 -2.43572818281828
 6  1.82779221162116  1.11385707770777  2.69267590919092
 6  1.40369373587359  0.98901555015502 -1.70894700070007
 6  4.22737808690869 -1.51322075117512 -1.95598522862286
 6 -5.87553188928893 -2.41624371477148 -1.93563701190119
 6  5.54176972797280 -0.97193893909391 -1.30717413431343
 6  3.33947404280428  1.17162556515652 -3.50811732093209
 6  0.60327275137514  2.04718986588659 -1.90966271137114
 6  2.99855849614961  1.86131571707171  3.43512885808581
 6 -0.60607443904390  2.29063369556956 -1.16443173107311
 6 -6.91403533003300 -3.14256802090209 -1.66387494619462
 6  6.67986755635564 -2.01181943704370 -1.34819550955096
 6 -1.37009566436644  3.53279551275127 -1.19596767146715
 6 -2.36216030543054  3.40105058405841 -0.24914282048205
 6 -2.04083635603560  2.07729866336634  0.44276320832083
 6 -1.21618159655966  4.65015127532753 -2.10037180518052
 6 -3.49400003650365  4.22096257915792  0.19069330903090
 6 -1.87362125332533  5.81817723592359 -2.23700743354335
 1 -3.48657715091509 -0.34781027092709  1.21785599019902
 1 -2.72112373877388 -3.24855998099810  1.25009535863586
 1 -2.95022484228423 -2.23338678307831  2.66353574227423
 1 -0.50821612641264 -2.78063682878288  0.02163917391739
 1 -2.11941033073307 -0.33764006750675 -0.79850395279528
 1  1.72080004140414 -0.47957941174117  4.32185428452845
 1  2.68844617751775 -0.99362125342534  2.92313724312431
 1  2.81507032093209 -2.67941952485249  0.42915596879688
 1 -1.95794842414241 -1.18045731973197  4.25299236103610
 1 -0.57826759475948 -0.26748095169517  4.55922227872787
 1 -1.84640395419542  0.32690513721372  3.36204496979698
 1 -5.56508729592959 -1.29328745994599  2.16082037503750
 1 -5.37148590929093 -3.13023712831283  1.96511935823582
 1 -6.77160453725373 -2.05455109850985  1.00356671837184
 1  2.07858399779978  1.42207214911491  1.58018562986299
 1  1.01370132163216  1.84989723402340  2.84542251595160
 1  0.18888714631463  0.17361173097310 -0.29700173247325
 1  4.20287600680068 -1.87994105310531 -3.23465906780678
 1  3.88067889768977 -2.62095387458746 -1.65527263526353
 1 -5.67272941134113 -2.23235416001600 -3.07050051385139
 1  5.36286420772077 -0.80264074397440 -0.13364014031403
 1  5.79318075937594  0.04135713961396 -1.59865434793479
 1  4.10630054155416  0.57578407050705 -3.98166639613961
 1  3.69051480308031  2.21086216491649 -3.12376471187119
 1  2.37057284658466  1.47648214611461 -4.33221637363736
 1  0.95986989698970  2.74972646914691 -2.70755164716472
 1 -7.22491157725773 -3.48265044894489 -0.61520054125413
 1 -7.38071633653365 -3.55742707320732 -2.73812686618662
 1  3.42730645814582  3.73104246524652  3.56154940914091
 1 -0.48328220702070  4.49797107660766 -3.05619351475148
 1 -4.01312990259026  4.65272185398540 -0.75206635813581
 1 -4.13359210891089  3.64571936553655  0.90653146454645
 1 -2.97661597779778  5.12718300940094  0.74854062396240
 1  8.29975566906691 -2.44441759595960 -0.98919955495550
 1 -1.46676960156016  6.51884234133413 -3.12779763196320
 1 -2.54625697859786  6.37667904370437 -1.61202711021102

