%nproc=4
%Mem=4GB
# td=(NStates=1) B3LYP/SVP 

TD

0 1
 8 -5.46249247924793 -0.02141670207021 -3.32309209890989
 8  3.01684168966897  2.89892714741474  3.46018209660966
 8  3.47779612821282  0.64933033203320  3.20476236133613
 8  1.72928056755676 -7.23398966906691  1.48692719901990
 8  0.73245813381338 -7.11147757135714 -0.49125710861086
 8  1.75484253235324  4.06577970077008  0.02616212361236
 7 -2.35585519661966 -1.02135056525653  0.64559157575758
 7 -4.35652053345335  0.51405907240724 -1.30713906870687
 7  1.72930332193219 -0.80461203420342 -0.45808428602860
 7  2.51239678157816  1.90482622812281 -0.50637738443844
 6 -4.72387877907791  1.22450394739474 -0.13092729292929
 6 -4.38093548634864  0.43460362566257  1.23064042174217
 6 -2.89349444504450  0.09245950265027  1.37370938393839
 6 -1.96007510421042  0.73262822002200  2.05024819441944
 6 -0.75129173947395 -0.06762219771977  1.80581125872587
 6 -0.98492268006801 -1.05995905480548  0.95644746414641
 6 -6.20347270337034  1.39707749704970 -0.23248846424642
 6  0.61852045864586  0.14789546604660  2.53830285038504
 6 -6.68755927042704  0.93836308470847 -1.37534326302630
 6 -0.23897015311531 -2.00124886178618  0.22661474297430
 6  1.05958285448545 -1.93249279587959 -0.32706428862886
 6 -5.49234983528353  0.42307052175218 -2.13693100460046
 6  1.94075816101610 -2.89655019341934 -0.95684269356936
 6 -2.06210191109111  1.89920567746775  3.10302469266927
 6 -7.06695418861886  2.13186131533153  0.76907089298930
 6  2.99077541124112 -2.29315926712671 -1.47410865596560
 6  1.31402743004300  1.50111860526053  2.59409304520452
 6  2.94301237653765 -0.90378900450045 -1.12271625982598
 6  1.51015478567857 -4.39279524392439 -0.94605632253225
 6 -8.04765067106711  0.77270890849085 -1.97474586238624
 6  1.74962252785279 -5.03739467406741  0.40185618111811
 6  4.33676928592859 -2.87162563136314 -2.06452568386839
 6  3.80053092369237  0.16974637813781 -1.41119580198020
 6  2.75334595579558  1.61243883208321  3.01097699759976
 6  3.62977735553555  1.50915632713271 -1.14983155045505
 6 -9.19647463086309  0.65253741404140 -1.34063887918792
 6  1.31148621332133 -6.52024867506751  0.42471113011301
 6  4.46832566716672  2.66823357825783 -1.48410549364936
 6  3.85811507990799  3.79651017471747 -1.04066536083608
 6  2.61852342314231  3.38589644074407 -0.41424018671867
 6  5.84344795009501  2.44489933053305 -2.04482643774377
 6  4.30306592639264  5.28848372417242 -1.09200121352135
 6  6.66622668026803  3.43548923372337 -2.50603508040804
 1 -4.02889737583758  2.07371845194519 -0.11888884858486
 1 -4.97864252115212 -0.56695817191719  1.11196594079408
 1 -4.95209204910491  1.14098809850985  2.08850576027603
 1 -2.88401744164416 -1.37763515901590 -0.25120204200420
 1 -3.34115511281128  0.80519243634363 -1.72938048894890
 1  0.28701313601360 -0.26426611461146  3.58869841794179
 1  1.28712272167217 -0.45551021842184  2.09643477627763
 1 -0.61069973087309 -3.02482994799480  0.13139814211421
 1 -3.07164731003100  2.09504076817682  3.26589657935794
 1 -1.32987420252025  1.67774713861386  3.96072446034603
 1 -1.64687106820682  2.75895971577158  2.72695011681168
 1 -6.46649009990999  2.67135593909391  1.21992422542254
 1 -7.45578534553455  1.40359016821682  1.37662467316732
 1 -7.81473741094109  2.63255933903390  0.41268974917492
 1  1.14389709810981  1.94261629822982  1.70158822612261
 1  0.88529164166417  2.20717753975398  3.38035385958596
 1  1.67464179057906  0.15415606060606 -0.14510987628763
 1  1.98564635683568 -4.86249007940794 -1.90772538223822
 1  0.39808160566057 -4.22258210571057 -1.04363284668467
 1 -8.09297035883588  0.31680191079108 -3.00790672887289
 1  1.34812700160016 -4.53849502920292  1.20350792739274
 1  2.78609487958796 -4.75127233173317  0.65678349324932
 1  4.36419148144815 -3.99914736693669 -2.38696215731573
 1  5.16826792519252 -2.73410226042604 -1.39362297989799
 1  4.60004143724372 -2.36004823742374 -2.89247832143214
 1  4.78885850535054 -0.15662775727573 -1.91773794949495
 1 -9.10593419391939  0.69155661116112 -0.30294298409841
 1 -10.00455858945895  0.41960337603760 -1.78001410141014
 1  3.89658434493449  3.00245362906291  3.79900466616662
 1  6.10820428862886  1.56277842704270 -2.51561037603760
 1  5.20354105390539  5.40514327852785 -0.21006962686269
 1  4.68095011751175  5.57891465716572 -2.08984152905290
 1  3.58325599519952  6.05041464786479 -0.76089783138314
 1  1.44988229632963 -8.25298645574557  1.49265532043204
 1  7.74322676707671  3.08738427832783 -2.77196446974698
 1  6.51743363086309  4.41526703890389 -2.29962231473147

