%nproc=4
%Mem=4GB
# td=(NStates=1) B3LYP/SVP 

TD

0 1
 8 -5.29335556555656  0.17115255485549 -3.36596638633863
 8  2.99600960646065  2.94999225392539  3.05422150055005
 8  3.37699604820482  0.66435183418342  3.05268715381538
 8  1.70700834033403 -7.20536680678068  1.57086559285929
 8  0.72265715371537 -7.01788821242124 -0.47510549344934
 8  1.65691273937394  3.92902602540254  0.09382889028903
 7 -2.33126273737374 -1.06029445964596  0.56856387298730
 7 -4.37406228762876  0.63957162366237 -1.20709906470647
 7  1.86957734933493 -0.80312188518852 -0.40008848644864
 7  2.49686522842284  1.89695544104410 -0.54404115081508
 6 -4.79496588778878  1.19497099409941  0.09253505330533
 6 -4.38492588538854  0.27858802410241  1.23967132483248
 6 -2.87566266186619 -0.02177192049205  1.33885589858986
 6 -1.94540363706371  0.59187414461446  2.13358652825282
 6 -0.72935954625463 -0.03006844234423  1.72495317291729
 6 -0.96239042684268 -1.06040909980998  0.88767058645865
 6 -6.23068542464246  1.45505329462946 -0.17551276667667
 6  0.61276988358836  0.11427210371037  2.50977999809981
 6 -6.64230474497450  1.14507375577558 -1.40899662836284
 6 -0.09200545664566 -2.09485822272227  0.27154923642364
 6  1.05889278547855 -1.99477902450245 -0.30214179637964
 6 -5.43234383468347  0.54028224292429 -2.18229554105411
 6  2.07848193339334 -2.99319985838584 -0.83680068936894
 6 -2.14148984988499  1.58921467836784  3.16602099229923
 6 -7.05968346154615  1.95709383858386  0.92947693359336
 6  3.23525985968597 -2.35863581478148 -1.32027327242724
 6  1.15936196349635  1.48388688208821  2.55278891479148
 6  2.96156423172317 -0.91898052365236 -1.03092708090809
 6  1.61715548574857 -4.40994695909591 -0.92652436933693
 6 -7.98122402840284  1.06277791539154 -2.04725311311131
 6  1.97346491209121 -5.12732366696670  0.36910290579058
 6  4.38718432743274 -2.89613808260826 -1.88487771907191
 6  3.88008887948795  0.13672307580758 -1.36930161256126
 6  2.62850347154715  1.67241482968297  2.88380428032803
 6  3.61484586238624  1.47895330683068 -1.12439900720072
 6 -9.24122910631063  1.10487264756476 -1.42741755705571
 6  1.37053211791179 -6.62344899509951  0.44236289528953
 6  4.53642247684768  2.74652140704070 -1.39106618971897
 6  3.73822309070907  3.87011753545355 -1.15858715301530
 6  2.55654722552255  3.33316116721672 -0.40462922562256
 6  5.75325893119312  2.45650049064907 -1.95290724582458
 6  4.02122774257426  5.28591346714671 -1.22412442584258
 6  6.52753281088109  3.42896858165817 -2.54417889478948
 1 -4.58669315541554  2.11621270137014  0.02371541184118
 1 -4.88029268616862 -0.69226070217022  1.06377112131213
 1 -4.61026786668667  0.60743474317432  2.20415732543254
 1 -2.66861590149015 -1.63922131763176 -0.16737365916592
 1 -3.34647564486449  0.73032494959496 -1.47006455735574
 1  0.29119355405541 -0.20482017001700  3.56037558565857
 1  1.21392540194019 -0.50635530293029  2.11523665646565
 1 -0.42782144304430 -2.98165563056306  0.10135513781378
 1 -3.14188433373337  1.43841510561056  3.32163215291529
 1 -1.77479869496950  1.28304766866687  4.09854824272427
 1 -1.89748612971297  2.57554137393739  2.66927434923492
 1 -6.52123557445745  2.94865366886689  1.50839307230723
 1 -7.21527129412941  1.16610641984198  1.86136314701470
 1 -8.17463340054005  2.28374445754575  0.63374185438544
 1  1.01025373377338  2.04578661526153  1.62111017831783
 1  0.58000111261126  2.01243806580658  3.29817564176418
 1  1.40790511691169  0.19628027302730 -0.47137250255026
 1  1.97506529872987 -5.30089391979198 -1.83744835453545
 1  0.50637243474347 -4.63304315181518 -0.91446993039304
 1 -7.85497655945595  1.29311954255426 -3.19044498269827
 1  1.84274646354636 -4.37225840554055  1.46441401800180
 1  3.08657492759276 -5.26716392089209  0.37389520442044
 1  4.45364042634263 -3.98497594979498 -1.84882834393439
 1  5.59850094849485 -2.30011886208621 -1.33150676827683
 1  4.17411884498450 -2.65816804940494 -3.19446852045205
 1  4.73918353785379 -0.40121221572157 -1.85789196489649
 1 -9.22782638313831  0.82965042054205 -0.34074676447645
 1 -10.03723185678568  1.10678209390939 -2.15832193219322
 1  3.83573826032603  3.07417080078008  3.23856862256226
 1  6.24058752695269  1.42568471767177 -1.88451726672667
 1  4.97856855665566  5.54136690089009 -0.70794941484148
 1  4.26978900140014  5.69686645234523 -2.41747429232923
 1  3.10329799939994  5.79453906030603 -0.76663840544054
 1  1.36260356845685 -8.18730988808881  1.51382743764376
 1  7.52455489988999  2.99811535143514 -2.79087636093609
 1  6.01716360386039  4.51721723392339 -2.85399775227523

