%nproc=4
%Mem=4GB
# td=(NStates=1) B3LYP/SVP 

TD

0 1
 8 -5.28927515751575  0.13925936553655 -3.39897968766877
 8  3.13845385088509  2.83111036573657  3.35413149154915
 8  3.33392174077408  0.61476687568757  3.15979786488649
 8  1.60068770827083 -7.16444271437144  1.46904541084108
 8  0.61743663166317 -6.88935535913591 -0.56249423232323
 8  1.83475052315232  3.95098822162216  0.22062156955696
 7 -2.34852446354635 -0.94119254945495  0.63430044664466
 7 -4.35401028242824  0.48916658315832 -1.22234058885889
 7  1.84846523812381 -0.71001257425743 -0.36414489208921
 7  2.55595113701370  1.88968471397140 -0.59229597629763
 6 -4.86588297949795  1.20668216521652 -0.02383658385839
 6 -4.37528492129213  0.43640380568057  1.29004636233623
 6 -2.95992108770877  0.03506376307631  1.43025503850385
 6 -1.92388148484848  0.62847780498050  2.18518168776878
 6 -0.75503211351135 -0.00455589108911  1.86355703330333
 6 -1.02109629742974 -0.95625868476848  0.86539835923592
 6 -6.31737409350935  1.27192498179818 -0.23731894729473
 6  0.55948455505551  0.20050072657266  2.50451947204720
 6 -6.71429194369437  0.81230047844784 -1.44451017971797
 6 -0.22033828992899 -1.88455719261926  0.20314239573957
 6  1.08686558275828 -1.87107665426543 -0.36594817701770
 6 -5.44855545584559  0.40977919261926 -2.24123143464346
 6  1.89194327952795 -2.90167070547055 -0.93582059135914
 6 -2.07556325722572  1.77614337123712  3.23362775297530
 6 -7.24749224242424  1.95053318251825  0.83997798369837
 6  3.08550488418842 -2.43767371857186 -1.38379962506251
 6  1.17962398969897  1.55619411281128  2.73150678657866
 6  3.09212728802880 -0.94630325592559 -1.07473146134613
 6  1.50257402760276 -4.28706467086709 -0.83898561546155
 6 -7.98345425142514  0.64644628222822 -2.04861324912491
 6  1.80252781838184 -4.99376031063106  0.51791778727873
 6  4.27808341734173 -3.04920338913891 -1.92523175447545
 6  3.86094696529653  0.15079448294830 -1.47969265166517
 6  2.66679730093009  1.59686727492749  3.06358225812581
 6  3.69625400320032  1.53140855235524 -1.14272083938394
 6 -9.18309329272927  0.62570473077308 -1.40803561886189
 6  1.31688675337534 -6.38964561476148  0.31956061506151
 6  4.55826466106611  2.67737449234923 -1.62601968506851
 6  3.90434970337034  3.76936746044604 -1.07614890919092
 6  2.77824939573957  3.22589044014401 -0.37612637533753
 6  5.87977158245825  2.51004584518452 -2.29330128522852
 6  4.28598421822182  5.24592946874687 -1.10834284768477
 6  6.61342139973997  3.63574925972597 -2.75483996089609
 1 -4.47446193229323  2.16917799789979  0.17417045734573
 1 -4.84882953985399 -0.44109558565857  1.42209695389539
 1 -4.78972581248125  1.01818581828183  2.13052996269627
 1 -2.70376941684168 -1.47862525802580  0.03756683488349
 1 -3.41763276057606  0.61395331243124 -1.67667521842184
 1  0.48311274597460 -0.28971865986599  3.61001054915492
 1  1.47007101650165 -0.36199086648665  2.05002013481348
 1 -0.72373103400340 -2.66697416241624  0.04733973627363
 1 -3.11382152745275  2.05239650375038  3.01969195889589
 1 -1.85476669176918  1.58722808670867  4.31872025992599
 1 -1.49382576367637  2.62685650545054  3.06129355115512
 1 -6.59294274517452  2.93987279077908  1.19752198519852
 1 -7.63152291929193  1.31096090529053  1.69188619931993
 1 -7.92100803800380  2.63989007210721  0.31235971617162
 1  1.07495020342034  2.25583762036204  1.80714878217822
 1  0.75087820032003  2.08992581458146  3.54082990719072
 1  1.44087841424142  0.21420206520652 -0.25523088838884
 1  1.91828962116212 -4.95261909230923 -1.80406501620162
 1  0.44750654815482 -4.59560940844084 -1.14295277867787
 1 -7.99820088188819  0.57317754835484 -3.04944088228823
 1  1.22481467036704 -4.33872505220522  1.14810238683868
 1  2.91833810391039 -4.99251645614561  0.62545035993599
 1  4.01644670697070 -4.18407585978598 -2.18495195629563
 1  4.94280537893789 -3.20479933013301 -1.08481209880988
 1  4.82776420952095 -2.41244347694769 -2.71568064166417
 1  4.65820544004400 -0.03812590709071 -2.29341551725172
 1 -9.10673427392739  0.57358481398140 -0.25862855265527
 1 -10.04330246384638  0.63964538023802 -2.03414951495150
 1  4.05334002050205  2.74104748844885  3.75216998269827
 1  6.30527399559956  1.41961411061106 -2.15460427542754
 1  5.27818851865186  5.38636140034003 -0.65688430833083
 1  4.67163918641864  5.60819758545855 -2.12268481338134
 1  3.75759342894289  6.10635024142414 -0.66637837943794
 1  1.26478378647865 -8.05693685078508  1.49331538643864
 1  7.72002444684468  3.46128166806681 -3.19085635893589
 1  6.32810469796980  4.64333984618462 -2.57210956345635

