%nproc=4
%Mem=4GB
# td=(NStates=1) B3LYP/SVP 

TD

0 1
 8 -5.46610284028403 -0.01801636203620 -3.26134592429243
 8  2.99624963046305  3.05566282098210  3.05158123652365
 8  3.40082843144314  0.87909330833083  2.81757364246425
 8  1.76213385288529 -7.22940921102110  1.35662416871687
 8  0.71257614561456 -7.00218664226423 -0.65428341124112
 8  1.90086713481348  4.09042216501650  0.11926143354335
 7 -2.37407701880188 -0.86005443564356  0.58559557615762
 7 -4.48705358675868  0.35294296079608 -1.26969532433243
 7  1.80099049064907 -0.65287686068607 -0.39708818641864
 7  2.64618015991599  1.94846059155916 -0.46031277797780
 6 -4.77744413561356  1.16392788978898 -0.03735793599360
 6 -4.49118651145115  0.37658782408241  1.21678903660366
 6 -2.99531462706271  0.07464772147215  1.40149216221622
 6 -1.96966606330633  0.55044000120012  2.16120929052905
 6 -0.68855546584658  0.00053461796180  1.72239291689169
 6 -1.01785597339734 -0.93035609450945  0.77893971337134
 6 -6.31227358345835  1.43948173747375 -0.19260447584758
 6  0.60639924652465  0.30678135463546  2.55566458655866
 6 -6.75612612711271  0.73571281968197 -1.34479020772077
 6 -0.31593784988499 -1.91050978787879  0.10411249274927
 6  1.01449834603460 -1.85470501710171 -0.34995657785779
 6 -5.56767736803680  0.33797201190119 -2.12714002550255
 6  1.85122920812081 -2.77538807720772 -0.89685669496950
 6 -2.23000870177018  1.57391314821482  3.29250364056406
 6 -7.05628312151215  1.99607773697370  0.87612159805981
 6  3.13277961166117 -2.40058000920092 -1.29755100020002
 6  1.06390241754175  1.73966245964596  2.45474911081108
 6  3.04661273657366 -0.94669329492949 -0.93491747994799
 6  1.42190596079608 -4.30557652205221 -0.96310802770277
 6 -8.12539844584458  0.60821245884588 -1.91449983778378
 6  1.70321788738874 -5.02271320592059  0.34816081158116
 6  4.27951356035604 -3.09690815961596 -1.90152938423842
 6  3.92945381598160  0.08220762426243 -1.28617329972997
 6  2.56671729292929  1.79471705990599  2.82052795269527
 6  3.79731410921092  1.47556296779678 -1.10568713601360
 6 -9.30107509090909  0.68115027532753 -1.18515333063306
 6  1.34611967666767 -6.57070372057206  0.32153081208121
 6  4.66052488708871  2.66254300920092 -1.46102318541854
 6  4.01930119851985  3.72275279897990 -1.03144443874387
 6  2.80194176497650  3.39491734283428 -0.40223898659866
 6  5.93089669496950  2.37436227682768 -2.06551850695069
 6  4.52345796559656  5.21317619341934 -1.02519453285329
 6  6.91715177277728  3.33195888068807 -2.24029850675068
 1 -4.30482496859686  2.09105018511851  0.10379341964196
 1 -5.20729538643864 -0.50257173327333  1.25230997519752
 1 -4.85563240314031  0.78519251895189  2.04340124982498
 1 -2.85249428932893 -1.11917931343134 -0.36431335313531
 1 -3.54286528382838  0.50111202830283 -1.65675322622262
 1  0.43935837053705  0.06804711671167  3.55371491959196
 1  1.31673568296830 -0.40442510991099  2.03752888568857
 1 -0.74051271217122 -3.05181264626463  0.08997399969997
 1 -3.31583172847285  1.65820708480848  3.63950394009401
 1 -1.62645386048605  1.43566293019302  4.18838722662266
 1 -1.99535591669167  2.61052487228723  3.21446886868687
 1 -6.46361981288129  2.73846264976498  1.42907514051405
 1 -7.47932769976998  1.36503631283128  1.54497150785078
 1 -7.94482041924192  2.65789187228723  0.33857233743374
 1  1.16765947434743  2.10313234983498  1.43793186048605
 1  0.34364747724772  2.58634545654565  2.97883370757076
 1  1.58000232663266  0.27908855385539 -0.17048241354135
 1  2.27631542374237 -4.81017484788479 -1.57826243594360
 1  0.37955975347535 -4.09101894939494 -1.19664814821482
 1 -7.95418648044804  0.41578180878088 -3.02943888208821
 1  1.19977216611661 -4.50420159985998  1.15331290789079
 1  2.85022129222922 -4.90767797229723  0.72660047494749
 1  4.08032309460946 -4.31347880008001 -2.22253571467147
 1  5.17995909430943 -3.27837668786879 -1.30946456405641
 1  4.58995042814281 -2.29387161976198 -2.74346341994199
 1  4.96749636913691 -0.31372346684668 -1.78084426012601
 1 -9.49048264876488  0.98389584508451 -0.28352104190419
 1 -10.21655978957896  0.93385480118012 -1.97513361336134
 1  4.02302698919892  2.98352173587359  3.42456722242224
 1  6.04872834103410  1.25657780698070 -2.44829364436444
 1  5.45997669746975  5.42394515871587 -0.45012363226323
 1  4.82208423092309  5.26571333703370 -2.13430597549755
 1  3.61720939053905  5.67502710911091 -0.63030477207721
 1  1.53283059115912 -8.03395455255526  1.15683173807381
 1  7.89860230463046  3.17863340324032 -2.62703997729773
 1  6.65723761126113  4.41271678387839 -1.71410376287629

