%nproc=4
%Mem=4GB
# td=(NStates=1) B3LYP/SVP 

TD

0 1
 8 -5.39808603860386  0.39026446604661 -3.34504429412941
 8  2.95952595809581  2.98736599129913  2.87143322172217
 8  3.35640398899890  0.78545394439444  2.95961784688469
 8  1.46576421592159 -7.01728799889989  1.55231373767377
 8  0.22360724872487 -6.91724814841484 -0.31075905880588
 8  1.70745779387939  3.94993811661166 -0.01162165476548
 7 -2.29104871597160 -0.94477290749075  0.48800581718172
 7 -4.45269015041504  0.69496716321632 -1.29656801160116
 7  1.94646503810381 -0.62834440744074 -0.24012248984898
 7  2.53157869976998  1.86445219071907 -0.56552329902990
 6 -4.70344673587359  1.09645114211421 -0.00333453365337
 6 -4.38060545334533  0.28164833013301  1.23252060976098
 6 -2.83893898949895 -0.02747249054905  1.28431044404440
 6 -1.95875497219722  0.52471742894289  2.13642681228123
 6 -0.63901051135114 -0.00440587608761  1.82285296289629
 6 -1.01209539733973 -0.93588664756476  0.77449926932693
 6 -6.22327468356836  1.22929071837184 -0.17790300570057
 6  0.73372197879788  0.15822649914991  2.50102912301230
 6 -6.80196071057106  0.86466571497150 -1.36698242694269
 6 -0.18855511161116 -1.88350708760876  0.00979306080608
 6  1.24172106830683 -1.89473902050205 -0.29428101030103
 6 -5.59030963126313  0.50664887958796 -2.12346965846585
 6  1.99844392959296 -2.94270480888089 -0.88599560886089
 6 -2.08899460036004  1.52790854775478  3.24526891709171
 6 -7.13920141334133  1.84873300250025  0.92082606850685
 6  3.22616895059506 -2.27809776097610 -1.32503374847485
 6  1.13943997129713  1.65251374477448  2.51472510841084
 6  3.14066214151415 -0.84931355695570 -1.02864685288529
 6  1.62298606880688 -4.37915387978798 -1.06075779267927
 6 -8.16574248024803  0.61526316391639 -1.92457084488449
 6  1.85254281988199 -5.06345728032803  0.28016401190119
 6  4.30934654365437 -2.94433290209021 -1.97373660496050
 6  3.99644051465146  0.13871327482748 -1.43178786118612
 6  2.57848847004700  1.68428601680168  2.85060095999600
 6  3.75456983478348  1.47277268876888 -1.12368893619362
 6 -9.24004898829883  0.46422858315832 -1.22309712501250
 6  1.05032009670967 -6.38391504170417  0.44407306630663
 6  4.73613244784478  2.54858161306131 -1.33338042114211
 6  3.96856612501250  3.79561008470847 -1.03920521482148
 6  2.67622919371937  3.25284313541354 -0.42204096679668
 6  6.01638524382438  2.55847068766877 -1.89088104320432
 6  4.29492511231123  5.16585146094609 -1.02393440684068
 6  6.73293335093509  3.52653833863386 -2.30303478037804
 1 -4.56516100220022  2.15400648074807  0.27286032633263
 1 -4.93151780868087 -0.68186966306631  1.20082482668267
 1 -4.77567440734073  0.68857285698570  1.97030394009401
 1 -2.74634367426743 -1.31938933443344 -0.32362928472847
 1 -3.61754275157516  0.95461737883788 -1.74476202710271
 1  0.83672810751075 -0.28736842484248  3.50238978707871
 1  1.48189219861986 -0.34433910131013  1.74967009980998
 1 -0.85389405030503 -2.90477794279428  0.00356535883588
 1 -3.10397054235424  1.64030529462946  3.64233422312231
 1 -1.47499871497150  1.28511787568757  3.97363575147515
 1 -1.96853323442344  2.54752857265727  2.98504592639264
 1 -6.60798424932493  2.55126392989299  1.54842707570757
 1 -7.45155492249225  1.21614142334233  1.81010802150215
 1 -8.06352228942894  2.23258934203420  0.49055753595359
 1  0.84707741614161  2.15852788938894  1.51253932123212
 1  0.59989310181018  2.18255507750775  3.26974279847985
 1  1.88280260666067  0.36660730573057 -0.20997636293629
 1  2.34964275647565 -4.71844567496750 -1.94298890859086
 1  0.67972977047705 -4.61782162966297 -1.37104558795880
 1 -7.93866492829283  0.39501973257326 -3.01802774097410
 1  1.26522871177118 -4.47748892859286  1.04705228182818
 1  2.87784405450545 -5.37844504900490  0.45149296419642
 1  4.44010907320732 -4.20227767996800 -1.63965742684268
 1  5.36289738813881 -2.64162301250125 -1.55567918551855
 1  4.38788022112211 -2.90973320592059 -3.14402347594759
 1  5.12359197869787 -0.30939303380338 -1.87428360406041
 1 -9.48013161366137  0.31281873737374 -0.11575426522652
 1 -10.24760289388939  0.48056947264726 -1.67520362036204
 1  3.99287397389739  2.99188257195720  3.05440020572057
 1  6.26509997819782  1.40591274047405 -1.78974778977898
 1  5.32274297409741  5.45037780198020 -0.54686330623062
 1  4.54662668516852  5.36240300600060 -2.13369591449145
 1  3.45740340994099  5.83025263166317 -0.64082582418242
 1  1.00545785388539 -7.95365652275227  1.67174322922292
 1  7.68614105850585  3.07636317621762 -2.77954522782278
 1  6.74958684618462  4.51452696489649 -2.28517086958696

