%nproc=4
%Mem=4GB
# td=(NStates=1) B3LYP/SVP 

TD

0 1
 8 -5.44839106910691 -0.05629018941894 -3.28307809750975
 8  3.00292029752975  2.88556581128113  3.56275235363536
 8  3.39791814041404  0.74265966496650  3.17504939003900
 8  1.66814445394539 -7.00958722882288  1.70781928822882
 8  0.80947583558356 -7.08501492509251 -0.46185416831683
 8  1.73718076617662  3.92306542934293  0.17938744614461
 7 -2.29616922802280 -0.96662509270927  0.65074209080908
 7 -4.32359724112411  0.43305097159716 -1.30371872667267
 7  1.77886827842784 -0.67464903790379 -0.52499097669767
 7  2.52683822572257  1.82910865636564 -0.50672741944194
 6 -4.63616000720072  1.13950544754475 -0.06663086328633
 6 -4.29212660546055  0.45838600390039  1.22489984768477
 6 -2.85446054165417  0.07692794949495  1.36369838283828
 6 -1.86442553925393  0.60633559075908  2.17824099369937
 6 -0.63148975927593 -0.01921735723572  1.77666834443444
 6 -1.02335652345235 -1.03521658055806  0.85176699609961
 6 -6.13766612271227  1.38999678897890 -0.22576779217922
 6  0.67221582818282  0.02457313381338  2.55294431453145
 6 -6.64554506900690  0.91382063046305 -1.36573230193019
 6 -0.16077233333333 -2.03087182408241  0.09861194269427
 6  1.12641953815382 -1.87177672427243 -0.38819040124012
 6 -5.40894149444945  0.34733294799480 -2.18336564806481
 6  1.94498858405841 -2.91001153955396 -1.08907591689169
 6 -2.08170387128713  1.76104186108611  3.10945533573357
 6 -6.98282577577758  2.08091622082208  0.90368435433543
 6  3.08561489518952 -2.30365031623162 -1.49197044214421
 6  1.17635366266627  1.48651714511451  2.77229086498650
 6  3.03994206950695 -0.89404803040304 -1.27236122432243
 6  1.53199696989699 -4.42867883228323 -1.00707242414241
 6 -8.00006591259126  0.81198283588359 -2.06493488128813
 6  1.52310987658766 -5.03603453805381  0.50061605710571
 6  4.27903351235124 -2.92628109690969 -2.17064629592959
 6  3.90669153975398  0.10126953045305 -1.50789547194719
 6  2.55438605980598  1.63333092129213  3.15802170207021
 6  3.71831620942094  1.46083149464946 -1.18034460176018
 6 -9.16674165756576  0.99387154745475 -1.51909672497250
 6  1.29745481018102 -6.55567221742174  0.47641630063006
 6  4.44962379697970  2.64816157105711 -1.50926800990099
 6  3.86689595799580  3.80662118581858 -1.02501379567957
 6  2.69111068186819  3.26696454755476 -0.35203396609661
 6  5.69736334163416  2.49986482708271 -2.11023297839784
 6  4.05395101490149  5.21098597439744 -1.11368338173817
 6  6.52452250985098  3.52204788958896 -2.60082455935594
 1 -4.38073255935593  2.21397247734774 -0.00181714141414
 1 -4.96033068996900 -0.38822029812981  1.24300904510451
 1 -4.64256109600960  1.17300129982998  2.18880579027903
 1 -2.55091413131313 -1.57166456195620 -0.29684660646065
 1 -3.37133813111311  0.66197811491149 -1.52269982088209
 1  0.38606304100410 -0.44919460746075  3.61566111421142
 1  1.42505651505150 -0.45290995839584  1.89623475627563
 1 -0.57355601650165 -2.86606407140714 -0.02267726542654
 1 -3.06708685398540  2.07236850095010  3.49493948364836
 1 -1.57452866796680  1.62763212711271  4.07755614351435
 1 -1.57405378647865  2.60657447724773  2.31031845364536
 1 -6.32941639253925  2.64802360586059  1.44219645264526
 1 -7.74117388438844  1.37303711291129  1.47832484318432
 1 -7.58822475967597  2.63103918701870  0.56305478567857
 1  1.07928063646365  2.30550258685869  2.04647271457146
 1  0.60678379087909  2.17564438643864  3.51703752795280
 1  1.29237356375638  0.36133677867787 -0.21046641194119
 1  2.24442223442344 -5.21139496989699 -1.56491110081008
 1  0.71045284278428 -4.54586443394339 -1.27330581398140
 1 -8.06368743054306  0.53580381098110 -3.18592453065307
 1  0.41622381128113 -4.30223140284028  0.78153573017302
 1  2.45789205930593 -4.77339454395440  1.26214402930293
 1  4.20187524982498 -3.96157360956096 -2.41620508160816
 1  5.23616471487149 -2.68697754795480 -1.69858347594760
 1  4.34229566266627 -2.46612884548455 -3.15070414401440
 1  4.74948456795680 -0.14391648614861 -2.25207138283828
 1 -9.33944754525453  1.34497195269527 -0.49741243104310
 1 -10.19165729932993  0.74842625832583 -1.91818791879188
 1  4.05129981648165  2.71114449814981  3.64907967366737
 1  6.01272474067407  1.50528267746775 -2.28047686268627
 1  4.96224692449245  5.53278604280428 -0.52788140804080
 1  4.18325034753475  5.63081984768477 -2.08328087298730
 1  3.24560222982298  5.83728333473347 -0.85727746934693
 1  1.42214952305230 -8.02855401250125  1.82922897779778
 1  7.40524296869687  3.39777531743174 -3.00547782108211
 1  6.16504839233923  4.67752326452645 -2.56252860536054

