%nproc=4
%Mem=3GB
# td=(NStates=1) B3LYP/SVP 

TD

0 1
 8 -3.31845875607561 -1.34246930243024 -2.87017767206721
 8  3.23297375217522  3.06075773427343  3.14927919881988
 8  3.64901921012101  1.44895202350235  4.61684612821282
 8  7.78476707960796 -1.22198831303130 -0.96697745954595
 8  6.69952410881088 -3.04411520642064 -1.93717016511651
 8 -2.65684659115912  1.52946843594359  1.31271133163316
 7 -0.27510325652565 -2.35195150945095  0.99633447424742
 7 -2.59490152815281 -1.28954408940894 -0.63186533113311
 7  1.20906245564556  0.00969187888789 -0.71548648584858
 7 -0.92169131463146  1.41875728362836 -0.24373527142714
 6 -3.34291944164416 -1.41933949634964  0.62325929982998
 6 -2.71352997909791 -2.42968711491149  1.55688099489949
 6 -1.27499314101410 -2.13008082208221  1.85086307490749
 6 -0.58414821712171 -1.25035622732273  2.79534755525553
 6  0.74865597819782 -1.13860886188619  2.47273846844684
 6  0.96361904810481 -1.88663509820982  1.26157096109611
 6 -4.75248019461946 -1.83345899459946  0.27923481078108
 6  1.81440603200320 -0.28935926552655  3.30223237773777
 6 -4.84266062746275 -1.81212992139214 -1.05568590909091
 6  2.09641759815982 -1.84551274347435  0.32861514021402
 6  2.08962498439844 -0.91588350055005 -0.65980988248825
 6 -3.51540621052105 -1.55073703900390 -1.65428271167117
 6  2.93444450765077 -0.80138088638864 -1.82978687758776
 6 -1.31031960416042 -0.54402825982598  3.87387289558956
 6 -5.78251347544755 -2.06943342364236  1.40588159375938
 6  2.55010466736674  0.34164153235324 -2.53210782078208
 6  1.92189162156216  1.12816850885089  2.90039668126813
 6  1.39397276377638  0.85311195979598 -1.82501860786079
 6  4.19501485058506 -1.51610103920392 -2.03293292339234
 6 -5.97422175827583 -2.24789688008801 -2.02227567576758
 6  5.36740229122912 -1.10272201740174 -1.18830224712471
 6  3.18915901130113  1.07281568416842 -3.68075458465847
 6  0.55358778287829  1.93999914681468 -1.98596034113411
 6  2.99350799109911  1.89849943544354  3.60438578377838
 6 -0.56181001260126  2.24716934913491 -1.20833612151215
 6 -6.95252917941794 -3.07054081818182 -1.74882344104410
 6  6.67873744334433 -1.87272552765277 -1.43403409340934
 6 -1.47755641044104  3.47636987018702 -1.29938801350135
 6 -2.43059714911491  3.21575205420542 -0.37154506070607
 6 -2.02558483088309  1.94682561606161  0.36663559555956
 6 -1.24615459385939  4.60262652285228 -2.26430819881988
 6 -3.47502813931393  4.19266974987499  0.25676991669167
 6 -1.85699959115912  5.73984940314031 -2.24993872667267
 1 -3.26096458965897 -0.19470496039604  1.00817502210221
 1 -2.56904853125313 -3.43491861686169  1.05182553165317
 1 -3.24498431823182 -2.35740918531853  2.49424881358136
 1 -0.18954425922592 -2.91565033013301  0.16074308430843
 1 -1.88241663136314 -0.58253455695570 -0.77423152555256
 1  1.76495445684568 -0.39156060986099  4.42975507460746
 1  2.96260359325933 -0.59533142444244  3.09021395079508
 1  2.74377319121912 -2.82859444234423  0.38094114731473
 1 -1.82060468976898 -1.18570784478448  4.59622668446845
 1 -0.54014378237824 -0.04990919451945  4.43157951445145
 1 -2.23626294009401  0.22621506820682  3.42161092639264
 1 -5.34461524872487 -1.36689482068207  2.19709400240024
 1 -5.75644440514051 -3.07313141774177  1.94021686798680
 1 -6.82664004080408 -1.69697534093409  1.03588995069507
 1  1.95539167856786  1.44755469736974  1.73507111841184
 1  0.93443339483948  1.69271151545154  3.09602757645765
 1  0.22363062066207  0.27237160696070 -0.21562359465947
 1  4.50237595679568 -1.52269532853285 -3.04756035793579
 1  4.16608743854385 -2.67520930013001 -1.94281138913891
 1 -5.69361149954995 -2.04626555115512 -3.05655911971197
 1  5.26004392569257 -1.03464394429443 -0.01639841614161
 1  5.56970841214121 -0.24887188328833 -1.33522800530053
 1  4.04476438793879  0.67515400750075 -4.42205043454345
 1  3.59102485408541  2.11545262396240 -3.36161849724973
 1  2.51245703500350  1.22388688658866 -4.36739989198920
 1  0.72179608960896  2.49484098059806 -2.93251414341434
 1 -7.09928901500150 -3.20574275817582 -0.59881890309031
 1 -7.71145941084108 -3.26463779427943 -2.48190124362436
 1  3.95463919141914  3.42390175117512  3.76487974217422
 1 -0.20036391519152  4.61974325382538 -2.98381627702770
 1 -4.39879846944694  4.23037961976198 -0.46503765526553
 1 -4.01507025672567  3.59615440904090  0.89114992639264
 1 -3.10905922212221  5.09537982908291  0.87068283818382
 1  8.62067776127613 -1.81574472867287 -1.08676931193119
 1 -1.47225014961496  6.51064152125213 -2.85797064926493
 1 -2.71644399729973  6.04243561936194 -1.62465837333733

