%nproc=4
%Mem=3GB
# td=(NStates=1) B3LYP/SVP 

TD

0 1
 8 -3.23429033923392 -1.46231128662866 -2.92467312161216
 8  3.10641109590959  3.12411406990699  3.09312358325833
 8  3.64897920612061  1.31444857315732  4.36245068866887
 8  7.66610521342134 -1.40691680588059 -0.72016277807781
 8  6.57891204760476 -2.96256705160516 -1.90778722682268
 8 -2.58175908240824  1.63394888398840  1.57696775727573
 7 -0.32522826902690 -2.35371168546855  0.89291413221322
 7 -2.64831686968697 -1.13933906890689 -0.65593773837384
 7  1.05347689708971  0.00447135683568 -0.78596353355336
 7 -0.85989513501350  1.44067947584758 -0.01296219411941
 6 -3.28038318801880 -1.22783034543454  0.64152112601260
 6 -2.66932555865587 -2.24220836703670  1.66192149894989
 6 -1.13073871557156 -1.99383719771977  1.85014300290029
 6 -0.58462826512651 -1.19544073577358  2.80376839733973
 6  0.74511562416242 -1.09964496549655  2.41970316491649
 6  0.99597228342834 -1.78292472717272  1.24715951995200
 6 -4.70805575217522 -1.87567321602160  0.15955284258426
 6  1.82705729712971 -0.36645697529753  3.08908106260626
 6 -4.82673903530353 -1.99756846524652 -1.18312865336534
 6  2.13999195559556 -1.83902209440944  0.34112639133913
 6  2.03741976387639 -0.91188310051005 -0.71083498499850
 6 -3.48873354325432 -1.55786775207521 -1.69784706810681
 6  3.02934399759976 -0.71194194249425 -1.75377927682768
 6 -1.30406897909791 -0.58067192419242  3.86732224052405
 6 -5.86030125422542 -2.08400488078808  1.17897890349035
 6  2.55030468736874  0.41253862206221 -2.52930754075408
 6  1.88437787018702  1.12333802580258  2.66371301290129
 6  1.33126649314932  0.81108775737574 -1.85856196219622
 6  4.17121247034703 -1.58934836393639 -1.91327095719572
 6 -5.77157149324932 -2.64764685508551 -2.09221266946695
 6  5.33716926792679 -1.00457220242024 -1.13448686558656
 6  3.06263635903590  0.99376777937794 -3.78150465966597
 6  0.46254867896790  1.93603875077508 -2.02040378547855
 6  2.97889652995300  1.87304689018902  3.47303264846485
 6 -0.53327715931593  2.27646227842784 -1.13582887078708
 6 -7.01150507700770 -3.26945070917092 -1.71200975967597
 6  6.64306387598760 -1.93260151525153 -1.39242993299330
 6 -1.40937959275928  3.51959419261926 -1.18028610331033
 6 -2.33260735013501  3.40633111211121 -0.08297620382038
 6 -1.97169944234423  2.10278121162116  0.53028196019602
 6 -1.22711268966897  4.48978523872387 -2.18468023602360
 6 -3.40175081158116  4.33410389328933  0.40286452615262
 6 -1.85100899209921  5.71454687288729 -2.25459919271927
 1 -3.29603809700970 -0.29541503140314  1.24088829342934
 1 -2.73816544294430 -3.17183230823082  1.20626097519752
 1 -3.00299011881188 -2.13185663006301  2.83632302100210
 1 -0.49781508630863 -3.03168193329333  0.12866987698770
 1 -1.85343373307331 -0.47475377887789 -0.77310141254125
 1  1.63430139153915 -0.39765121892189  4.10555265436544
 1  2.86719405230523 -0.59941183248325  3.01332626202620
 1  2.70289910381038 -2.79241082398240  0.29652270547055
 1 -2.01855448474847 -1.27361663566357  4.51747880968097
 1 -0.58096786478648 -0.01672587618762  4.42314867136714
 1 -1.73617293109311  0.28283072977298  3.35666443174317
 1 -5.60466125332533 -1.09749788098810  1.86158045104511
 1 -5.62038079877988 -2.92094619921992  1.75418826512651
 1 -6.91861923872387 -2.05968161156116  0.80365672737274
 1  1.86226236563656  1.19014895679568  1.63687129842984
 1  1.10502045354535  1.53392563686369  3.07978595229523
 1  0.21472973057306  0.33761813161316 -0.32272430473047
 1  4.46263198239824 -1.65994905390539 -2.92521812371237
 1  4.07987881768177 -2.61921370057006 -1.44780188818882
 1 -5.44059619801980 -2.47144806940694 -3.12623608740874
 1  5.15196311761176 -0.90694117401740 -0.14355113141314
 1  5.79522096339634 -0.07809480558056 -1.51881636413641
 1  3.86426633813381  0.39449594169417 -4.26676490599060
 1  3.46066181778178  2.06439751845185 -3.76659899529953
 1  2.07139292859286  1.04731922982298 -4.47422057405741
 1  0.67432134213421  2.54272576907691 -2.83416430843084
 1 -7.13388247434743 -3.15706789068907 -0.65429445064506
 1 -7.67806607150715 -3.77090842134213 -2.32610566406641
 1  4.03644737223722  3.33034239523952  3.46514976917692
 1 -0.27296117491749  4.29205048454846 -2.87849574497450
 1 -3.98919750935094  4.55001158295830 -0.73419457095710
 1 -4.02165091479148  3.80665545914591  1.09341015241524
 1 -2.90632894909491  5.21831212231223  0.96859262916292
 1  8.63309900340034 -1.77839099329933 -1.10483111811181
 1 -1.71817474207421  6.30787124422442 -3.16981183338334
 1 -2.33992634553455  6.02275365116512 -1.40276618411841

