%nproc=4
%Mem=3GB
# td=(NStates=1) B3LYP/SVP 

TD

0 1
 8 -3.10144705490549 -1.53375843134313 -2.80204085838584
 8  2.81228168296830  3.23795545404540  3.14502877377738
 8  3.48057236543654  1.59918704700470  4.50638508210821
 8  7.66507511041104 -1.68392450665067 -0.75970673247325
 8  6.60786494289429 -2.95823661856186 -2.24855130323032
 8 -2.67831873837384  1.61887737683768  1.41662172267227
 7 -0.30813655985599 -2.39984629892989  0.93680852165217
 7 -2.73725576357636 -1.17899303430343 -0.53076522112211
 7  1.07050860026003  0.02505341504150 -0.83510844804480
 7 -1.05091423692369  1.47465287318732 -0.26121701960196
 6 -3.29345449514951 -1.34382194459446  0.66637361126113
 6 -2.62986161226123 -2.32161630783078  1.63709901670167
 6 -1.20896653835384 -2.07902571657166  1.84162215081508
 6 -0.52025182748275 -1.33178437013701  2.90553857435744
 6  0.88518963156316 -1.17816281728173  2.44136533113311
 6  1.02607529372937 -1.95600203490349  1.26482128612861
 6 -4.73549849644965 -1.86545219391939  0.27176406370637
 6  1.92595718711871 -0.47541787138714  3.17329948444845
 6 -4.74754111551155 -2.03471217961796 -1.02630297079708
 6  2.04477243364336 -1.94117230943094  0.21078335703570
 6  2.10135615751575 -0.86437835003500 -0.73744764626463
 6 -3.45011968186819 -1.54972693799380 -1.71356864026403
 6  2.99938100130013 -0.62569331763176 -1.77092099099910
 6 -1.12253082528253 -0.56503036003600  3.84685019331933
 6 -5.85211043514351 -1.96091257155716  1.26372737833783
 6  2.54240389728973  0.51928929712971 -2.43046765676568
 6  1.87329676207621  1.00147583958396  2.78659530113011
 6  1.33866723322332  0.90184683328333 -1.81169727572757
 6  4.15570091919192 -1.54005343444344 -2.04983461356136
 6 -5.75000933703370 -2.51724381478148 -1.96188963716372
 6  5.38844439543954 -1.22634437963796 -1.17686110301030
 6  3.13288338373837  1.24016241884188 -3.71801831103110
 6  0.54997742184218  2.02068721562156 -2.06911865696570
 6  2.82182082238224  1.93929351485149  3.58547389258926
 6 -0.63026685828583  2.28077270947095 -1.28270355825583
 6 -6.78912283878388 -3.44887865196520 -1.70032859155916
 6  6.55260483008301 -2.13276153125313 -1.31484217421742
 6 -1.42989164396440  3.53164539773977 -1.34266234093409
 6 -2.26638072747275  3.45046552555256 -0.20791869806981
 6 -2.11716398879888  2.15052598609861  0.38921785378538
 6 -1.18128810721072  4.68784504470447 -2.17223899189919
 6 -3.16545718221822  4.46086656955696  0.39723396309631
 6 -1.82147603880388  5.81521693989399 -2.28971270407041
 1 -3.36794528772877 -0.47249273917392  1.27079128372837
 1 -2.70639226562656 -3.47158228322832  1.32343269236924
 1 -3.13022284208421 -2.28609205360536  2.56630601930193
 1 -0.63961926672667 -2.87588635373537  0.05919292929293
 1 -2.06199458915892 -0.41583788728873 -0.59284338673867
 1  1.95877383878388 -0.45540699449945  4.26209830893089
 1  2.87087442034203 -1.09604149544954  3.14190912031203
 1  2.88152696659666 -2.65622720562056  0.29192224542454
 1 -1.90381301060106 -1.15037431143114  4.42162922472247
 1 -0.39184895289529 -0.16924112771277  4.67818417491749
 1 -1.79020833463346  0.35642808950895  3.51839060436044
 1 -5.67120790799080 -1.07965609680968  2.13161745474547
 1 -5.73163192389239 -2.93125723032303  1.99520236653665
 1 -6.77204458125813 -1.84216986038604  0.68774513621362
 1  1.85941208060806  1.17705764766477  1.74609222052205
 1  0.90683063456346  1.51423366766677  3.00550852455246
 1  0.46569482708271  0.18755312511251 -0.21425345764577
 1  4.49685540474047 -1.40975403440344 -3.09619522142214
 1  4.07631846164616 -2.56482826202620 -1.95470257825783
 1 -5.63886602500250 -2.33465439003900 -2.94671813561356
 1  5.13838175947595 -1.10962144204420  0.03600682438244
 1  5.66216765806581 -0.26264326042604 -1.37273175567557
 1  3.98158807030703  0.64100059215922 -4.07634586408641
 1  3.61704745634564  2.11420249894989 -3.55490782618262
 1  2.35444123342334  1.31766626452645 -4.46870002200220
 1  0.78519242924292  2.78009950645065 -2.80871176317632
 1 -6.75460454655466 -4.04636682058206 -0.86172519371937
 1 -7.46940520542054 -3.61173250375037 -2.55529858335834
 1  3.41371509900990  3.64364372537254  3.96540979517952
 1 -0.42063594239424  4.59960123962396 -2.95706360176018
 1 -3.95475406500650  4.95433201500150 -0.30737188868887
 1 -3.59420817051705  3.88027282088209  1.32442325372537
 1 -2.61654997119712  5.23177346844685  0.78179394929493
 1  8.50507620112011 -1.98955210941094 -0.87133776877688
 1 -1.47391031563156  6.59356981408141 -3.03910876307631
 1 -2.66387874077408  6.10019139493949 -1.58397430493049

