%nproc=4
%Mem=3GB
# td=(NStates=1) B3LYP/SVP 

TD

0 1
 8 -3.37984489468947 -1.43386844234423 -2.84141479577958
 8  3.00248070287029  3.03702536103610  3.10876514741474
 8  3.67155146334633  1.33526065436544  4.48363280688069
 8  7.71084968786879 -1.37987410161016 -0.63101386318632
 8  6.70767492389239 -2.96232702760276 -1.92319876797680
 8 -2.61542244874487  1.58569405850585  1.41012107260726
 7 -0.23496924312431 -2.45767208150815  0.83620846164616
 7 -2.64603664166417 -1.17589272427243 -0.66721886648665
 7  1.05193674307431  0.00493140284028 -0.82672760996100
 7 -0.97775692119212  1.54039944784478 -0.17968886678668
 6 -3.34816996669667 -1.25214277667767  0.65525249914992
 6 -2.69214784088409 -2.28045219141914  1.55826113291329
 6 -1.17885352705271 -2.01078889288929  1.69750773937394
 6 -0.56014581688169 -1.19919111081108  2.73904192469247
 6  0.75171628422842 -1.22498749974997  2.48768996359636
 6  0.99985267146715 -1.98813524822482  1.22552735673567
 6 -4.76546149274928 -1.79941559025903  0.28409529682968
 6  1.90592518391839 -0.50693102270227  3.17096925142514
 6 -4.86413277467747 -1.98469717811781 -1.01442178267827
 6  2.07001495789579 -1.94406259845985  0.28322060076008
 6  2.17980400230023 -0.93178509070907 -0.67303120462046
 6 -3.59735440534053 -1.45088705400540 -1.68538582198220
 6  3.11571263446345 -0.65157590589059 -1.80680457935794
 6 -1.28677724992499 -0.50373423042304  3.93360886918692
 6 -5.73490871497150 -2.11847832813281  1.41084208980898
 6  2.63790344724472  0.45812318051805 -2.46658126812681
 6  1.94409384178418  0.97448314031403  2.77712435403540
 6  1.34247761426143  0.92873952255226 -1.83311941794179
 6  4.33042839193919 -1.51994142324232 -2.13205283538354
 6 -6.00581491759176 -2.37135922632263 -1.89384283248325
 6  5.40752630363036 -1.00075182038204 -1.19323274017402
 6  3.19624972037204  1.12806120872087 -3.60245675487549
 6  0.51067349144914  1.96998214511451 -2.07931967706771
 6  2.94604324462446  1.79179876537654  3.58988433363336
 6 -0.53315714731473  2.27474210641064 -1.25712100000000
 6 -6.98206213271327 -3.22486625072507 -1.51511006970697
 6  6.64702427202720 -1.85587384248425 -1.31768245824582
 6 -1.38539719451945  3.52918515171517 -1.26334440914091
 6 -2.29783387278728  3.39148962796280 -0.34343224942494
 6 -2.01508378077808  2.02987392089209  0.44423335533553
 6 -1.20630060846085  4.54817107730773 -2.27267903590359
 6 -3.41064170067007  4.30539102200220  0.21954619431943
 6 -1.99391328252825  5.66803222142214 -2.35535926872687
 1 -3.30013850705070 -0.45396088598860  1.24424862946295
 1 -3.03111473787379 -3.31750687568757  1.13013336243624
 1 -3.14262408220822 -2.21667511191119  2.52573196189619
 1 -0.43953925872587 -2.90180894599460 -0.03098608860886
 1 -1.87560595029503 -0.52331863536354 -0.70215431783178
 1  1.66880484188419 -0.69296074987499  4.19602170127013
 1  2.92480981388139 -0.89080097139714  2.74758968836884
 1  2.89576839073907 -2.59341092399240  0.17670072327233
 1 -1.96342897219722 -1.12794206820682  4.53610067186719
 1 -0.63379314731473 -0.19305350895090  4.54592094859486
 1 -1.79074838863886  0.23551599829983  3.43152191749175
 1 -5.28883967116712 -1.56823495469547  2.19106339933993
 1 -5.89135789648965 -3.09152325692569  1.54456730303030
 1 -6.82484986178618 -1.67541318471847  1.06793315501550
 1  2.22015815521552  1.09806974887489  1.75484309560956
 1  0.90542049354936  1.37894013831383  2.96249422312231
 1  0.40040829842984  0.16931130093009 -0.24710674297430
 1  4.89009472867287 -1.29102216121612 -3.20570617251725
 1  3.96073690349035 -2.54935671487149 -2.13712082008201
 1 -5.92019415781578 -1.89095001960196 -3.01949541334133
 1  5.13954187548755 -1.35100558045805 -0.17581435773577
 1  5.32087352865287  0.15037804170417 -1.23418790129013
 1  3.96817672917292  0.50685717781778 -4.07601583108311
 1  3.65770152175218  2.25611669036904 -3.40668300370037
 1  2.31032682198220  1.42558705660566 -4.23894704670467
 1  0.80199410941094  2.78054955145515 -2.72252314431443
 1 -6.94057314341434 -3.59455163906391 -0.45115413661366
 1 -7.79158742364236 -3.39027035753575 -2.23450650415042
 1  3.59159288678868  3.66967632863286  3.77729098329833
 1 -0.36690056885689  4.53588486798680 -3.06452434783478
 1 -4.32195078467847  4.27465404720472 -0.37682883438344
 1 -3.69084783448345  3.75822061566157  1.12574338573857
 1 -3.03521183738374  5.49126941804180  0.27674344424442
 1  8.51329702320232 -1.96683983818382 -0.64170480548055
 1 -2.06474939953995  6.11645210231023 -3.36010086228623
 1 -2.93418577147715  5.83928530433043 -1.81082699019902

