%nproc=4
%Mem=3GB
# td=(NStates=1) B3LYP/SVP 

TD

0 1
 8 -3.22121903210321 -1.24859991549155 -2.85340599489949
 8  3.00086054085409  3.17660931943194  3.04330860176018
 8  3.54720902910291  1.51559868816882  4.35843028662866
 8  7.70302890579058 -1.72928904310431 -0.75492625442544
 8  6.68260241664166 -3.02755355025503 -2.23174962306231
 8 -2.70151105760576  1.64008949804980  1.41326138663866
 7 -0.19544529072907 -2.45932224652465  0.92489733053305
 7 -2.64130616861686 -1.16375151015101 -0.57703984858486
 7  1.16396794619462  0.06955786548655 -0.64620955815582
 7 -0.95930507600760  1.50409581748175 -0.09930082798280
 6 -3.41151630133013 -1.39726728912891  0.68482545644564
 6 -2.54442306840684 -2.45186933313331  1.55610091689169
 6 -1.19105474717472 -2.09795760976098  1.73718170677068
 6 -0.60798060036004 -1.27962915461546  2.85805382588259
 6  0.86716782938294 -1.22762776377638  2.61915310991099
 6  1.00205289148915 -1.91480791549155  1.30369517351735
 6 -4.75679062566257 -1.85347099579958  0.25767265456546
 6  1.87707229862986 -0.28632896249625  3.24927708220822
 6 -4.76257261866187 -1.91402011041104 -1.08199854035404
 6  2.12769072547255 -1.98713690589059  0.34138641734173
 6  2.15425144704470 -0.85353726592659 -0.59981388288829
 6 -3.51085575547555 -1.46780874617462 -1.67520480388039
 6  3.05264632783278 -0.67849859815982 -1.72084598349835
 6 -1.16795536773677 -0.52008586558656  4.00493600190019
 6 -5.82355757985799 -2.17738421872187  1.21694269986999
 6  2.58843850075007  0.46066343454345 -2.43956856685669
 6  1.86711614401440  1.10837652965297  2.80740738233823
 6  1.40404377087709  0.95300194879488 -1.65318142414241
 6  4.22977832693269 -1.55408483758376 -2.11286091619162
 6 -5.80261459755976 -2.42052414281428 -2.03682713091309
 6  5.34876042704270 -1.18219996519652 -1.20005342224222
 6  3.15953604900490  1.17649605220522 -3.66181269046905
 6  0.55387781188119  2.06483163006301 -1.92252399749975
 6  2.84064270457046  1.98030761626163  3.50929627482748
 6 -0.54121795339534  2.34165879807981 -1.10871615951595
 6 -6.95233916041604 -3.05585935003500 -1.71537009570957
 6  6.64145371497150 -2.07984623972397 -1.53989467946795
 6 -1.44740339513951  3.52526475967597 -1.21939001370137
 6 -2.35060915031503  3.38376885588559 -0.16942484868487
 6 -2.04037631003100  2.06830776427643  0.49065799779978
 6 -1.22092207060706  4.50367662786279 -2.27281904990499
 6 -3.60479111561156  4.16767725062506  0.11668590829083
 6 -1.97532142334233  5.66838225642564 -2.41442517531753
 1 -3.31706019921992 -0.35018050795080  1.29621382598260
 1 -2.69278090449045 -3.44395952095210  1.03543389248925
 1 -3.07330715051505 -2.69129257365737  2.48720810951095
 1 -0.24249955475548 -2.97389615471547  0.09075608560856
 1 -2.03968235793579 -0.40961726522652 -0.68848295069507
 1  1.82330029142914 -0.30932238603860  4.36119821892189
 1  2.80554788768877 -0.74311620292029  3.16094102350235
 1  2.84187300120012 -2.79471105400540  0.41371442464246
 1 -2.06985961526153 -1.08212748674868  4.55748281008101
 1 -0.50565033303330 -0.08440264386439  4.46010236673667
 1 -1.71972128592859  0.50871331803180  3.65840460576058
 1 -5.60946173337334 -1.73215134633463  2.23131742474247
 1 -5.93561232193219 -3.47313141774177  1.36310915721572
 1 -6.65343272007201 -1.62296794019402  0.84039040074007
 1  1.97706384578458  1.02816275817582  1.66074368566857
 1  0.92668261976198  1.77420966526653  2.87555552925293
 1  0.40003826142614  0.16900126992699 -0.08893092539254
 1  4.52759847904790 -1.61053411241124 -3.20630623252325
 1  4.23554438423842 -2.68951073027303 -1.82960006800680
 1 -5.47460959935994 -2.34047497209721 -3.08984244804480
 1  5.07890581188119 -1.47142762266227 -0.16880365666567
 1  5.76998844014401 -0.26314331043104 -1.57411189368937
 1  4.05405531703170  0.70922741484148 -4.05292352185219
 1  3.49668542014201  2.12574365306531 -3.24670700610061
 1  2.39988577787779  0.99562406030603 -4.48318147014701
 1  0.90668457845785  2.66602809930993 -2.76162705470547
 1 -7.30165925202520 -3.28649083298330 -0.67628664986499
 1 -7.56125439033903 -3.27174850535054 -2.59418247174717
 1  3.59755348284828  3.91812117311731  3.56957021122112
 1 -0.49595347414741  4.19352063156316 -2.97391528692869
 1 -4.20474906450645  4.38788537033703 -0.79143029452945
 1 -4.19750850055006  3.55842063566357  1.04972578397840
 1 -3.34499281548155  5.14848513961396  0.57100287018702
 1  8.60187588108811 -2.07727088128813 -1.05798643364336
 1 -1.92515544014401  6.37634809190919 -3.12821767396740
 1 -2.80105245814581  5.87642901870187 -1.59300520802080

