%nproc=4
%Mem=4GB
# td=(NStates=1) B3LYP/SVP 

TD

0 1
 8 -5.08420465046505  0.32742818241824 -3.37042683238324
 8  3.17415742124212  2.75190244494449  3.17864394279428
 8  3.48267661626163  0.58249364836484  2.90340222532253
 8  1.42344998449845 -7.05299156925693  1.69290779707971
 8  0.86078096609661 -7.07461388498850 -0.61276925982598
 8  1.59412646074607  4.03784690749075  0.13075258265827
 7 -2.33713332443244 -0.95424385458546  0.61534855145515
 7 -4.25888076947695  0.54436210271027 -1.20754910971097
 7  1.77703809540954 -0.66764833783378 -0.46416489408941
 7  2.39743528542854  1.89881562706271 -0.43990073677368
 6 -4.73680007120712  1.15963746074607 -0.02267646784678
 6 -4.40211760456046  0.30705087038704  1.34202155985599
 6 -2.98057315291529  0.03697395409541  1.44868688168817
 6 -1.84388348504850  0.61601655885589  2.26343951355135
 6 -0.66337294759476  0.00663522802280  1.79855053265327
 6 -0.90574476227623 -0.96729978887889  0.80953277267727
 6 -6.21089344544454  1.38519630893089 -0.13798901430143
 6  0.66432503910391  0.21386206270627  2.49418843894389
 6 -6.53924443894389  0.89573882228223 -1.40148587728773
 6 -0.19084534063406 -1.99941867876788  0.18451053255326
 6  1.03140003620362 -1.82738228482848 -0.41131271347135
 6 -5.21643224352435  0.61625984068407 -2.22624993649365
 6  1.95604969016902 -2.91438197659766 -0.90164717401740
 6 -2.15165086598660  1.62764852175218  3.19707409760976
 6 -7.14449194239424  1.85189331853185  0.96519050495050
 6  3.11966830053005 -2.29680963216322 -1.36734797989799
 6  1.19722574987499  1.62384087748775  2.70663429932993
 6  2.98535661096110 -0.96318494409441 -1.01883587178718
 6  1.63382715291529 -4.36654261866187 -0.86279799669967
 6 -7.74426033203320  0.84373601120112 -2.08331671947195
 6  1.69131669726973 -5.11483241784178  0.51769776527653
 6  4.35707131613161 -2.99550801960196 -1.91135036633663
 6  3.83054392499250  0.15962536603660 -1.25954063646365
 6  2.74697531873187  1.55298288648865  2.86838273817382
 6  3.51753613141314  1.51372678417842 -1.05662222952295
 6 -9.00927591099110  0.78238039833983 -1.63367818311831
 6  1.27269233393339 -6.49473612381238  0.40952961196120
 6  4.42680151475148  2.60244699959996 -1.43389047214721
 6  3.75290455885589  3.75481600530053 -1.06792808710871
 6  2.38076964776478  3.33896174727473 -0.36185494819482
 6  5.56299990529053  2.43209805040504 -2.23857581268127
 6  4.13270889068907  5.16207108290829 -1.02308432183218
 6  6.36858691629163  3.46204188898890 -2.82549702660266
 1 -4.05318980508051  2.09342042214221  0.23074611491149
 1 -4.72109676657666 -0.87426890299030  0.97488223242324
 1 -4.97150399029903  0.61136513621362  2.22061897159716
 1 -2.71083012291229 -1.24018141364136 -0.27934485628563
 1 -3.36940793809381  0.71257317441744 -1.54576212711271
 1  0.57941237593759 -0.40716040404040  3.45150469856986
 1  1.48625263466347 -0.33340800820082  1.91755688848885
 1 -0.62124078497850 -3.12500996599660 -0.01702670037004
 1 -3.33077322262226  1.82657392149215  3.43113310301030
 1 -1.45052626772677  1.42126149004901  4.11921030893089
 1 -1.84381076217622  2.74798861866187  2.87691511331133
 1 -6.57866131703170  2.43967277077708  1.68258049104911
 1 -7.66791655865587  0.94818462766277  1.40494750545054
 1 -7.85598153535354  2.59758584168417  0.66918539873987
 1  0.86492920132013  2.38669070567057  1.91973004030403
 1  0.95626873937394  2.39830665266527  3.60585640984098
 1  1.57929225562556  0.46724736973697 -0.33319868516852
 1  2.24120191239124 -5.06024985538554 -1.35073968366837
 1  0.60887268476848 -4.56430627812781 -1.35176365976598
 1 -7.56947800960096  0.63461369196920 -3.11650758895890
 1  1.00280246914691 -4.49302048174817  1.34260183678368
 1  2.56457272737274 -4.81182838733873  0.83399121402140
 1  4.29729479177918 -3.92972042424242 -2.00912437353735
 1  5.13958505690569 -2.66869571977198 -1.02999661726173
 1  4.74108554165417 -2.62494472707271 -2.91307038063806
 1  4.70825044454445 -0.06082817731773 -1.76061223692369
 1 -9.30659425992599  1.11498895439544 -0.53236592639264
 1 -9.85381351495150  0.36319773547355 -2.18023412341234
 1  4.17688237473747  2.53181656535654  3.04578934463446
 1  6.07070053825382  1.47820997019702 -2.70599941494149
 1  5.17255795559556  5.07932069626963 -0.85186380628063
 1  3.87187921042104  5.89462622832283 -2.02694523942394
 1  3.46758442804280  5.93739334573457 -0.21070281188119
 1  0.96770407850785 -7.96258741584158  1.66589264416442
 1  7.22830527492749  3.14172971287129 -3.65270254355436
 1  6.23978586608661  4.60298581078108 -2.70559291179118

