%nproc=4
%Mem=3GB
# td=(NStates=1) B3LYP/SVP 

TD

0 1
 8 -3.27907481768177 -1.34263931943194 -2.90329098339834
 8  3.40791124592459  3.13678533703370  2.90929520042004
 8  3.67704201240124  1.49480660896090  4.42375681928193
 8  7.68024662756276 -1.70067618181818 -0.51127188898890
 8  6.71097525392539 -2.86307710261026 -2.26436288438844
 8 -2.66265717221722  1.59659514861486  1.46570663116312
 7 -0.23046879307931 -2.49036535083508  0.93329817061706
 7 -2.74584662266227 -1.07089222422242 -0.59474161876188
 7  1.23737528692869  0.07892880258026 -0.71684662186219
 7 -1.12343148864886  1.36861226912691 -0.22518341624162
 6 -3.45325047474747 -1.26960452285229  0.62950992489249
 6 -2.59753837993799 -2.37597174337434  1.66415172197220
 6 -1.15455109680968 -2.08351616561656  1.80011800040004
 6 -0.55880568286829 -1.28557974967497  2.86587460796080
 6  0.70522163476348 -1.20172517351735  2.56668786338634
 6  0.95680836703670 -1.81129756445645  1.23783858785879
 6 -4.72577752435244 -1.76422207090709  0.22452934023402
 6  1.84480907230723 -0.46355668526853  3.15767792229223
 6 -4.83449981138114 -1.99415812421242 -1.16150649114912
 6  2.15535349174918 -1.77325551775178  0.48284056275628
 6  2.20521654355436 -0.91517342954295 -0.61242514401440
 6 -3.50822549244924 -1.48966093139314 -1.73407069046905
 6  3.02428349154916 -0.64178492679268 -1.72777667656766
 6 -1.25272384458446 -0.71019487648765  4.04222973127313
 6 -5.75573079717972 -2.02022850315031  1.23470447604760
 6  2.53905356225623  0.47423479167917 -2.42176678667867
 6  2.05487491989199  1.07988368036804  2.63748038963896
 6  1.36066943344334  0.96928357695770 -1.81729783578358
 6  4.30094544364436 -1.42451188028803 -1.98782841294129
 6 -5.83243757985799 -2.55735782618262 -2.09681312951295
 6  5.47536308730873 -1.15500724592459 -1.02941635853585
 6  3.13778387378738  1.11322972557256 -3.62995950515052
 6  0.35394781888189  2.02299744664466 -2.06762850795080
 6  3.10186882718272  1.90322990849085  3.44691003620362
 6 -0.69359319091909  2.22887751995200 -1.23961924982498
 6 -7.05532945944594 -3.01120488458846 -1.71864042274227
 6  6.66154572417242 -2.02115037013701 -1.28057874787479
 6 -1.52628128292829  3.47423965716572 -1.28007608230823
 6 -2.33800789018902  3.37190766976698 -0.11012891909191
 6 -2.13299557195720  1.98887982148215  0.43745267726773
 6 -1.37280725912591  4.55085134533453 -2.18163993199320
 6 -3.41918255475548  4.20110059295930  0.29837407710771
 6 -2.06056994819482  5.68862428062806 -2.44343807660766
 1 -3.67405589878988 -0.25119060896090  1.10495470007001
 1 -2.57396902330233 -3.54185931093109  1.10334068316832
 1 -3.10970078987899 -2.46984042844285  2.58860824952495
 1 -0.39436474127413 -2.98933769886989  0.05276228622862
 1 -2.08167655735574 -0.26048235173517 -0.73108721112111
 1  1.79291725312531 -0.43021447524752  4.28125022412241
 1  2.64767210011001 -0.96576846814682  2.81542647204720
 1  2.84450326422642 -2.73675525842584  0.43642669586959
 1 -2.01055368466847 -1.52549182318232  4.22351941374137
 1 -0.59479924792479 -0.63723792739274  4.96267262376238
 1 -1.93324263806381  0.06292873957396  3.74138290359036
 1 -5.61121190839084 -1.39134726592659  2.07717201020102
 1 -5.83580234093409 -3.04900900550055  1.40508335463546
 1 -6.77672504930493 -1.65094073747375  0.82457881958196
 1  2.38454459385939  1.19545948784878  1.57022463376338
 1  1.18920887238724  1.82535477977798  2.78126610031003
 1  0.42686094369437  0.45628999879988 -0.17284931723172
 1  4.65171089028903 -1.36927998699870 -2.93823942584258
 1  4.05679650945094 -2.42936471567157 -1.70314742274227
 1 -5.60143228162816 -2.42350327492749 -3.25927939173917
 1  5.28831675297530 -1.26705718561856  0.11873509720972
 1  5.74555599689969 -0.12278927502750 -1.21952643514351
 1  4.08749866136614  0.71082757485749 -4.01464969446945
 1  3.36679243084308  2.07632871157116 -3.53928626402640
 1  2.36348213751375  1.07454195209521 -4.48971212321232
 1  0.77497140714071  2.71198269476948 -2.91966285828583
 1 -7.24202328842884 -3.27169935383538 -0.59408843004300
 1 -7.86013427832783 -3.43601493199320 -2.50902395589559
 1  4.12320604810481  3.51097045804580  3.51293454765477
 1 -0.64908878767877  4.29361064056406 -3.02981087648765
 1 -4.27127571717172  4.24262084388439 -0.39020017151715
 1 -3.98014676437644  3.72820761436144  1.22369318071807
 1 -3.01616993319332  5.10997128822882  0.74945071497150
 1  8.38204389788979 -2.33978713291329 -0.65332596759676
 1 -1.69164208880888  6.40286074317432 -3.23502835503550
 1 -2.82040439333933  6.03635501130113 -1.81889779727973

