%nproc=4
%Mem=3GB
# td=(NStates=1) B3LYP/SVP 

TD

0 1
 8 -3.33045995619562 -1.30906596209621 -2.77573822812281
 8  2.73521397619762  3.23470512901290  3.19061333223322
 8  3.81429573777378  1.37369449774977  4.13079752335234
 8  7.74150275317532 -1.42048816301630 -0.69960072187219
 8  6.74778893529353 -2.93838463336334 -2.00246669476948
 8 -2.63473437993799  1.62642813191319  1.48864892539254
 7 -0.24082982918292 -2.44499081338134  0.89930477127713
 7 -2.65863790179018 -1.27433256825683 -0.58757090169017
 7  1.21343289268927  0.10824173387339 -0.72791772897290
 7 -0.96389553505351  1.52721812971297 -0.17169806770677
 6 -3.39741489118912 -1.33252081448145  0.73511048494849
 6 -2.65561418751875 -2.42268641484148  1.71936724352435
 6 -1.23841948364836 -2.09367718171817  1.80197818641864
 6 -0.52750255255526 -1.14805599729973  2.72130015051505
 6  0.75995710831083 -1.13834883588359  2.39638083268327
 6  0.97197988418842 -1.86308274297430  1.20431523552355
 6 -4.76008095469547 -2.01300694939494  0.28877576487649
 6  1.82480707210721 -0.42877320692069  3.15385754025403
 6 -4.84886124752475 -1.99091780018002 -1.06448678917892
 6  2.08963692009201 -1.87916610881088  0.30526280498050
 6  2.06019204110411 -0.92082399459946 -0.70490439193919
 6 -3.49834450435043 -1.47370933623362 -1.60268755215522
 6  2.99779084228423 -0.75216596489649 -1.79443334223422
 6 -1.33124169636964 -0.47640149714972  3.82408791709171
 6 -5.84695992009201 -2.13439992029203  1.29375038063806
 6  2.58929858675868  0.36799416761676 -2.52926753675368
 6  1.84465389778978  1.09931562356236  2.74606124772477
 6  1.39951331783178  0.92065871447145 -1.93646975297530
 6  4.35846119521952 -1.55904533363336 -1.96435606570657
 6 -5.91637597369737 -2.45104719511951 -2.02284573277328
 6  5.36491204220422 -1.24174591979198 -1.06591000790079
 6  3.11900199559956  0.97206560916092 -3.77315382458246
 6  0.47915033913391  1.95057020392039 -2.01429317441744
 6  2.94522316261626  1.87741732723272  3.40578592379238
 6 -0.54273810541054  2.34256888908891 -1.20905619351935
 6 -6.91711563806381 -3.28188195229523 -1.81704026272627
 6  6.66579614921492 -1.93039129422942 -1.35378606860686
 6 -1.40633928872887  3.48975120832083 -1.20472854755476
 6 -2.32443653305331  3.39280975997600 -0.19204711091109
 6 -2.03634590699070  2.06871780528053  0.47848678067807
 6 -1.20703068146815  4.59017527772777 -2.20103187118712
 6 -3.31603223972397  4.38425890879088  0.37429166886689
 6 -1.69475336653665  5.75727114531453 -2.16282001480148
 1 -3.33974246744674 -0.46541203110311  1.24365857045705
 1 -2.71493311971197 -3.49089421442144  1.37232758185819
 1 -3.13619343914392 -2.43703714811481  2.72667205590559
 1 -0.44579988478848 -2.65326409150915 -0.11538452845285
 1 -1.95503389308931 -0.49045534903490 -0.68230233263326
 1  1.78161612301230 -0.35129658345835  4.11339343844384
 1  2.78219555245524 -0.94345623692369  2.86181111051105
 1  2.91143995789579 -2.57982956585659  0.31499455265527
 1 -2.09266189548955 -1.13327260126013  4.45405246704670
 1 -0.82782255025503 -0.05073927752775  4.68830518701870
 1 -1.90695000880088  0.41604405110511  3.10651941724172
 1 -5.59055984318432 -1.49370750195019  2.03873816681668
 1 -5.67407616831683 -3.19349345394539  1.80199304560456
 1 -6.81045842264226 -1.96926256965697  0.88523488518852
 1  1.89478561796180  0.99168911081108  1.68791640294029
 1  0.93508345984598  1.51399364366437  3.07054502820282
 1  0.46349460706071  0.34592896269627 -0.01291332363236
 1  4.45224094329433 -1.48887194619462 -3.07703330523052
 1  4.17645847564757 -2.66185796499650 -1.84771187918792
 1 -5.56538867726773 -2.17289821442144 -2.99750321412141
 1  5.08353627492749 -1.27831831173117  0.10385360906091
 1  5.66061750305031 -0.12570956705671 -1.21267575007501
 1  3.81623153465347  0.33418991109111 -4.24153238273827
 1  3.69290504210421  1.89533061176118 -3.36596893229323
 1  2.50575636493649  1.28134263216322 -4.58906205820582
 1  0.74038794879488  2.50526202270227 -2.94291518351835
 1 -7.05509459555956 -3.71969415331533 -0.85816483768377
 1 -7.75201346624663 -3.26521785228523 -2.51468452195220
 1  3.52409613711371  3.63920328132813  3.70156341054105
 1 -0.55227910671067  4.44668594809481 -3.15528342374237
 1 -4.17202579217922  4.65503208500850 -0.31460261176118
 1 -4.03281203090309  3.72792758635864  1.03950476187619
 1 -2.91170948714871  5.40039033013301  0.75056082598260
 1  8.59830552405241 -1.78107126132613 -0.88423905890589
 1 -1.48581150575057  6.20806126322632 -3.10196504870487
 1 -2.47722007490749  6.28128950475048 -1.48415432293229

