%nproc=4
%Mem=4GB
# td=(NStates=1) B3LYP/SVP 

TD

0 1
 8 -5.09497572757276 -0.09119367976798 -3.22537232693269
 8  3.03019302480248  2.81768902360236  3.41803788218822
 8  3.39431778037804  0.67187258625863  3.06453833893389
 8  1.66438407790779 -7.12526879697970  1.43554206050605
 8  0.64627951595160 -6.99692611621162 -0.59897788068807
 8  1.52990003810381  3.99767289008901  0.05328483588359
 7 -2.35716532763276 -0.93443187338734  0.79498651525153
 7 -4.20736561796180  0.51163883038304 -1.22535088988899
 7  1.80349074067407 -0.77684925792579 -0.31785026262626
 7  2.48337387928793  1.90092583808381 -0.47893464016402
 6 -4.65064145534553  1.27512900990099 -0.01500570077008
 6 -4.40548794159416  0.45029519481948  1.32095945364536
 6 -2.84429952555256  0.08759901660166  1.46098811181118
 6 -1.88485758245825  0.75072002920292  2.21939510911091
 6 -0.64593120342034 -0.00548598409841  1.88595927352735
 6 -1.02785697349735 -1.05911897079708  0.99726154555456
 6 -6.14005636173617  1.44421221052105 -0.24765998139814
 6  0.65669427602760  0.17114779127913  2.62248126822682
 6 -6.45877639213921  0.77000624902490 -1.36100182888289
 6 -0.19658591469147 -1.99129786668667  0.19303138463846
 6  1.04194109030903 -1.85538508510851 -0.19875145734573
 6 -5.24988558885889  0.33913212791279 -2.11452876437644
 6  1.76742082728273 -2.89121966036604 -0.99277628692869
 6 -2.07620332123212  1.84645040194019  3.25898028822882
 6 -7.07217471067107  2.09781791099110  0.70118410431043
 6  2.98451478517852 -2.37731768296830 -1.37711895699570
 6  1.27442346964696  1.63303179657966  2.65109874577458
 6  2.92175025032503 -0.99472809840984 -1.02149613781378
 6  1.44403817401740 -4.38598456285628 -1.12653437033703
 6 -7.73725963196320  0.61364300190019 -2.09883827162716
 6  1.70551811741174 -4.94663559815982  0.29646564206421
 6  4.18613422242224 -2.96895536433643 -1.97889712101210
 6  3.88122899349935  0.11774117761776 -1.36246092849285
 6  2.64536515771577  1.60185777397740  3.10788668856886
 6  3.57699207700770  1.52996840834083 -1.15660222752275
 6 -9.02303728712871  0.76638879917992 -1.57324213951395
 6  1.31482654735474 -6.51022767296730  0.29167782678268
 6  4.43604243884388  2.61148790369037 -1.64309139223922
 6  3.71155042344234  3.72905342904290 -1.12310360466047
 6  2.54350592139214  3.29108695979598 -0.39079784248425
 6  5.75157876317632  2.49218405900590 -2.16571852695270
 6  4.24855047484749  5.24564944074407 -1.06697871127113
 6  6.38924898249825  3.50048573337334 -2.71455593249325
 1 -3.99497398349835  2.14337541764176  0.09365240554055
 1 -5.17237189408941 -0.45980745684568  1.21469621382138
 1 -4.63019985988599  1.07537153685369  2.20958786848685
 1 -2.87193623352335 -1.53221061656166  0.28040111831183
 1 -3.38702970027003  0.71020293739374 -1.78530608150815
 1  0.34950938563856 -0.09682937093709  3.63379292739274
 1  1.43967797719772 -0.43168783618362  2.28182331513151
 1 -0.74952361326133 -2.75607307230723 -0.03435843354335
 1 -3.12954309960996  2.04376564066407  3.32532252195220
 1 -1.34514572967297  1.71927129102910  4.11232962086209
 1 -1.74827120822082  2.75587940774077  2.71957937973797
 1 -6.50880433133313  3.15555435893589  1.10828306130613
 1 -7.47530729772977  1.56250605980598  1.65374238493849
 1 -7.78410434763476  2.36512259535954  0.04755323552355
 1  0.95772848124812  2.22122415901590  1.61270933823382
 1  0.82718583108311  2.28748557055706  3.56855267946795
 1  1.40310463686369  0.13328397339734 -0.35330069536954
 1  2.06703449564957 -4.81256508690869 -1.79859446914691
 1  0.50756255375538 -4.69172902040204 -1.44025250865086
 1 -7.51039210101010  0.53316354695469 -3.13556949514951
 1  1.18104029292929 -4.46283746344634  1.03111068766877
 1  2.84176044614461 -5.04902210671067  0.45657347224723
 1  3.99106416871687 -3.95925337753775 -2.40417387848785
 1  5.07966906530653 -2.82483133333333 -1.34891850945094
 1  4.45435686878688 -2.22839507210721 -2.86756583018302
 1  4.80039965946595 -0.00192228672867 -1.88700487618762
 1 -9.37212081258126  1.22056951245125 -0.49256194599460
 1 -9.79597773137314  0.55393680938094 -2.45552165216522
 1  4.02791747824782  2.94825820952095  3.57143190889089
 1  6.10150361856186  1.37902005120512 -2.15289410441044
 1  5.46048674847485  5.13863662786279 -0.82224084398440
 1  3.97224924742474  5.66584335003500 -2.11183372827283
 1  3.77399506910691  5.65625523192319 -0.06465820742074
 1  1.27309461756176 -7.96467762486249  1.42879893479348
 1  7.47229967436744  3.51731727162716 -3.10492776607661
 1  6.02281416891689  4.52126763896390 -2.76472882538254

