%nproc=4
%Mem=4GB
# td=(NStates=1) B3LYP/SVP 

TD

0 1
 8 -5.26063229322932  0.42974841444144 -3.28015780548055
 8  2.72748275377538  3.18843609830983  3.29889596799680
 8  3.20988933753375  0.96547194619462  2.97650953605361
 8  1.99946758625863 -7.40697696779678  1.23904241054105
 8  0.82619750775077 -7.15441186478648 -0.65380336323632
 8  1.75540258835884  3.93703682648265 -0.21204169676968
 7 -2.36669628072807 -0.91870030023002  0.68358537513751
 7 -4.32847772917292  0.88788645514551 -1.14085244004400
 7  1.85301569316932 -0.77813938693869 -0.28856733433343
 7  2.60837637953795  1.83482922842284 -0.62213896059606
 6 -4.82382877407741  1.26583808080808  0.06592239203920
 6 -4.45552294509451  0.22118228352835  1.33870122782278
 6 -2.99781487708771 -0.04569431273127  1.42952496549655
 6 -2.13503259996000  0.54715967316732  2.28922209180918
 6 -0.78499510981098  0.03347791229123  1.96310698829883
 6 -1.01567575537554 -0.89542260116012  0.82870468986899
 6 -6.28633098919892  1.39317710701070 -0.18860407580758
 6  0.65098370497050  0.27313799029903  2.47242626272627
 6 -6.57209772427243  1.01698094649465 -1.37553328202820
 6 -0.22633888998900 -1.95851458835884  0.27409949144914
 6  1.14237113331333 -1.95380492709271 -0.18883046524652
 6 -5.38614921522152  0.61812002670267 -2.05534284578458
 6  1.93959804500450 -3.06331687008701 -0.82369937923792
 6 -2.39622532343234  1.56018177507751  3.34123851405141
 6 -7.29358685188519  1.86043417261726  0.92879686558656
 6  3.10498683238324 -2.39788974017402 -1.23346459155916
 6  0.97764379167917  1.76319481288129  2.47249088498850
 6  3.05349342464246 -0.97432605820582 -0.93891787998800
 6  1.42787655785579 -4.46662262666267 -0.92457417431743
 6 -7.84665057105711  0.96067770537054 -1.93196158395840
 6  1.88298586418642 -5.25902683728373  0.39137513301330
 6  4.27124273327333 -2.92225069386939 -1.98654788608861
 6  3.88504937553755  0.04241364486449 -1.41015569796980
 6  2.40483110431043  1.86307389558956  2.96561246114611
 6  3.74332871067107  1.36006141764176 -1.09639620692069
 6 -9.10933591699170  0.83917607790779 -1.47831264656466
 6  1.49281434613461 -6.61687833803380  0.23182184118412
 6  4.65660449504951  2.54789154405440 -1.36796387948795
 6  3.94918418681868  3.66606713041304 -1.02033332763276
 6  2.63715528632863  3.16079393049305 -0.61686044874487
 6  6.04699830513051  2.43001784238424 -2.05189714481448
 6  4.23806942674267  5.08928380418042 -1.31913392679268
 6  6.74256431403140  3.45559124392439 -2.63730820772077
 1 -4.25829031513151  2.31557263736374  0.40804384468447
 1 -4.89842449934994 -0.69471094719472  1.15840058425843
 1 -4.83662050195019  0.82595659535954  2.37293420312031
 1 -2.75939497939794 -1.36939433493349 -0.19812673447345
 1 -3.21191218851885  0.69351126822682 -1.51033858475848
 1  0.79967440214021 -0.10974066206621  3.43549309740974
 1  1.52711672107211 -0.40017468486849  1.97563269606961
 1 -0.67559622052205 -2.90844830983098 -0.00941593929393
 1 -3.40385053035303  1.58711997609761  3.90317030673067
 1 -1.50456167126713  1.52714207810781  4.17475586348635
 1 -2.26911329242924  2.58124194399440  2.91584900670067
 1 -6.53412686358636  2.35247405090509  1.71615384838484
 1 -7.64180394739474  0.80036984618462  1.52854986568657
 1 -8.27236317351735  2.51444752785279  0.75762424262426
 1  0.85267797619762  2.14372640924092  1.59060712801280
 1  0.54120723322332  2.32631945394539  3.29749557375738
 1  1.60607493389339  0.28392903790379 -0.30979634493449
 1  2.21215900810081 -4.92827665806581 -1.63163777347735
 1  0.56299809730973 -4.73049289678968 -1.31651013441344
 1 -7.78762982478248  0.92736296689669 -3.04451038923892
 1  1.37577976687669 -4.73798497819782  1.32455003160316
 1  2.95954222432243 -5.14582178667867  0.43831164606461
 1  4.20228529082908 -4.24932238443844 -2.01544500560056
 1  5.34377547594760 -2.81761061126113 -1.28235185278528
 1  4.59934136723672 -2.41712394499450 -2.91235030863086
 1  4.76699631913191 -0.09192128662866 -1.94143031873187
 1 -9.34533813431343  0.65436289178918 -0.39170185998600
 1 -10.06768490209021  0.88615003070307 -2.18708480848085
 1  3.73651833833383  3.42448583228323  3.35917068276828
 1  6.22674614281428  1.30521267046705 -2.10595941094109
 1  5.25173587338734  5.34151691589159 -1.13187180708071
 1  3.97548957145715  5.27254402010201 -2.63833637853785
 1  3.43487115671567  5.75262486888689 -0.69719146074608
 1  1.72294960306031 -8.40634179127913  1.10607666256626
 1  7.75197764216422  3.22673821372137 -2.92634990829083
 1  6.33331521902190  4.58334384658466 -2.69325167766777

