%nproc=4
%Mem=3GB
# td=(NStates=1) B3LYP/SVP 

TD

0 1
 8 -3.35447235743574 -1.33428848434843 -2.86852750705070
 8  2.93244369916992  3.18506016451645  3.23790806170617
 8  3.79566387458746  1.37613474177418  4.46811125472547
 8  7.67238584148415 -1.50627674187419 -0.53769453125313
 8  6.87502165856586 -2.58980977587759 -2.38159460756076
 8 -2.50081098759876  1.56152164126413  1.56437649814981
 7 -0.27174292049205 -2.41374768906891  0.99364420522052
 7 -2.67756979497950 -1.15468060306031 -0.63279542414241
 7  1.11051260066007 -0.03431252155216 -0.80432536973697
 7 -0.96900604610461  1.43147855575558 -0.22415331323132
 6 -3.37496264596460 -1.30226778917892  0.62948992289229
 6 -2.73629225532553 -2.25269941614161  1.65344065086509
 6 -1.27159280098010 -1.94042185618562  1.89389737833783
 6 -0.56982678497850 -1.21904309600960  2.78444646514652
 6  0.76526763936394 -1.15167016801680  2.49964115871587
 6  0.92197488368837 -1.92728916361636  1.28763356735674
 6 -4.77691263786379 -1.80362601130113  0.30727761506151
 6  1.97258184958496 -0.42107243684368  3.07978013251325
 6 -4.93073943534353 -1.98153686208621 -1.07082742324232
 6  2.00079803620362 -1.92624081628163  0.27607988668867
 6  2.05357137903790 -1.06769868206821 -0.72595649714971
 6 -3.51194586448645 -1.46791875717572 -1.67662494589459
 6  3.00140120332033 -0.78527927622762 -1.77159105800580
 6 -1.28151672387239 -0.44638849584958  3.85385089338934
 6 -5.85441066516652 -2.01734821512151  1.28847985358536
 6  2.62525218211821  0.27735510371037 -2.44470908090809
 6  2.04842427482748  1.05321101310131  2.64535117671767
 6  1.41297466396640  0.75785243384338 -1.85008111411141
 6  4.21212656175618 -1.57277670677068 -2.07453708380838
 6 -5.91595593169317 -2.34376646704670 -2.11330477867787
 6  5.34761031203120 -1.10939268446845 -0.99135255215522
 6  3.10547064246425  1.10359876247625 -3.62111862106211
 6  0.56762918701870  1.89464461136114 -2.05938768386839
 6  3.02626126642664  1.82646223172317  3.60622596779678
 6 -0.54027785938594  2.21102573477348 -1.25395068296830
 6 -6.92643657015702 -3.18416218031803 -1.77352591129113
 6  6.67840741034103 -1.85212346744674 -1.35041573157316
 6 -1.37528618341834  3.47379961316132 -1.27295537023702
 6 -2.28091218061806  3.35463594259426 -0.15488339453945
 6 -2.01812408480848  2.06491742524252  0.53391232323232
 6 -1.18899887828783  4.52846910711071 -2.25447721572157
 6 -3.45558619511951  4.17173765666567  0.29152339203920
 6 -2.01906579777978  5.62763818201820 -2.46462019481948
 1 -3.28000649384939 -0.30697618751875  1.14314851945195
 1 -2.57418904530453 -3.33264838983898  1.28964931403140
 1 -3.02647246704670 -2.34739818421842  2.60800018871887
 1 -0.54193949874987 -2.79448821392139 -0.08414140414041
 1 -2.10728911861186 -0.23899020252025 -0.65943004540454
 1  1.76066402780278 -0.48359981378138  4.22314441354135
 1  2.89776710961096 -1.00473236453645  2.77135206460646
 1  2.60739955385539 -2.82495407830783  0.27464051725173
 1 -1.70559318861886 -1.17753702770277  4.52423948574858
 1 -0.63988375637564  0.25514131053105  4.32776913341334
 1 -1.95497481128113  0.20424287098710  3.30394916021602
 1 -5.83038382558256 -1.51189932113211  2.16347064006401
 1 -5.72205096579658 -2.78770287488749  1.79541238753875
 1 -6.93357073387339 -1.77668331173117  1.04274063576358
 1  2.27729386878688  1.11786172807281  1.73945155645565
 1  1.07684763626363  1.51775401970197  2.83181115481548
 1  0.28361661926193  0.23755812561256 -0.22047407970797
 1  4.68191391059106 -1.57043010201020 -3.06604220612061
 1  4.08319914971497 -2.65078685788579 -1.71755886388639
 1 -5.52056419481948 -1.88558948354835 -3.20206367016702
 1  5.13800172147215 -1.25098557845785  0.09036225992599
 1  5.65252669396940 -0.00426742284228 -1.21203568606861
 1  4.56545645714572  1.12743923602360 -3.49738796829683
 1  2.46251200280028  2.48545962466247 -3.48916125152515
 1  2.60467625692569  0.38338283618362 -4.75421857385739
 1  0.78580249024903  2.48362985948595 -2.97059795179518
 1 -6.85053413951395 -3.89265144904491 -0.70604962616262
 1 -7.72268053295330 -3.49675100560056 -2.39077213071307
 1  3.81936566406641  3.65221458245825  3.48717197139714
 1 -0.73492737153715  4.14180546004600 -3.17519541494149
 1 -4.31388997859786  4.28411499329933 -0.62675382688269
 1 -3.79902865256526  3.69637443104310  1.30924173557356
 1 -3.08718703490349  5.18684897599760  0.60983675357536
 1  8.49378507200720 -1.95750890509051 -0.90435107010701
 1 -2.09359228382838  6.19159961706171 -3.29814466666667
 1 -2.70153250615062  5.98418979477948 -1.64195010251025

