%nproc=4
%Mem=4GB
# td=(NStates=1) B3LYP/SVP 

TD

0 1
 8 -5.22480871087109  0.11356679627963 -3.27784757445745
 8  3.14646465196520  2.76726398109811  3.24782086048605
 8  3.44281262986299  0.48723412241224  2.99867175227523
 8  1.75970360986099 -7.38541481158116  1.29857836413641
 8  0.15469035703570 -6.80248667226723 -0.32595057795780
 8  1.53435048314831  3.95225834863486 -0.04699519211921
 7 -2.34531414251425 -1.00437886808681  0.66438345494549
 7 -4.29477435883588  0.50661832833283 -1.30760911571157
 7  1.85390578217822 -0.70215178817882 -0.39033751135114
 7  2.38570411231123  1.88443418891889 -0.59486623332333
 6 -4.70971736293629  1.17461895889589 -0.01046524672467
 6 -4.43358075087509  0.33723388868887  1.23445080278028
 6 -2.87747284288429  0.05733599029903  1.41088310131013
 6 -1.90285938263826  0.65320027722772  2.13170634023402
 6 -0.71065767606761  0.03965853035304  1.79200987858786
 6 -0.99826401420142 -1.10872393129313  0.84803662306231
 6 -6.15124748084808  1.36896468576858 -0.20704591999200
 6  0.57901650825082  0.12417309380938  2.54254327442744
 6 -6.51981249574957  0.89272852125213 -1.34874060276028
 6 -0.15151140724072 -2.02152088898890  0.17309939143914
 6  1.11094799099910 -1.81310085668567 -0.28335991819182
 6 -5.36031663196320  0.49428764346435 -2.11473878537854
 6  2.01703578877888 -2.81993253165317 -0.85574258355836
 6 -2.01538723962396  1.75800155705571  3.15736012621262
 6 -6.92083957715772  2.08089621882188  0.92561654755476
 6  3.13384971867187 -2.28419837103710 -1.28452969806981
 6  1.30582660996100  1.50926942034203  2.65472910881088
 6  3.01816989228923 -0.87074570017002 -1.00882487068707
 6  1.56633040324032 -4.36164212861286 -0.86080779767977
 6 -7.75684159015902  0.75410704830483 -2.04229261706171
 6  1.80765833143314 -5.08600953555356  0.41777777327733
 6  4.35923153215322 -2.95056352515252 -1.88137736903690
 6  3.90755162576258  0.16441584508451 -1.23248793119312
 6  2.72632325352535  1.46672426062606  2.95743164306431
 6  3.54873925172517  1.44849026052605 -1.08769533683368
 6 -8.97615259865987  0.76667882818282 -1.53287810311031
 6  1.06328139283928 -6.44019066926693  0.41234989398940
 6  4.44393322792279  2.73764051895190 -1.53787087018702
 6  3.68853812221222  3.85183570727073 -1.13432472677268
 6  2.45154672547255  3.33195104620462 -0.58430719341934
 6  5.81948555385539  2.60128496909691 -2.03015497059706
 6  3.91768738853885  5.25758063386339 -1.33805581898190
 6  6.56687674527453  3.66771245604560 -2.38778325522552
 1 -4.00747523362336  2.17771885198520 -0.00626758645865
 1 -4.90448510541054 -0.68165964206421  1.07863260746075
 1 -4.88005484538454  0.88358235793579  2.13862077177718
 1 -3.01113015291529 -1.65597299279928  0.02707578577858
 1 -3.42293329062906  0.45411732883288 -1.57761531243124
 1  0.23398783348335 -0.11600128812881  3.49245879397940
 1  1.37628163756376 -0.55970063746375  2.10256538933893
 1 -0.54426308720872 -3.00361782678268 -0.01554655235524
 1 -2.95269541484148  2.02893415751575  3.35795578527853
 1 -1.34607582268227  1.61016037993799  3.92291067896790
 1 -1.66175255635564  2.67654147394739  2.87272469426943
 1 -6.30479393029303  2.73530233373337  1.39177141014101
 1 -7.36798656565657  1.34970477967797  1.73103011371137
 1 -7.77456339353935  2.64203028612861  0.59617809800980
 1  1.04646735513551  1.81025306190619  1.56983505080508
 1  0.75031814431443  2.21565838783878  3.33176900110011
 1  1.60894522092209  0.36708735373537 -0.31078644394439
 1  2.26015380758076 -4.97524135453545 -1.54854946464646
 1  0.59074087158716 -4.23158300580058 -1.31334981838184
 1 -7.61932299409941  0.47194742534253 -3.05465140334033
 1  1.39582177107711 -4.61673285298530  1.35633320992099
 1  2.90128639873987 -5.22913011751175  0.66550436533653
 1  4.13275833813381 -4.06376382858286 -2.11020448154815
 1  5.20801189958996 -2.80522937313731 -1.06041965956596
 1  4.57670910401040 -2.39207143974397 -2.81232030563056
 1  4.89995961546155 -0.19582167666767 -1.51172734843484
 1 -8.81886548704870  0.77909536503650 -0.55169785958596
 1 -9.84038217181718  0.74717613331333 -2.23311941194119
 1  4.13694838133813  2.70368375207521  3.27495226092609
 1  6.15656912511251  1.70142229142914 -2.11397021202120
 1  4.51389208900890  5.76655942014201 -0.24574319421942
 1  4.44722674517452  5.46275304100410 -2.25493803870387
 1  2.85928359795980  5.80249985638564 -1.23541528312831
 1  1.45344265236524 -8.29161031813181  1.55830188508851
 1  7.53974641904190  3.66048158805881 -2.84235150845084
 1  6.26187807530753  4.70810632283228 -2.29994234673467

