%nproc=4
%Mem=3GB
# td=(NStates=1) B3LYP/SVP 

TD

0 1
 8 -3.13530044024402 -1.43309836533653 -2.82267292159216
 8  2.99633008780878  3.07963962246225  2.85378964986499
 8  3.91505581378138  1.54803193149315  4.24945938953895
 8  7.75808441134113 -1.82548866306631 -0.69681044284428
 8  6.62796695309531 -3.15366616151615 -2.21352780088009
 8 -2.71791269776978  1.69286477557756  1.52989304980498
 7 -0.24887063326333 -2.34269058335834  0.93925876667667
 7 -2.68288032603260 -1.02375751075108 -0.58636078067807
 7  1.17076862626263  0.10607151685169 -0.55207014421442
 7 -1.08210735623562  1.46905231313131 -0.10774167206721
 6 -3.34435958565857 -1.27114467686769  0.67995496939694
 6 -2.70681930803080 -2.32735688188819  1.61462676947695
 6 -1.21225686738674 -1.93206102010201  1.78273626222622
 6 -0.52664246654665 -1.23095428712871  2.92209022952295
 6  0.88812992559256 -1.24155915691569  2.47551874647465
 6  0.95662834903490 -1.80687712241224  1.24684948894890
 6 -4.73827877447745 -1.78907455615562  0.17765465276528
 6  1.86189078047805 -0.37481781138114  3.22815496999700
 6 -4.77699406080608 -2.01815052345234 -1.08624896539654
 6  2.05605356175618 -1.82288048024802  0.32016429512951
 6  2.15108113001300 -0.96252816501650 -0.60500440194019
 6 -3.44505917581758 -1.51220318561856 -1.67043432683268
 6  3.06845790899090 -0.57255800410041 -1.72334623352335
 6 -1.26948552075207 -0.56794065106511  3.97167267556756
 6 -5.81941716581658 -2.19889636993699  1.14312531813181
 6  2.54689434633463  0.52720008820882 -2.35774038403840
 6  1.86308574097410  1.06513220522052  2.84628126972697
 6  1.44736810331033  0.99136578517852 -1.61476758275828
 6  4.18235358445845 -1.45470489958996 -2.04584421452145
 6 -5.68398273437344 -2.48950104050405 -2.07752120032003
 6  5.42011756275628 -1.21172291749175 -1.13010642754275
 6  3.06519661506151  1.20538894149415 -3.54831134033403
 6  0.57668009210921  2.13546869376938 -1.91940368546855
 6  3.00916955725573  1.87025661116112  3.41235658085809
 6 -0.54671850345034  2.32661729392939 -1.08950423832383
 6 -6.77771169766977 -3.17337110121012 -1.84822338103810
 6  6.64017358695870 -2.22610086518652 -1.45966665666567
 6 -1.51426008080808  3.55731796499650 -1.20365844054405
 6 -2.37759184858486  3.40136061506151 -0.22921082728273
 6 -2.14920719311931  2.06874780828083  0.46884581658166
 6 -1.31727170557056  4.55391165136514 -2.25487725572557
 6 -3.59840047654765  4.17491797469747  0.22687692739274
 6 -2.11446533773377  5.61855727392739 -2.38290202300230
 1 -3.49251774497450 -0.43791928182818  1.25847005160516
 1 -2.76922854925493 -3.15734085908591  1.01677202630263
 1 -3.09171899169917 -2.31650509490949  2.67519690839084
 1 -0.60570587538754 -2.76930569566957  0.05960297029703
 1 -2.02722111181118 -0.25232153565357 -0.59825392779278
 1  1.61324928632863 -0.69862131593159  4.22323442254225
 1  2.86538387128713 -0.70006189748975  2.82560749014902
 1  2.63581239513951 -2.75628721162116  0.22677573077308
 1 -1.91112374167417 -1.34420369436944  4.28327538933893
 1 -0.54439420742074 -0.10975517911791  4.86645300180018
 1 -1.84899421322132  0.16457890459046  3.28625739103910
 1 -5.43811459865987 -1.98836696789679  2.13387768076808
 1 -5.91881064176418 -3.52493659825983  1.13273611991199
 1 -6.79764714151415 -1.82012765616562  0.79995635733573
 1  2.09280541994200  1.26037597949795  1.74417202850285
 1  0.75012496399640  1.54144638893889  3.15608358205821
 1  0.30076833443344  0.10814518431843 -0.20710274257426
 1  4.58962468166817 -1.05542860186019 -3.14292989488949
 1  4.14031486128613 -2.63301508070807 -1.99303641164116
 1 -5.54877701610161 -2.24915584018402 -3.12231569536954
 1  5.04646256755676 -1.51571205110511 -0.05380215651565
 1  5.79728116941694 -0.15479247534753 -1.17426190869087
 1  4.17765767726773  0.87707419951995 -3.90914914441444
 1  3.19969572117212  2.39128020672067 -3.35072740814081
 1  2.43686947624763  1.04259875777578 -4.55599875187519
 1  0.84218812881288  2.71681317781778 -2.71338223022302
 1 -7.03885297139714 -3.41567375127513 -0.77965698689869
 1 -7.63969223412341 -3.55565689618962 -2.67078013151315
 1  3.82248597609761  3.48560792179218  3.19203245744574
 1 -0.72046592539254  4.45779705920592 -3.13049094449445
 1 -4.21348993859386  4.23673025482548 -0.59950110161016
 1 -4.13908265796580  3.78987378097810  1.13580439183918
 1 -3.39427774397440  5.29071936303630  0.45421119101910
 1  8.35879157265727 -2.50117327152715 -1.03876451145115
 1 -2.00654357895790  6.26605706280628 -3.30758561076108
 1 -2.65379773267327  5.90532190799080 -1.48160406790679

