%nproc=4
%Mem=3GB
# td=(NStates=1) B3LYP/SVP 

TD

0 1
 8 -3.06025293549355 -1.39217427292729 -2.83428408270827
 8  3.32919337413741  3.08594025252525  3.00761503240324
 8  3.47316162436244  1.49600672897290  4.68528297189719
 8  7.74859346224622 -1.71553766796680 -0.83652441424142
 8  6.52452660906091 -3.00931172607261 -2.22205865396540
 8 -2.65257616411641  1.60535602470247  1.42149220972097
 7 -0.34805055125513 -2.36385269956996  0.95150999179918
 7 -2.62122416041604 -1.11379651465147 -0.57512965756576
 7  1.06517806720672 -0.02713180348035 -0.73523846104610
 7 -1.11569071457146  1.46970237813781 -0.25646654455446
 6 -3.37843299299930 -1.28112567496750  0.66940391429143
 6 -2.60767939403940 -2.33290743694369  1.62076738353835
 6 -1.22413805550555 -2.00290810481048  1.86053404200420
 6 -0.60913071537154 -1.12773396509651  2.87910593109311
 6  0.84315542814281 -1.09745474647465  2.50550174477448
 6  1.01648433463346 -1.79247568226823  1.34758956295630
 6 -4.72311725832583 -1.87504315301530  0.20871775907591
 6  1.89364395579558 -0.41492182178218  3.17733988848885
 6 -4.74780114151415 -1.96746545494549 -1.17105744624462
 6  2.00398835523552 -1.85279347154715  0.30971325002500
 6  2.10128615051505 -0.89025093729373 -0.70630453195320
 6 -3.41885655555556 -1.50396236153615 -1.62877016041604
 6  3.03464452765277 -0.62435318361836 -1.70066396529653
 6 -1.34666323852385 -0.44376823382338  3.99406491479148
 6 -5.76678190229023 -2.19144562486249  1.29318032363236
 6  2.47253691059106  0.42475984418442 -2.42151676167617
 6  2.03678311071107  1.07553324532453  2.66854349594959
 6  1.27621098759876  0.93341999059906 -1.72438854485449
 6  4.24330968006801 -1.57096652575258 -1.90126975707571
 6 -5.72400673677368 -2.43589567996800 -2.10700414861486
 6  5.50564611561156 -1.08655040024002 -1.27826124302430
 6  3.25413550895089  0.97914631723172 -3.55280178937894
 6  0.41076350045005  2.02693784068407 -1.96230797589759
 6  3.01341998229823  1.80843042854285  3.54486983218322
 6 -0.64737856945695  2.29555418761876 -1.22083737163716
 6 -6.83509743624362 -3.26350011411141 -1.87682624132413
 6  6.64942451205120 -2.06591484658466 -1.51243193319332
 6 -1.56241489628963  3.51324355755576 -1.26058413311331
 6 -2.45719980938094  3.35103558255826 -0.22958086428643
 6 -2.12888516091609  2.08577951145115  0.40624955695570
 6 -1.32299227762776  4.62169843004300 -2.11727349534954
 6 -3.39810044654465  4.35111559445945  0.34332857255726
 6 -2.11989588078808  5.71317673587359 -2.35879961276128
 1 -3.22017051025103 -0.35280076997700  1.12949715431543
 1 -2.52832445884588 -3.32143726872687  1.04628497759776
 1 -3.15675549534954 -2.64591803620362  2.53141252995300
 1 -0.21480678547855 -2.93195196029603  0.08271528152815
 1 -2.14292268196820 -0.23223952745275 -0.68736283868387
 1  1.81359932133213 -0.16711816561656  4.23854595369537
 1  2.93626095899590 -0.76900879217922  2.96367129652965
 1  2.60272908680868 -2.61715329822982  0.40311336453645
 1 -1.92631526082608 -1.26573584758476  4.43310037183718
 1 -0.72677244524452  0.10802659905991  4.75504186068607
 1 -1.97789710351035  0.41528397509751  3.72179094439444
 1 -5.56708749594959 -1.40051818301830  2.13635792879288
 1 -5.54159291999200 -3.18678278287829  1.50931377767777
 1 -6.78652602940294 -2.20132577597760  0.69850621232123
 1  2.31127726712671  1.13350329222922  1.50777838913891
 1  1.00284023552355  1.41162340664066  2.82060003370337
 1  0.43229148674868  0.37591196099610  0.08835680338034
 1  4.37384310351035 -1.75434849384939 -2.97922352425243
 1  4.13000383018302 -2.60355213441344 -1.54041114911491
 1 -5.22995513391339 -2.34019494409441 -3.25435889968997
 1  5.37606552785279 -0.90165064496450 -0.20685746204620
 1  6.01141258255826 -0.01563855995600 -1.61400588308831
 1  3.92002191369137  0.30223671577158 -3.82958118761876
 1  3.78515426702670  1.97375845454545 -3.38084041944194
 1  2.58264405370537  1.09229372727273 -4.39273242524252
 1  0.64024793479348  2.64537603410341 -2.88623951595160
 1 -7.26208529462946 -3.60858304220422 -0.88222724392439
 1 -7.47478574347435 -3.60214154465447 -2.77898095159516
 1  4.15739946744675  3.39918927992799  3.57348060226023
 1 -0.52629650845085  4.64510579007901 -2.78980687608761
 1 -4.31247983758376  4.36321290309031 -0.24983613511351
 1 -3.63774252395240  4.08436322992299  1.45048585998600
 1 -2.70138845504550  5.31088137923792  0.46169193909391
 1  8.51927762126213 -2.44728788298830 -0.90117075207521
 1 -1.60433335793579  6.30510096719672 -3.04213906610661
 1 -3.00389274217422  5.91046242204220 -1.71157706520652

