%nproc=4
%Mem=3GB
# td=(NStates=1) B3LYP/SVP 

TD

0 1
 8 -3.41562847304730 -1.43032808830883 -2.94431508580858
 8  3.21724217901790  2.98515017351735  3.06028029892989
 8  3.56977128532853  1.32975010331033  4.50976542014201
 8  7.88792739563956 -1.49122523672367 -0.86345710751075
 8  6.75185934233423 -3.02731352625262 -1.93891033913391
 8 -2.53330423692369  1.75089057815782  1.57794785528553
 7 -0.24752049824982 -2.37510382468247  0.85752059285929
 7 -2.79992203020302 -1.20593572857286 -0.69510165476548
 7  1.23218476787679  0.15874678437844 -0.62652758995900
 7 -0.89197834333433  1.53020842874287 -0.06929782768277
 6 -3.42520767046705 -1.34594215661566  0.60827780168017
 6 -2.61975060116012 -2.38466261246125  1.56312161896190
 6 -1.18122376407641 -1.94353216721672  1.70578856745675
 6 -0.55791559385939 -1.23094428612861  2.76786480698070
 6  0.75785689828983 -1.16461146214621  2.46120731533153
 6  0.89385207140714 -1.76546298099810  1.23696850085008
 6 -4.75942088868887 -1.90731638033803  0.29814670197020
 6  1.82633722512251 -0.42263259285929  3.14044619911991
 6 -4.89449581098110 -2.07859656805681 -1.04258459895990
 6  2.05496345274527 -1.91451964416442  0.32008428712871
 6  2.15010103200320 -0.90918283048305 -0.57411131263126
 6 -3.58346301620162 -1.45158712401240 -1.77337462086209
 6  3.06872793599360 -0.58907965626563 -1.69915381428143
 6 -1.38711728392839 -0.51792564956496  3.85017052535254
 6 -5.67963318741874 -2.19136561686169  1.37397840344034
 6  2.58408806570657  0.47406477467747 -2.42743735373537
 6  1.90840027242724  1.04710040204020  2.68684532613261
 6  1.43253662016202  1.00071672027203 -1.67859396539654
 6  4.27932328142814 -1.44243367246725 -2.09593922402240
 6 -5.84463879998000 -2.57426951735173 -1.94304775297530
 6  5.48441399239924 -1.07191893709371 -1.14399781668167
 6  3.07270736613661  1.15604400700070 -3.60504701390139
 6  0.45817824192419  2.03403855075508 -2.01854359945995
 6  3.03735237553755  1.79024861036104  3.49533487868787
 6 -0.62592642424242  2.24174880708071 -1.18957424532453
 6 -7.15257918441844 -3.14112787688769 -1.66240479917992
 6  6.65581515111511 -2.00807906300630 -1.35484617461746
 6 -1.42682133693369  3.42050428362836 -1.22450052475248
 6 -2.27950203960396  3.36445692469247 -0.19704761096110
 6 -1.92333460586059  2.10274120762076  0.54443337533753
 6 -1.26587656605661  4.50265652585258 -2.29026079407941
 6 -3.45221585808581  4.26458694159416  0.13362760246025
 6 -1.96820071127113  5.66105152335234 -2.46306003880388
 1 -3.48824731793179 -0.41104659455946  1.15824002860286
 1 -2.80421204760476 -3.28321344634463  1.03409375847585
 1 -3.11222104190419 -2.25546899129913  2.40112950165016
 1 -0.41827713251325 -2.59465823092309 -0.06110910091009
 1 -1.96563495319532 -0.64401070457046 -0.59580368276828
 1  1.59007696909691 -0.50621207500750  4.13234533363336
 1  2.81659899279928 -0.92166405770577  2.99717464686469
 1  2.62897171107111 -2.73845542844284  0.46654970817082
 1 -2.05791842114211 -1.08455772977298  4.43770083188319
 1 -0.63230299829983  0.26514231063106  4.43827018351835
 1 -2.22968228202820  0.22938538523852  3.33250201550155
 1 -5.54561534873487 -1.67029516071607  2.29228352135214
 1 -5.96825558625862 -3.31613571817182  1.43949679597960
 1 -6.75076245304531 -1.71223686708671  0.95906226792679
 1  2.31872801220122  1.32855279717972  1.66295390669067
 1  0.93360331183118  1.61485372967297  2.90299827352735
 1  0.34014227182718  0.33450782058206 -0.02648468076808
 1  4.48739445864587 -1.44951801080108 -3.05692129402940
 1  4.30670149994999 -2.63110488968897 -2.01110821882188
 1 -5.58604074247425 -2.50831175577558 -2.97832129592959
 1  5.24891281258126 -1.23210369026903 -0.00448722502250
 1  5.85054649594959 -0.00064706080608 -1.27122160466047
 1  4.06023593509351  0.86074256635664 -3.88557678717872
 1  3.02545829742974  2.37973905260526 -3.52920525592559
 1  2.41455724502450  0.77789228712871 -4.61805495749575
 1  0.68792270227023  2.58988048454846 -2.87577846984698
 1 -7.54286337243724 -3.36174835873587 -0.68170719191919
 1 -7.75621388628863 -3.41705303580358 -2.59472252575258
 1  4.11671539903990  3.38015737673767  3.58143139733973
 1 -0.62897677647765  4.11954323382338 -2.93265116051605
 1 -4.14378296789679  4.53535011681168 -0.83894504600460
 1 -4.16021477117712  3.98334312791279  0.90903171457146
 1 -3.09946826302630  5.33185347644764  0.53251902180218
 1  8.43935962946295 -2.32109526372637 -0.88687932293229
 1 -1.77543046764676  6.29163962106211 -3.46539139133913
 1 -2.77590994389439  6.14716609240924 -1.77560346784678

