%nproc=4
%Mem=4GB
# td=(NStates=1) B3LYP/SVP 

TD

0 1
 8 -5.14739096909691  0.04881032063206 -3.24848463816382
 8  3.13532353785379  2.67273452815281  2.90238631703170
 8  3.31948029662966  0.56828222722272  3.06095798089809
 8  1.55964360386039 -7.14944121422142  1.49032753905391
 8  0.92087697569757 -6.97799422302230 -0.63025100800080
 8  1.62922997109711  4.01220434323432 -0.01214170677068
 7 -2.39730934203420 -0.98115654585459  0.73046006260626
 7 -4.34388927032703  0.57735540204020 -1.14196255105511
 7  1.74966535813581 -0.70059163216322 -0.38946742434243
 7  2.58766430833083  1.81499724522452 -0.37771451815182
 6 -4.81308769997000  1.32490398739874  0.05187098689869
 6 -4.46190358315832  0.41408157345735  1.36307366506651
 6 -3.04075917151715  0.08957921462146  1.41153316631663
 6 -1.99611870857086  0.59219417661766  2.26866003560356
 6 -0.79656626692669 -0.00529596509651  1.90765144274427
 6 -1.03243743154315 -1.00782384128413  0.93863568296830
 6 -6.34956731283128  1.47196498579858 -0.09832504790479
 6  0.45560416701670  0.18375905240524  2.57766678677868
 6 -6.61504201870187  0.89902915131513 -1.36215194389439
 6 -0.15661191729173 -1.97549628652865  0.21533361486149
 6  1.08474537073707 -1.84969451605161 -0.33041462366237
 6 -5.27683828412841  0.36735495019502 -2.06426373787379
 6  1.84607869306931 -2.86262680108011 -0.92031904120412
 6 -2.26320202110211  1.76554231113111  3.22835722592259
 6 -7.14094158735874  1.99033716291629  0.91399538543854
 6  3.07887422112211 -2.22533248444844 -1.35185643074307
 6  1.14175020232023  1.59170766416642  2.50831446734673
 6  3.00266834213421 -0.82783140874087 -1.04532852105211
 6  1.46144991519152 -4.33557952235223 -0.86185790269027
 6 -7.72581848784878  0.80164180178018 -2.12424081188119
 6  1.83557112271227 -5.05195613021302  0.44294028952895
 6  4.24845045404540 -2.95889435823582 -2.03402263356336
 6  3.93817468806881  0.15344474797480 -1.29193387578758
 6  2.67575819701970  1.44044163236324  2.74765066496650
 6  3.77476185398540  1.52012742424242 -1.03107967526753
 6 -9.10399538293829  0.69766192649265 -1.64556937223722
 6  1.43813887858786 -6.42540919111911  0.34174283328333
 6  4.55930476507651  2.58950570547055 -1.52613969706971
 6  3.89221849024902  3.73010353405341 -1.02575386968697
 6  2.51368293909391  3.31530938203820 -0.40730949364937
 6  5.86949055435544  2.58294313491349 -2.04573652875288
 6  4.24506012581258  5.23333820962096 -1.29979199259926
 6  6.71302135973597  3.49210489528953 -2.58501297819782
 1 -4.28780326642664  2.24913599369937  0.28672171247125
 1 -5.13208786568657 -0.65585706180618  1.08707345154515
 1 -4.70442728262826  0.89596359605961  2.26964387408741
 1 -3.09349838973897 -1.52289968546855  0.15988906710671
 1 -3.13912490979098  0.88954087118712 -1.20963851475147
 1  0.32458689338934 -0.32453214121412  3.65322487058706
 1  1.32361637103710 -0.53452812021202  2.38266339913991
 1 -0.64652331323132 -3.01360882588259 -0.15275027272727
 1 -3.36495664096410  1.78970023412341  3.53122311201120
 1 -1.60581179627963  1.72598196209621  4.03857224512451
 1 -1.88730511161116  2.75695951575158  2.82845026682668
 1 -6.55068851975198  2.70244904840484  1.42025425842584
 1 -7.53047281428143  1.29244905410541  1.69279629032903
 1 -7.96066200340034  2.47910399349935  0.48447692789279
 1  1.09843255165517  2.04699673627363  1.47017508480848
 1  0.66997010951095  2.24274109610961  3.26260208440844
 1  1.55829015541554  0.36369701470147 -0.41257662296230
 1  1.99073686588659 -4.75586941734173 -1.65560016971697
 1  0.35487728522852 -4.59857970547055 -1.06733521692169
 1 -7.85009607140714  0.49526975757576 -3.29159509770977
 1  1.15062725162516 -4.56189736943694  1.21579915651565
 1  2.84555082518252 -5.22442964746475  0.67356517141714
 1  3.77740280258026 -3.95856330853085 -2.50724418551855
 1  5.13755485388539 -3.20883973417342 -1.47233085068507
 1  4.41086251935193 -2.05254748734873 -2.95368444204420
 1  4.77665728522852 -0.45816791129113 -1.84275045074507
 1 -9.22270587108711  0.76237369286929 -0.55696838663866
 1 -10.05862399599960  0.57967938363836 -2.06138223822382
 1  4.09834452095210  2.65176856055606  3.10111487718772
 1  6.04451791999200  1.50712286148615 -1.90732954795480
 1  5.31037173697370  5.52040480468047 -0.99672829272927
 1  4.17826984948495  5.61387815351535 -2.36126867176718
 1  3.36871454105411  5.63885349174917 -0.61075281688169
 1  1.52464977307731 -8.27111826892689  1.21621767666767
 1  7.66914935933593  3.03732927282728 -2.84883215651565
 1  6.39178106560656  4.49990550275028 -2.85283763626363

