%nproc=4
%Mem=3GB
# td=(NStates=1) B3LYP/SVP 

TD

0 1
 8 -3.02809972017202 -1.49647470297030 -2.84922557685769
 8  3.20676113091309  3.01987364586459  3.17135140604060
 8  4.15489979817982  1.20837796609661  4.09853429702970
 8  7.54904350725073 -1.59828594279428 -0.51288205000500
 8  6.78896305270527 -2.82299309420942 -2.34424087218722
 8 -2.73336424292429  1.73154864396440  1.35505556605661
 7 -0.44127987418742 -2.36109242354235  0.96490133093309
 7 -2.63465550355035 -1.22269740474047 -0.62332447704770
 7  1.17064861426143  0.23469437913791 -0.61457639483948
 7 -1.15273441894189  1.50135554345435 -0.28439933783378
 6 -3.48740389008901 -1.27048461086109  0.60881785568557
 6 -2.70986961306131 -2.15705985218522  1.70993630043004
 6 -1.32922856455646 -1.94163197719772  1.89161715031503
 6 -0.62396219851985 -1.12622381408141  2.85540356085609
 6  0.70227133973397 -1.13337833883388  2.50866206080608
 6  0.79267195339534 -1.83677011171117  1.23331813581358
 6 -4.80071501810181 -1.93504915361536  0.18011489878988
 6  1.89867445884588 -0.42103243284328  3.31390354485449
 6 -4.80260662206221 -2.08365707410741 -1.09770011051105
 6  1.98665662206221 -1.92208040024002  0.35308758745875
 6  2.00178620052005 -0.91942385458546 -0.64271817331733
 6 -3.49615428532853 -1.49958192349235 -1.67617490089009
 6  2.89180024322432 -0.72679342764276 -1.75399929882988
 6 -1.24308288048805 -0.47958181518152  4.04845035333533
 6 -5.87421264536454 -2.25857233753375  1.20603160876088
 6  2.51586124302430  0.55594296249625 -2.34734934493449
 6  1.94063349574957  1.03360905290529  2.80411705330533
 6  1.44978834533453  1.04342099069907 -1.67003310931093
 6  4.14666001510151 -1.51450087918792 -2.00831046114611
 6 -5.84183851995200 -2.69262135253525 -2.04885833403340
 6  5.32089764076408 -1.08322006720672 -1.28061147804780
 6  3.27566766216622  1.09020742334233 -3.52317882708271
 6  0.56300872497250  2.13367851475147 -1.88833057815782
 6  3.21276991729173  1.72690227572757  3.43151849704971
 6 -0.52709654125413  2.38929356155616 -1.12625791369137
 6 -6.77909183568357 -3.50003376747675 -1.72206076477648
 6  6.56703627322732 -2.01517977307731 -1.43675436543654
 6 -1.33240189498950  3.62475470867087 -1.19862793749375
 6 -2.27037112651265  3.44710518951895 -0.21809971617162
 6 -2.07763003540354  2.10759169266927  0.41832076407641
 6 -1.25528550695070  4.61543780398040 -2.24027579557956
 6 -3.41868250475048  4.25815629852985  0.08774301400140
 6 -1.98934282548255  5.65528094629463 -2.41874560736074
 1 -3.56961545474547 -0.45787127702770  1.12711691629163
 1 -2.96097772417242 -3.22837796279628  1.48864921402140
 1 -3.01651147094709 -1.95435888028803  2.81047043574357
 1 -0.76130143494349 -2.69707847294729 -0.05704869486949
 1 -1.93285167486749 -0.46175247874787 -0.79340344274427
 1  1.69538750015001 -0.52484393819382  4.23620571967197
 1  2.69468680158016 -0.95296718801880  2.97428235763576
 1  2.55472428632863 -2.77478906180618  0.31311436463646
 1 -2.01776440574057 -0.95943521752175  4.67229429122912
 1 -0.64108387638764  0.18828462486249  4.66674303080308
 1 -2.03460277407741  0.19952239893989  3.55920468576858
 1 -5.96642742994299 -1.53403153435344  2.03888818181818
 1 -5.89547830853085 -3.34564866946695  1.38716156245625
 1 -6.86769414621462 -2.13595923932393  0.62335869756976
 1  1.84690082948295  1.12331227312731  1.63449106040604
 1  1.11305125662566  1.69113135743574  3.23264123782378
 1  0.15292354995500  0.47190155995600 -0.17433946624662
 1  4.34967068626863 -1.46562962196220 -3.08029363126313
 1  4.03329415921592 -2.62446422562256 -2.07887499549955
 1 -5.62940507890789 -2.46342726732673 -3.15672913671367
 1  5.28291621292129 -1.07842832273227  0.08947217091709
 1  5.61732317361736 -0.02764976107611 -1.19955443794379
 1  4.09286919841984  0.66461295339534 -3.92656088558856
 1  3.56320207180718  2.18053913261326 -3.38165050045005
 1  2.35827161646165  1.02060655855586 -4.38787193919392
 1  0.84828873887389  2.68411990849085 -2.65513640564056
 1 -6.98555764186419 -3.79150133403340 -0.64172319351935
 1 -7.44439270417042 -3.99715104560456 -2.60080313381338
 1  3.94444817231723  3.41598095909591  3.51199445364536
 1 -0.46856073487349  4.46373765326533 -2.92901079647965
 1 -4.02352094169417  4.64050063186319 -0.83070422192219
 1 -4.16354510421042  3.79428422202220  0.97194800620062
 1 -3.09111742794279  5.21445173627363  0.62088785868587
 1  8.39882557605761 -2.08721187538754 -0.99335997099710
 1 -1.70671359595960  6.45089554665467 -3.15888074027403
 1 -2.91326367926793  5.96833820962096 -1.68886479397940

