%nproc=4
%Mem=4GB
# td=(NStates=1) B3LYP/SVP 

TD

0 1
 8 -5.17596382638264  0.14237967756776 -3.20833062276228
 8  3.06173617911791  2.93940119481948  3.41235731413141
 8  3.31813016161616  0.73619901890189  3.07208909400940
 8  1.77164480398040 -7.22573884398440  1.54485299159916
 8  0.74109899789979 -7.12771919551955 -0.48849683258326
 8  1.71111815991599  3.92902602540254  0.06676618401840
 7 -2.44916452755275 -1.01186961716172  0.61851886848685
 7 -4.32866774817482  0.51919958645865 -1.12204055885589
 7  1.78608900050005 -0.70357193019302 -0.44080255785579
 7  2.64079962186219  1.87703344884488 -0.53470021672167
 6 -4.71642803400340  1.21083258025803  0.10450625042504
 6 -4.51862925572557  0.27444761006101  1.34984234193419
 6 -3.00321541714171  0.00018027472747  1.40967298029803
 6 -2.00087918461846  0.52396735393539  2.23176634623462
 6 -0.77577418771877 -0.05381081658166  1.81593227082708
 6 -1.00924511231123 -1.02023508240824  0.80897271667167
 6 -6.21413376947695  1.40314810411041 -0.15975119051905
 6  0.60711931853185  0.22078275477548  2.51873089318932
 6 -6.63582409690969  0.96578582698270 -1.36473220192019
 6 -0.19074533063306 -1.99071780868087 -0.02007992649265
 6  1.13183007920792 -1.85628517511751 -0.32143372557256
 6 -5.28044864516452  0.41305952065207 -2.01101841334133
 6  1.90869495469547 -2.94011454985499 -0.93478048734873
 6 -2.25844154505451  1.59762551945195  3.33561795199520
 6 -7.15915340854085  2.08865699489949  0.84876886278628
 6  3.11153748744875 -2.32193214441444 -1.32540378547855
 6  1.07617364466447  1.67186567996800  2.62752638853885
 6  3.05116319161916 -0.95581420702070 -1.02444643284328
 6  1.52240601080108 -4.33821978637864 -0.95691740864086
 6 -7.83010891689169  0.87993963156316 -2.13862225002500
 6  1.67840540614061 -5.09427036163616  0.39768576407641
 6  4.27341295029503 -2.92689115791579 -2.04007323862386
 6  3.95583645424542  0.16024542804280 -1.38786346874687
 6  2.57442806400640  1.74631221942194  2.99861576147615
 6  3.72205658345835  1.53946935843584 -1.12811937923792
 6 -9.09157414081408  0.93381554185419 -1.63813862916292
 6  1.35210027472747 -6.56816346654665  0.36214487348735
 6  4.55096393099310  2.68726548144814 -1.49690677377738
 6  3.90524979337934  3.72551307500750 -1.01185247954795
 6  2.62883445424542  3.24537238833883 -0.41000976367637
 6  5.85441904720472  2.48071291189119 -2.13617557265727
 6  4.10226584638464  5.17535241104110 -1.14915692909291
 6  6.56990704830483  3.47895358015802 -2.91571604850485
 1 -4.23244773087309  2.19408048814881  0.25517855815582
 1 -5.07887254415442 -0.62616409250925  0.99285402960296
 1 -5.04169100900090  0.70964496419642  2.13785069476948
 1 -2.89900894079408 -1.45797319281928 -0.31050797259726
 1 -3.40658165546555  0.21482339943994 -1.43029057995800
 1  0.59976441114111 -0.27756744474447  3.50053960206021
 1  1.40818482788279 -0.29391405880588  1.97363249604960
 1 -0.58873753465347 -2.75570303530353 -0.30165516321632
 1 -3.19839998529853  1.79231049514951  3.65641563126313
 1 -1.64580579567957  1.39944930883088  4.15129351725173
 1 -1.84738111921192  2.51600542034203  2.95815323712371
 1 -6.31633508440844  3.00978978247825  1.15880811381138
 1 -7.51769153615362  1.53355316451645  1.83319032973297
 1 -8.29952588978898  2.51013709680968  0.32721120132013
 1  1.04141685008501  2.27243928052805  1.74476254355436
 1  0.58704181668167  2.30366718871887  3.24349017321732
 1  1.50791511791179  0.19438008300830 -0.16854221952195
 1  2.07612540474047 -4.79164299469947 -1.80263487318732
 1  0.40863266076608 -4.40233008050805 -1.19596808020802
 1 -7.77985904770477  0.93250348094809 -3.16028196639664
 1  1.02030421932193 -4.86374755445544  1.30016759335934
 1  2.81296756685669 -4.89076628112811  0.56451426632663
 1  4.23619868216822 -3.99561701390139 -2.06752021312131
 1  5.21898299669967 -2.58984783498350 -1.54980859845985
 1  4.29971140424042 -2.37968020062006 -2.90822989658966
 1  4.78598821832183 -0.29512160666067 -1.74841101680168
 1 -9.38744234473447  0.99506696219622 -0.45670836063606
 1 -9.80272840644064  0.66565798149815 -2.38780488048805
 1  4.02241692819282  2.96596998069807  3.41232599829983
 1  6.31332480068007  1.47548969816982 -2.01743055805581
 1  5.19379007880788  5.53737650185019 -0.73827244714471
 1  3.99930195269527  5.61561832753275 -2.14258680358036
 1  3.28462613221322  5.72563216961696 -0.70152189378938
 1  1.49168647674767 -8.18067922502250  1.47611366626663
 1  7.44542698709871  3.11604714461446 -3.38642591589159
 1  6.22826471397140  4.55592110431043 -3.32334468696870

