%nproc=4
%Mem=3GB
# td=(NStates=1) B3LYP/SVP 

TD

0 1
 8 -3.44419132933293 -1.31426648214821 -2.80749140344034
 8  3.11234168896890  3.12815447394739  3.22382665356536
 8  3.45700000820082  1.41105823412341  4.69885432903290
 8  7.75564416731673 -1.43382949714972 -0.74401516331633
 8  6.67943209960996 -2.93110390529053 -2.02971942004200
 8 -2.69716062256226  1.61665715481548  1.36920698119812
 7 -0.23897964416442 -2.37778409270927  0.87335217601760
 7 -2.78074011201120 -1.24319945494549 -0.67770991559156
 7  1.22372392179218 -0.01788087838784 -0.72481741894189
 7 -1.07343648914892  1.49454486238624 -0.28450934883488
 6 -3.33750890059006 -1.40606816921692  0.64373134703470
 6 -2.66066469256926 -2.48852299849985  1.44888019481948
 6 -1.17253289498950 -2.14627244124412  1.73279126772677
 6 -0.53198300060006 -1.22671386308631  2.70181820232023
 6  0.83698481108111 -1.11403640464046  2.37505870047005
 6  1.00484317051705 -1.84795122982298  1.18861366536654
 6 -4.72880782738274 -1.93336898559856  0.28729561686169
 6  1.87456204760476 -0.34663499309931  3.10598275277528
 6 -5.02800916231623 -2.05077378577858 -0.99569991049105
 6  2.23235119151915 -1.81286947914791  0.35531781048105
 6  2.19590561246125 -0.86201811401140 -0.70856475797580
 6 -3.68036270617062 -1.47538950425043 -1.67517480088009
 6  3.09023008620862 -0.68900964926493 -1.89665356425643
 6 -1.27175574777478 -0.50060391739174  3.88401390969097
 6 -5.65677090119012 -2.13866034633463  1.36050705630563
 6  2.73478313521352  0.50096746494649 -2.45404001400140
 6  1.87044647704770  1.12444813681368  2.80539718131813
 6  1.47753111961196  0.93143979257926 -1.77631373737374
 6  4.25340068916892 -1.53238266736674 -2.05157478757876
 6 -6.08052238833883 -2.42315440584058 -1.90856430463046
 6  5.39038458945895 -1.09289103430343 -1.15324874177418
 6  3.16570666606661  1.09019742234223 -3.67068357755776
 6  0.57722014611461  2.09011415831583 -1.96973871897190
 6  2.92047068736874  1.88113769926993  3.66636198139814
 6 -0.61742557415742  2.16557118931893 -1.37926321422142
 6 -7.14295822232223 -3.17407117121712 -1.45708426712671
 6  6.65055462506251 -1.92147040214021 -1.35403609360936
 6 -1.40718937373737  3.36153838703870 -1.31713978867887
 6 -2.24468855825583  3.38494897389739 -0.23089099529953
 6 -2.00742301470147  2.03090402390239  0.42545147714771
 6 -1.25912589098910  4.44165042524252 -2.32295406340634
 6 -3.26544718121812  4.36877736063606  0.24282852255225
 6 -1.80669456065607  5.67759317751775 -2.29231296409641
 1 -3.46116460966097 -0.41963745364536  1.23076728132813
 1 -2.60769239563956 -3.59728485348535  1.01322167126713
 1 -2.97879769956996 -2.65763920832083  2.48323771247125
 1 -0.49937524232423 -2.83706247134713 -0.11654464446445
 1 -2.15722411211121 -0.60848715221522 -0.91342544494449
 1  1.62492045344534 -0.32330378417842  4.19467156625663
 1  3.03937127002700 -0.74490638193819  2.91733666306631
 1  2.91022983688369 -2.71738332123212  0.21698475167517
 1 -2.18282091139114 -1.20494976897690  3.98091515331533
 1 -0.69411917991799 -0.70675487908791  4.91749810631063
 1 -1.65879519331933  0.36069851655165  3.43483224852485
 1 -5.46970775797580 -1.31873000420042  2.17288158115812
 1 -5.49310807150715 -3.02748685328533  2.09535238153815
 1 -6.70538791559156 -1.92338798219822  0.94574093579358
 1  2.21240738013801  1.47005694759476  1.74407201850185
 1  1.00423037453745  1.71785402970297  2.74336230993099
 1  0.49148740634063  0.30503487328733  0.01379934763476
 1  4.56312203140314 -1.25786884588459 -3.01408701060106
 1  4.24697552735274 -2.57781956115612 -2.02011911991199
 1 -5.95603774217422 -1.98783970857086 -2.96342980678068
 1  4.94814273557356 -1.50680116001600 -0.17917469376938
 1  5.57400884218422  0.00971397529753 -1.09282376487649
 1  3.77615752725273  0.15962245434543 -4.09460769026903
 1  3.99766551815181  2.02357343604360 -3.77124946034603
 1  2.36444223352335  1.39287378527853 -4.49075222722272
 1  0.94369827982798  2.87846934343434 -2.79944083608361
 1 -7.26800588668867 -3.75162734663466 -0.66065508670867
 1 -7.90878914381438 -3.30363169366937 -2.30280333383338
 1  3.78397212471247  3.43809317031703  4.14697795199520
 1 -0.70525440424042  4.11654293379338 -3.36549444484448
 1 -3.86964555415542  4.93228981078108 -0.47650880238024
 1 -4.01579032873287  3.98636342994299  0.94234504590459
 1 -2.65561387758776  5.19772006310631  0.68124389428943
 1  8.53977967146715 -2.03870702490249 -0.95961659665967
 1 -1.70326325092509  6.15868632573257 -3.11049590179018
 1 -2.03877623052305  6.25363673947395 -1.11463737123712

