%nproc=4
%Mem=3GB
# td=(NStates=1) B3LYP/SVP 

TD

0 1
 8 -3.27311422162216 -1.36527158265827 -2.87815847014701
 8  3.08016847164716  3.12687434593459  3.00597486838684
 8  3.58787309550955  1.47571469976998  4.47150159375938
 8  7.64974357725773 -1.71957807200720 -0.62719348114811
 8  6.64137829422942 -2.95739653455345 -2.15102155025503
 8 -2.60627153365337  1.58935442454245  1.41649170967097
 7 -0.31899764596460 -2.42414872917292  0.92377721852185
 7 -2.66018805680568 -1.14859999499950 -0.65405755035504
 7  1.11283283268327  0.04566547624762 -0.74780971817182
 7 -0.97340648614861  1.49764517241724 -0.19959085698570
 6 -3.39900505020502 -1.35622318471847  0.64425139903990
 6 -2.59091771787179 -2.30886503270327  1.58910421722172
 6 -1.18170381208121 -1.99880769476948  1.77929591819182
 6 -0.53870367266727 -1.19013020472047  2.71756977747775
 6  0.81735284788479 -1.18972397339734  2.42520371497150
 6  0.95856854305431 -1.87329376407641  1.22145694969497
 6 -4.68095304190419 -1.89666531523152  0.25594248154815
 6  1.85754034543454 -0.35147547714771  3.19690184468447
 6 -4.72811917331733 -2.00641935033503 -1.07038737923792
 6  2.08604656105611 -1.94348254045405  0.30560283898390
 6  2.12552857475748 -0.94557646984698 -0.66907080858086
 6 -3.58186285618562 -1.53595556085609 -1.70495777917792
 6  3.00062112531253 -0.75873662196220 -1.76339023792379
 6 -1.28190676287629 -0.42082593959396  3.84247975627563
 6 -5.67769299339934 -2.30157663796380  1.29516052165217
 6  2.50070972787279  0.43628099629963 -2.46609121912191
 6  1.88300773317332  1.12215790779078  2.75269191079108
 6  1.35549891639164  0.92634928352835 -1.81007711371137
 6  4.31961731083108 -1.40304973407341 -2.04972460256026
 6 -5.83665800190019 -2.47309940034003 -2.04124757295730
 6  5.39239479047905 -1.11364310951095 -1.07375079197920
 6  3.12049214461446  1.12253065566557 -3.65137164636464
 6  0.50812323642364  2.03293844074407 -1.92625437053705
 6  2.89525816611661  1.96269585508551  3.52155750095009
 6 -0.57058088968897  2.33194782698270 -1.26040132803280
 6 -6.97020094659466 -3.15723948804881 -1.60874943364336
 6  6.58895846544654 -2.07208546364636 -1.38306899689969
 6 -1.47062571737174  3.48345057825783 -1.30645872057206
 6 -2.28689277867787  3.34445492449245 -0.11657956415642
 6 -1.95740801320132  2.01567250075008  0.52645157715772
 6 -1.20972095049505  4.64916117631763 -2.10872264026403
 6 -3.45877651415142  4.27965844874487  0.42038627832783
 6 -2.01988587978798  5.69627504570457 -2.39234296709671
 1 -3.44879337253725 -0.38738422832283  0.99648385298530
 1 -2.62428405480548 -3.23534865986599  1.24647499659966
 1 -2.99226904670467 -2.33345679007901  2.57138652735274
 1 -0.53399870467047 -2.96428519361936 -0.00042303230323
 1 -1.72393078277828 -0.49419572307231 -0.95924002640264
 1  1.77745570697070 -0.20135158895890  4.42214431353135
 1  2.77186451935194 -0.78632052335234  3.08875380478048
 1  2.83355216911691 -2.80512209510951  0.57809086228623
 1 -2.03884651395139 -0.98064733873387  4.38683574537454
 1 -0.51515128312831  0.18938473487349  4.42709906640664
 1 -1.78869818361836  0.43044549124913  3.19898866416642
 1 -5.45380616781678 -1.37371550275028  2.00722501550155
 1 -5.52344110481048 -3.35231933653365  1.68988183448345
 1 -6.60514789158916 -2.14809045244524  0.91297765946595
 1  2.18855499489949  1.06413635553555  1.63401101240124
 1  0.69458941044104  1.58536078037804  2.74127210091009
 1  0.50534879247925  0.26953132293229  0.14686265396540
 1  4.58126384558456 -1.16327938693869 -3.18943454535454
 1  4.05890672047205 -2.48324010321032 -2.21013812181218
 1 -5.54051619001900 -2.27902882748275 -3.24442790659066
 1  4.97291521282128 -1.39820029992999 -0.07612438873887
 1  5.70176161746175 -0.17195419151915 -1.10761524402440
 1  3.82063197469747  0.39421591369137 -4.21659988948895
 1  3.76437218881888  1.89905098379838 -3.22373470887089
 1  2.23800959025903  1.77637213511351 -4.26938009000900
 1  0.78388229822982  2.53761525802580 -2.81467235923592
 1 -7.11757084318432 -3.19478166206621 -0.53584260546055
 1 -7.69384764966497 -3.47980931143114 -2.46990004350435
 1  3.71534526202620  3.64116347734773  3.50185343954395
 1  0.09250537173717  4.76460774027403 -2.49784768016802
 1 -4.04709329892989  4.43121970377038 -0.50299145064506
 1 -3.83060180988099  3.79929472307231  1.21827263866387
 1 -2.96753506970697  5.33927421852185  0.66506227612761
 1  8.40285597909791 -2.43045619981998 -0.85377601260126
 1 -1.66464938953895  6.53128358545855 -3.02197704990499
 1 -3.32079443234323  5.77986936273627 -2.06855276277628

