%nproc=4
%Mem=3GB
# td=(NStates=1) B3LYP/SVP 

TD

0 1
 8 -3.36686359655966 -1.47191224672467 -3.00331098539854
 8  3.29453990879088  3.02292395089509  2.99661393229323
 8  3.60422473067307  1.30341747004700  4.55840028362836
 8  7.68231683458346 -1.71284739893989 -0.57643840564056
 8  6.55254941134113 -3.04433522842284 -2.04690113821382
 8 -2.50119102560256  1.63034852395240  1.55295535603560
 7 -0.29107485368537 -2.31101741604160  0.80407524832483
 7 -2.73692573057306 -1.21150628562856 -0.66589873447345
 7  1.30258180758076  0.14934584428443 -0.55009994719472
 7 -1.01605075057506  1.52737814571457 -0.20595149304931
 6 -3.41911706140614 -1.31936949934994  0.55832280618062
 6 -2.62645127122712 -2.31579572577258  1.51392669946995
 6 -1.25791143284328 -1.96581439543954  1.71988997759776
 6 -0.57611741404140 -1.21251244294429  2.85936395689569
 6  0.77255836843684 -1.18896389738974  2.52390358495850
 6  1.01590427662766 -1.85091152585259  1.28735353935394
 6 -4.78362330893089 -1.95318096679668  0.21951883918392
 6  1.89527411881188 -0.44725505510551  3.23755591009101
 6 -4.89287564896490 -2.04770347874787 -1.10415075557556
 6  2.17682563896390 -1.83939213141314  0.31031331003100
 6  2.20845686758676 -0.79733164536454 -0.58713261476148
 6 -3.59141381128113 -1.55936790209021 -1.73714099749975
 6  3.05838690189019 -0.57063781208121 -1.69500339923992
 6 -1.29061763396340 -0.37078093509351  3.94348985728573
 6 -5.78993421752175 -2.30217669796980  1.38444945054505
 6  2.54545420232023  0.56610397859786 -2.39318392839284
 6  2.05296472887289  0.98674436643664  2.62206884848485
 6  1.49221258775878  1.08351500010001 -1.58992509850985
 6  4.18704405350535 -1.35046447554755 -2.09053868396840
 6 -5.88859319541954 -2.63644573497350 -1.97391083928393
 6  5.50016556755676 -0.98646039123912 -1.27375079197920
 6  3.05881597699770  1.06693509610961 -3.72126863606361
 6  0.60717314141414  2.07912305920592 -1.97803954905491
 6  3.06617525782578  1.76533611911191  3.51672701790179
 6 -0.60334416601660  2.36034066626663 -1.17697298519852
 6 -7.06411033753375 -3.34662842694269 -1.73907246594659
 6  6.61539110871087 -1.99051730683068 -1.37817850785079
 6 -1.44190284508451  3.58789102230223 -1.25564363906391
 6 -2.38423251265127  3.38548902790279 -0.16676458265827
 6 -2.07436970937094  2.21472240574057  0.54887381938194
 6 -1.26932691109111  4.59411567176718 -2.28679044704470
 6 -3.36333697019702  4.33688417131713  0.26125036473647
 6 -2.08448233943394  5.69721513971397 -2.53787752055206
 1 -3.49830832403240 -0.37179266916692  1.21752595719572
 1 -2.57122874927493 -3.26991211621162  0.96022637173717
 1 -3.21379119891989 -2.24839828422842  2.57287667636764
 1 -0.35973127792779 -2.68558732383238 -0.08151114111411
 1 -1.74733312301230 -0.68127443094309 -0.81663576597660
 1  1.63105106650665 -0.26948840264026  4.22662476157616
 1  2.83973130603060 -0.97690958225823  2.98799372877288
 1  2.83516233013301 -2.74748633153315  0.38811186438644
 1 -2.26905953525353 -0.92104137813781  4.30451751355135
 1 -0.78437820582058 -0.24794899849985  4.99438579507951
 1 -1.63274258805881  0.61982442914291  3.44936370167017
 1 -5.88365915311531 -1.26007413861386  2.10513480648065
 1 -5.54676343704370 -3.26869097369737  1.80293313961396
 1 -6.68285566236624 -2.29231487488749  0.78583494519452
 1  2.55505164456446  0.92375231713171  1.50539815111511
 1  1.08709866136614  1.48127037133713  2.57862583628363
 1  0.42082033963396  0.14595896569657 -0.03204523682368
 1  4.27702342154215 -1.65933899289929 -3.25575117701770
 1  4.03448427822782 -2.24306608580858 -1.74372148014801
 1 -5.68772091049105 -2.44897582218222 -2.93416688048805
 1  5.19902782408241 -1.06388686858686 -0.21992876917692
 1  5.81419286058606 -0.03905090119012 -1.47457193969397
 1  3.74881479297930  0.27055354745475 -4.28277650715072
 1  3.68506425802580  1.96134721342134 -3.33350568596860
 1  2.11041683098310  1.20749524742474 -4.29580273227323
 1  0.62053596359636  2.52244374087409 -2.94230512251225
 1 -7.25317440354035 -3.63240542444244 -0.79941896309631
 1 -7.67123538843884 -3.80530186068607 -2.54666772027203
 1  3.92544627212721  3.46797615861586  3.42512576677668
 1 -0.59032291109111  4.39846112561256 -2.94520241564156
 1 -4.11755034463446  4.53336991879188 -0.58418957045705
 1 -3.85320407010701  3.96599139273927  1.15608642004200
 1 -3.05065338153815  5.46343663476348  0.47021279117912
 1  8.37494318781878 -2.30382353655366 -0.66048668366837
 1 -2.07066999159916  6.37162761986199 -3.23466831903190
 1 -2.90816316921692  5.85830720652065 -1.84800070757076

