%nproc=4
%Mem=4GB
# td=(NStates=1) B3LYP/SVP 

TD

0 1
 8 -5.50819704970497  0.11545698529853 -3.24382417211721
 8  2.80505051055106  2.96485374007401  3.21496757515752
 8  3.34096244484448  0.77037243624362  2.99373125822582
 8  1.90641828132813 -7.32428869896990  1.33993249954996
 8  0.73818870687069 -7.04503092669267 -0.55280326322632
 8  1.87286433453345  4.01851497429743  0.14248375577558
 7 -2.42168177927793 -1.10372880308031  0.67296431303130
 7 -4.46089097049705  0.56053371987199 -1.16625498029803
 7  1.85760615221522 -0.62018359135914 -0.33102157975798
 7  2.59447498939894  1.90353609910991 -0.62792953965397
 6 -4.89588597979798  1.22154365136514  0.05037083688369
 6 -4.43580097289729  0.34413457875788  1.28633599129913
 6 -2.93919901550155 -0.00560030333033  1.33096510951095
 6 -1.93474257095710  0.65502045924592  2.03288645824582
 6 -0.68461507180718 -0.01734717021702  1.74164484208421
 6 -1.04117830563056 -1.03384644354435  0.80664248364836
 6 -6.38593094919492  1.35071286058606 -0.06290150555055
 6  0.55972457905791  0.18650932743274  2.45550457055706
 6 -6.75043555805581  0.93752300070007 -1.37222295099510
 6 -0.19575583168317 -1.98826756365637  0.26690877237724
 6  1.12158905510551 -1.81944149074908 -0.23088467066707
 6 -5.56995759605961  0.48349656435644 -2.13436074757476
 6  1.98615270047005 -2.85880641904190 -0.76873388268827
 6 -2.13918961986199  1.67803356025603  3.11983637383738
 6 -7.16844433763376  2.07453558275828  0.99236322222222
 6  3.11532786648665 -2.30660061126113 -1.22740398549855
 6  1.12910893819382  1.59932842624262  2.43546718261826
 6  3.02310038533853 -0.92797142274227 -0.95429941814181
 6  1.36928069826983 -4.28988495289529 -0.92866458335834
 6 -8.06516242224222  0.85216685428543 -2.06339472727273
 6  1.81767933353335 -5.09990092469247  0.41010700620062
 6  4.26902251125113 -3.05338380718072 -1.87883711501150
 6  4.06308717931793 -0.01226182268227 -1.33171785418542
 6  2.50225084628463  1.65008259645965  2.87698359825983
 6  3.78735311311131  1.48233364486449 -1.06064263156316
 6 -9.24218920232023  0.74510667096710 -1.50476529182918
 6  1.45196026072607 -6.54050070027003  0.26172483148315
 6  4.65877471207121  2.66602335723572 -1.43072015511551
 6  3.99032830123012  3.77484800850085 -1.08349964426443
 6  2.79470104090409  3.30430828192819 -0.43398216091609
 6  5.92869647494750  2.43690853145315 -2.02935489058906
 6  4.39244486428643  5.22660753655366 -1.26231824522452
 6  6.72618267586759  3.51678736353635 -2.49288376527653
 1 -4.25174966106611  2.00783186328633  0.19449248954895
 1 -5.09689434633463 -0.54269574567457  1.29411415561556
 1 -4.53484032393239  0.97953195289529  2.07152406210621
 1 -2.91054009390939 -1.67071446694670  0.00271334953495
 1 -3.52200319761976  0.72807472457246 -1.64626217711771
 1  0.63487792249225 -0.18348803680368  3.48925847394740
 1  1.30251426082608 -0.40372503990399  1.95212034483448
 1 -0.64003266416642 -2.94413187818782 -0.14213921162116
 1 -3.16995714101410  1.94535579967997  3.23262325202520
 1 -1.69896111121112  1.51750111401140  3.92065045294530
 1 -1.44780116121612  2.56368018781878  2.74098151995200
 1 -6.60559401030103  2.65442424592459  1.61286351935193
 1 -7.82601236823682  1.46280608980898  1.50543755445545
 1 -7.80891682888289  2.64341042414241  0.54305278547855
 1  1.10992370077008  2.12359439603960  1.50510857815782
 1  0.83703681618162  2.40732755475548  3.10913673787379
 1  1.56907123352335  0.39110975597560 -0.21410677597760
 1  1.85029282148215 -4.79116294669467 -1.84772938263826
 1  0.36994879237924 -4.42386223372337 -1.17829631303130
 1 -7.94411547334733  0.69242947354735 -3.09087502570257
 1  1.29303149204920 -4.78856003570357  1.28856643324332
 1  2.88323459355936 -4.88565577007701  0.60771858675868
 1  4.02079714201420 -4.07193464566457 -1.72960642174217
 1  5.27075817421742 -2.53359220942094 -1.60123374097410
 1  4.13645507860786 -2.85056728932893 -3.06955602920292
 1  4.82369198869887 -0.57163925842584 -1.96643281898190
 1 -9.20563416391639  0.86932438793879 -0.34415710551055
 1 -10.21125925952595  0.84807622332233 -2.18138423842384
 1  3.63611829832983  3.14073745744575  3.53698846454645
 1  6.23924739293929  1.44428657785779 -2.23974278927893
 1  5.05210591039104  5.35533829802980 -0.31242986288629
 1  4.82815483798380  5.44367113281328 -2.32849539443944
 1  3.55889355895590  5.85553515991599 -1.12196393799380
 1  1.55932324042404 -8.16129728682868  1.28021407630763
 1  7.63385582998300  3.29778531843184 -3.06700397369737
 1  6.20019190669067  4.39546505870587 -2.37171952445245

