%nproc=4
%Mem=4GB
# td=(NStates=1) B3LYP/SVP 

TD

0 1
 8 -5.46624285428543 -0.05690025042504 -3.25874566426643
 8  2.89502950845085  3.03526078077808  3.18915499389939
 8  3.18751710031003  0.74962036103610  2.98679056415642
 8  1.68217585708571 -7.07117338743874  1.44670317661766
 8  0.59660454845485 -6.94935135873587 -0.52292027492749
 8  1.92546959505951  4.07423054585459  0.06124563196320
 7 -2.42717232833283 -0.84536296649665  0.49721673827383
 7 -4.45803068446845  0.45043270977098 -1.30602895769577
 7  1.85234562616262 -0.70441201420142 -0.27861633923392
 7  2.65508105000500  1.90759650515051 -0.37723447014702
 6 -4.71798819001900  1.14915641264126 -0.04263846404640
 6 -4.47058445124512  0.22496266156616  1.20797815551555
 6 -2.97590268586859 -0.02352209550955  1.35180719371937
 6 -1.94754385108511  0.64612957015702  2.10816398599860
 6 -0.75546215651565 -0.07117255275528  1.80655133273327
 6 -1.01801598939894 -0.99989304820482  0.69546136553655
 6 -6.30264262036204  1.44813260256026 -0.15965118051805
 6  0.53250185678568  0.15860653715372  2.56652567266727
 6 -6.71180169466947  0.74166341474147 -1.22467819651965
 6 -0.20963721982198 -2.00922965986599 -0.00451837033703
 6  1.10255715191519 -1.85334488108811 -0.41587316951695
 6 -5.48982958325833  0.39621783648365 -2.11487879937994
 6  1.90631471667167 -2.82570310871087 -1.02553956325633
 6 -2.20152585348535  1.53876963386339  3.27853224342434
 6 -7.01999949314931  2.10568869806981  0.97584157005701
 6  3.18862519621962 -2.31393134433443 -1.27059830493049
 6  1.05827185448545  1.58986748014801  2.41270490639064
 6  3.13169124442444 -0.86641526712671 -0.95884987318732
 6  1.49472324252425 -4.31483744814481 -1.07124884178418
 6 -8.02602850885089  0.71563320092009 -1.93173156095610
 6  1.79856742234223 -5.07805874047405  0.30964696019602
 6  4.46053166216622 -2.98186665546555 -1.74845407670767
 6  4.00731160176018  0.16870627412741 -1.19864454685469
 6  2.51835245644564  1.70910849904990  2.86898279817982
 6  3.71578595639564  1.51161657315732 -0.97313388068807
 6 -9.20984596799680  0.83434559485949 -1.27157197249725
 6  1.25358042274227 -6.38108475867587  0.35021368036804
 6  4.59653848844884  2.62584933983398 -1.39568665176518
 6  4.04346361476148  3.71133165686569 -1.01841313561356
 6  2.71918348914892  3.40273812491249 -0.43755251795180
 6  5.85547915321532  2.44648948954896 -2.16094804990499
 6  4.45856147594759  5.13402827862786 -1.12953496689669
 6  6.64531458905891  3.38256394119412 -2.75244972187219
 1 -4.11448593469347  2.19292037213721  0.23437647794780
 1 -4.89382403930393 -0.76466794289429  1.14183892809281
 1 -5.00865770567057  0.57170116981698  2.21727863756376
 1 -3.01367040694069 -1.45853324882488 -0.16927384918492
 1 -3.58078907620762  0.28210012711271 -1.92244979587959
 1  0.42893732843284 -0.30037972597260  3.66752630073007
 1  1.29521353075308 -0.64418908630863  2.22018715151515
 1 -0.68918757965796 -2.97784524952495 -0.25906090379038
 1 -3.20648079337934  2.05350661476148  3.33593358305831
 1 -1.72893410851085  1.10020938483848  4.25169355725573
 1 -1.46000238133813  2.43550737053705  3.14859228102810
 1 -6.39079253015302  2.95588439193919  1.38792102510251
 1 -7.02746251325132  1.11808161736174  1.80249726042604
 1 -7.97679361656166  2.32055813891389  0.47024550475048
 1  0.98978168656866  2.06803884048405  1.46751481878188
 1  0.49407251975197  2.16647346934693  3.14250007420742
 1  1.78982330873087  0.46087673267327 -0.01898726402640
 1  2.20113790599060 -4.85802963336334 -1.75855046474647
 1  0.56576837433743 -4.58637848534854 -1.19351783518352
 1 -8.14134519631963  0.68091832243224 -3.01305724392439
 1  1.11948413731373 -4.43355453515351  1.06923450005000
 1  2.92590886098610 -4.86092329682968  0.53837165206521
 1  4.16627168946895 -4.00629808200820 -2.21632509360936
 1  5.40051114951495 -3.04118296849685 -1.03908752635263
 1  5.19761119421942 -2.30448268086809 -2.57644671827183
 1  5.05875549504951 -0.15155725022502 -1.40554673037304
 1 -8.93817741824182  0.85745320082008 -0.06400909070907
 1 -10.27304543814381  0.95963737943794 -1.78890499049905
 1  3.74838952545255  2.99337272097210  3.63404817051705
 1  6.11803527172717  1.33408555775578 -2.12833164816482
 1  5.54408510831083  5.27733049724973 -0.73440206010601
 1  4.44951697419742  5.57872463816382 -2.14260680558056
 1  3.86442411201120  5.77709731613161 -0.71865360696070
 1  1.13895120322032 -7.90316147324732  1.51921797669767
 1  7.67335978037804  2.99312485238524 -3.15552282558256
 1  6.38998088558856  4.26701221342134 -2.80634298679868

