%nproc=4
%Mem=3GB
# td=(NStates=1) B3LYP/SVP 

TD

0 1
 8 -3.35300221042104 -1.42911796729673 -2.88312896719672
 8  2.62475293009301  3.32464412291229  3.36606087698770
 8  3.59215352355235  1.51289841814181  4.37322176577658
 8  7.75181378427843 -1.73452956715672 -0.62609337113711
 8  6.58790294669467 -3.07229802470247 -2.00519696779678
 8 -2.51915282178218  1.52698818791879  1.58976903740374
 7 -0.24051979817982 -2.45812212651265  0.94077891869187
 7 -2.66484852285229 -1.19247438243824 -0.67725987058706
 7  1.19742129152915  0.14691560126013 -0.81959689688969
 7 -0.93910305580558  1.46410181808181 -0.17698859675968
 6 -3.28785393509351 -1.34956251865187  0.64019099299930
 6 -2.61475010111011 -2.49065321152115  1.57869317611761
 6 -1.21708735043504 -2.09570738473847  1.80398838743874
 6 -0.48814861716172 -1.22314350605061  2.75012303280328
 6  0.85098621122112 -1.18549355035504  2.32190338493849
 6  0.98916160236024 -1.91069750445044  1.15979078307831
 6 -4.64339928652865 -1.80957660636064  0.29587647494749
 6  1.84949954135414 -0.36049637923792  3.04888704320432
 6 -4.76954331573157 -2.01156986538654 -1.01106144664466
 6  2.07410536693669 -1.93810200240024  0.16169844854485
 6  2.08028405030503 -0.92391430363036 -0.77586148764876
 6 -3.48988365826583 -1.51713367866787 -1.69849713311331
 6  3.00936199939994 -0.54563531183118 -1.80684458335834
 6 -1.24191276347635 -0.59968382538254  3.91954746304630
 6 -5.78356358045805 -2.03049953025302  1.26210721632163
 6  2.58922857975798  0.53451081928193 -2.52118672867287
 6  1.75501493389339  1.02439813181318  2.76043268486849
 6  1.42891625812581  1.00513716231623 -1.91364747074707
 6  4.29867521662166 -1.47670709980998 -2.09607923802380
 6 -5.86085042114211 -2.39348143854385 -1.88855230343034
 6  5.57331288228823 -1.07756950215022 -1.19379279617962
 6  3.26390648604860  1.18926732933293 -3.68979548874887
 6  0.53900632473247  2.05124027092709 -2.03592533763376
 6  2.85530417071707  1.98948853435344  3.54657000220022
 6 -0.60773460506051  2.20692532473247 -1.30752604050405
 6 -7.10928485498550 -3.04903866796680 -1.53809236793679
 6  6.63058262786279 -2.11040929602960 -1.34093478347835
 6 -1.34727338213821  3.39813204640464 -1.24708278297830
 6 -2.17235132453245  3.41776225522552 -0.13544145034503
 6 -1.88489076147615  2.09310024352435  0.65362429442944
 6 -1.28124810321032  4.44990125032503 -2.24551631963196
 6 -3.24315495199520  4.28889937283728  0.47279151885189
 6 -2.18885277647765  5.53755917411741 -2.58853258605861
 1 -3.37021551475148 -0.21353684358436  1.06914111871187
 1 -2.73581520792079 -3.49642476747675  1.12795314441444
 1 -3.22681250105011 -2.48151159555956  2.45523491219122
 1 -0.55310061486149 -2.83067183228323  0.00023703370337
 1 -1.69559794949495 -0.46905320882088 -0.81953605600560
 1  1.84291225262526 -0.78573002680268  4.17699979907991
 1  2.79137647054705 -0.72803469476948  2.90194512391239
 1  2.85152396629663 -2.72691427432743  0.44177723092309
 1 -2.23306593589359 -1.24391366536654  4.44616167796780
 1 -0.57449721772177 -0.15102930653065  4.69783614011401
 1 -1.77869718351835  0.25981842854285  3.44906367166717
 1 -6.28130891809181 -1.21604973617362  1.85695998899890
 1 -5.72304106480648 -3.13715782038204  1.81163400970097
 1 -6.64099147594759 -2.06791243464346  0.60728709040904
 1  1.93238937833783  1.20616055795580  1.61900951225123
 1  0.91951190269027  1.69302154645465  3.06490446414641
 1  0.58856711431143  0.34962933273327  0.04580254795480
 1  4.82554827402740 -0.97539059805981 -3.17618322022202
 1  4.22164299409941 -2.58464024322432 -1.87785489348935
 1 -5.63592573097310 -2.03523444804480 -2.97289075287529
 1  5.16568448974898 -0.90725120502050 -0.14637141344134
 1  5.87698914021402  0.05659866376638 -1.30119460196020
 1  3.54339425092509  0.24975146724672 -4.49525775527553
 1  4.14273002460246  2.00585166386639 -3.43132546794679
 1  2.49723551285128  1.59628412631263 -4.30232338433843
 1  0.78225213521352  2.89744124062406 -2.76955784778478
 1 -7.44513359945995 -3.18515069896990 -0.38991801300130
 1 -7.98113637853785 -3.32064339483948 -2.29220227372737
 1  3.16264999249925  3.84766412741274  3.93822707690769
 1 -0.32425630443044  4.20746202570257 -2.98259615501550
 1 -4.30317890749075  4.36505308710871 -0.11172232373237
 1 -3.43629237893789  4.14380917451745  1.72457326872687
 1 -2.90179849604960  5.32913320442044  0.57249301920192
 1  8.30092578607861 -2.40606376057606 -0.68182881788179
 1 -2.05301822642264  6.06567702480248 -3.38431328352835
 1 -2.92666501940194  5.71724310011001 -1.82691859935994

