%nproc=4
%Mem=4GB
# td=(NStates=1) B3LYP/SVP 

TD

0 1
 8 -5.44049027902790 -0.03571813221322 -3.21078086778678
 8  3.16478648414842  2.83673092779278  3.16344242264226
 8  3.43745209380938  0.65145054405441  2.79873175827583
 8  1.46378401790179 -7.05788205830583  1.57835634193419
 8  1.22572746074607 -7.21137756135614 -0.69433741664166
 8  1.63325037313731  3.99205232803280  0.16022552995300
 7 -2.40102971407141 -0.97958638883888  0.55873288988899
 7 -4.39421430283028  0.45774344084408 -1.30686904170417
 7  1.77251764336434 -0.66750832383238 -0.40923940154015
 7  2.46449199109911  1.87956370187019 -0.42483923062306
 6 -4.75320171137114  1.18540003700370  0.02679847964796
 6 -4.39753714651465  0.40554071937194  1.29422678037804
 6 -2.95942103770377  0.07791804850485  1.33926593959396
 6 -1.94980407710771  0.61336629382938  2.21528469806981
 6 -0.74898150845085  0.03150771527153  1.78631930953095
 6 -0.99545373317332 -0.90259331823182  0.73761558095810
 6 -6.27024938103810  1.46360414971497 -0.21175639103910
 6  0.60775938253825  0.28413909040904  2.60461948204820
 6 -6.66110662516252  0.76125537393739 -1.36330205890589
 6 -0.23429968606861 -1.89982871977198  0.12085416691669
 6  1.06486338253825 -1.84511405800580 -0.33515509770977
 6 -5.46296689698970  0.40873908860886 -2.14200151165117
 6  1.85573965916592 -2.87564810321032 -0.92844985428543
 6 -2.12744844574457  1.86510226712671  3.16838122832283
 6 -7.03445093829383  2.04450257945795  0.95519950585059
 6  3.12689902360236 -2.27988793999400 -1.27588883398340
 6  1.23402943024302  1.64711320472047  2.55380901680168
 6  2.99992806810681 -0.87150577617762 -1.03040702890289
 6  1.47802157235724 -4.37685364976498 -0.88206992389239
 6 -7.93948985498550  0.62324396199620 -2.10759914771477
 6  1.57130469606961 -5.02502343694369  0.46592258775878
 6  4.15885149414942 -2.94755322412241 -1.99581881318132
 6  3.90105097569757  0.10702010551055 -1.37277195959596
 6  2.75561618281828  1.65663325152515  2.81356725662566
 6  3.63003738153815  1.48948435993599 -1.11413798109811
 6 -9.17801278467847  0.89640180048005 -1.46129094439444
 6  1.45788085278528 -6.53555020522052  0.32294095309531
 6  4.52815164976498  2.58194494939494 -1.45675275837584
 6  3.88040730913091  3.69336986068607 -1.00902219651965
 6  2.55242681348135  3.37007485858586 -0.39579834253425
 6  5.84373797909791  2.40976581718172 -2.17372932803280
 6  4.29928554835484  5.14694957075708 -0.96700871427143
 6  6.73471352895289  3.41318700350035 -2.34106858375838
 1 -4.17450193629363  2.11915299539954  0.05777881818182
 1 -5.04800945784578 -0.50877235333533  1.32085682988299
 1 -4.56313315321532  0.95448944864486  2.24513142284228
 1 -2.81562060196020 -1.43672106760676 -0.18896581838184
 1 -3.28281927922792  0.38226014311431 -1.45092264316432
 1  0.45306974167417  0.02969328132813  3.65655520362036
 1  1.29897390679068 -0.39720438783878  2.18924405720572
 1 -0.84929359025903 -2.97894535953595  0.07801280358036
 1 -3.16267641294129  2.33061432553255  3.23954394409441
 1 -1.71102231733173  1.42516188008801  4.25193358125813
 1 -1.32628901000100  2.48554237403740  2.84563198499850
 1 -6.44223767466747  2.92132093559356  1.29883211621162
 1 -7.27583735073507  1.25096490569057  1.79259627032703
 1 -8.05703164036404  2.33715979907991  0.60446892709271
 1  1.13192590099010  2.11228326492649  1.53293136043604
 1  0.64082719521952  2.43830065206521  3.23848967316732
 1  1.47780210661066  0.26610725572557 -0.39599496479648
 1  1.87836562876288 -4.85487931833183 -1.84958956865687
 1  0.28604040154015 -4.63482332983298 -1.08539702310231
 1 -7.88933999579958  0.27155738633863 -3.18867480568057
 1  0.70965315421542 -4.44410559025903  1.15918349494949
 1  2.67182345244524 -4.84780198469847  0.90267808270827
 1  3.96750181248125 -4.08842629482948 -2.22160562166217
 1  5.13049414781478 -2.95440429062906 -1.33431704930493
 1  4.42476390949095 -2.73109534213421 -3.00018909250925
 1  4.85278489798980 -0.00828292279228 -1.68069424512451
 1 -9.23676727722772  0.88774623012301 -0.33932662246225
 1 -10.18911704530453  0.92178359405941 -1.89707580758076
 1  4.20959564606461  2.81637502120212  3.20839560526053
 1  6.07183065126513  1.43570571977198 -2.48821763676368
 1  5.36207690749075  5.51794455865587 -0.46776539643964
 1  4.42773479597960  5.84839160486049 -1.90286283118312
 1  3.47907557715772  5.73748335473547 -0.50999274087409
 1  1.34019132723272 -8.16158731583158  1.54151020592059
 1  7.60432287668767  3.28764430433043 -3.02918019131913
 1  6.68412029952995  4.33928944114411 -1.66525887838784

