%nproc=4
%Mem=4GB
# td=(NStates=1) B3LYP/SVP 

TD

0 1
 8 -5.40916714671467  0.09817525712571 -3.28176796649665
 8  2.84419442494249  2.98908616331633  3.25163124152415
 8  3.32426077467747  0.76621202020202  3.01359324442444
 8  1.54595223472347 -7.22177844794479  1.54955346164616
 8  0.78672356035604 -7.13847027062706 -0.58409639253925
 8  1.69216626472647  3.96414953775378 -0.14527502010201
 7 -2.39443905500550 -1.00958938913891  0.73271028762876
 7 -4.44759964136414  0.50005767226723 -1.27091544634463
 7  2.00067045864586 -0.75067664066407 -0.39547802540254
 7  2.50515605750575  1.87826357185719 -0.62378912561256
 6 -4.74260065126513  1.16496799379938 -0.03219741994199
 6 -4.46742413521352  0.32580274557456  1.25869322702270
 6 -2.98900399599960  0.04719497619762  1.34140615361536
 6 -1.96438553525353  0.61478643584358  2.15917908750875
 6 -0.72370898119812 -0.05058049354936  1.81016169376938
 6 -0.97859204700470 -1.05477853675368  0.88306012541254
 6 -6.27617997409741  1.47699548884888 -0.19318453385339
 6  0.63034164076408  0.13397407390739  2.50403942404240
 6 -6.74324483898390  0.95069431783178 -1.40800652935294
 6 -0.15464172027203 -2.04487322422242  0.22366444794479
 6  1.21118801500150 -1.87683723032303 -0.36852843504350
 6 -5.54099469976998  0.40320853555356 -2.05605291679168
 6  2.00547463266327 -2.93704424282428 -0.92283929322932
 6 -2.08764446534653  1.78483424032403  3.13148753895390
 6 -7.02935042824282  2.13433156235624  0.95935992189219
 6  3.20016635033503 -2.32427237843784 -1.33962520762076
 6  1.07002302960296  1.59237773117312  2.49766340224022
 6  3.13129120442044 -0.92405103070307 -1.04042803100310
 6  1.67133090329033 -4.40876684108411 -0.98335005190519
 6 -8.02370827682768  0.78506014361436 -1.90460884868487
 6  1.72083964956496 -5.06859779437944  0.39829582508251
 6  4.35597120612061 -2.96828529732973 -1.96905613691369
 6  4.01976284688469  0.09607901140114 -1.43007769016902
 6  2.47150777197720  1.74298188638864  2.99040494039404
 6  3.70963534133413  1.43374878637864 -1.17041360866087
 6 -9.19037402080208  0.91912407270727 -1.39039385468547
 6  1.29401446614661 -6.55843249344935  0.42884154315432
 6  4.61463029762976  2.59814656955696 -1.48665574867487
 6  3.95616488488849  3.77460798449845 -0.88490978527853
 6  2.68056962776278  3.24453230433043 -0.51307006970697
 6  5.86575018031803  2.51681652225223 -2.19127108220822
 6  4.23573919371937  5.22717759355936 -0.82786479987999
 6  6.65270532813281  3.56578226302630 -2.55583005990599
 1 -4.10762524862486  2.11094217431743 -0.11066802650265
 1 -4.89786444334433 -0.62696417251725  1.17517226142614
 1 -4.63809064896490  0.88842284198420  2.22558946864686
 1 -3.00057909780978 -1.29431682718272 -0.07734465626563
 1 -3.49700069736974  0.50692260936094 -1.63534108500850
 1  0.54894932963296 -0.13488317631763  3.55417496559656
 1  1.40015402480248 -0.56273094049405  2.02654778757876
 1 -0.57005566646665 -3.02380984598460  0.03662866516652
 1 -3.21320146544655  2.02532379647965  3.26930692039204
 1 -1.53439465456546  1.55027439133913  4.10453884178418
 1 -1.57991437253725  2.65058887868787  2.60543796559656
 1 -6.66755020592059  3.14166296979698  1.45044727772777
 1 -7.37721748874887  1.70116992619262  1.93984099479948
 1 -7.89886582378238  2.42818890199020  0.48044652485249
 1  0.90534324272427  2.09141117771777  1.65823389068907
 1  0.51464457695770  2.11685850785079  3.15891171537154
 1  1.67760208660866  0.22354299929993 -0.12292765806581
 1  2.18066585878588 -4.78039186958696 -1.86700130983098
 1  0.73129492699270 -4.54988483598360 -1.39683816721672
 1 -7.99483054485449  0.36294652525253 -2.97770370857086
 1  1.00274246314632 -4.69332051175117  1.14317189378938
 1  2.62810908100810 -5.03128033253325  0.79318713361336
 1  3.98630369266927 -3.83335078727873 -2.35531899299930
 1  5.41767286568657 -2.66906575677568 -1.56417003460346
 1  4.48394982808281 -2.51792402500250 -2.92132120572057
 1  4.95363498299830 -0.01350344484448 -2.12905908160816
 1 -9.45810941144114  0.91644910041004 -0.23429611941194
 1 -10.25317345094509  0.61113252895290 -1.94375047504751
 1  3.78497318381838  2.94970835453545  3.48265303100310
 1  6.45353882208221  1.64319646884688 -2.17650646564656
 1  5.14964566436644  5.47067983218322 -0.65148376827683
 1  3.95328735123512  5.66064282998300 -1.85142768766877
 1  3.61320899049905  5.74530413681368 -0.06234797639764
 1  1.30216752485249 -8.13686484358436  1.43012906780678
 1  7.67692013641364  3.23882942284228 -2.76264353765377
 1  6.89384127162716  4.56690220242024 -2.33184553705371

