%nproc=4
%Mem=4GB
# td=(NStates=1) B3LYP/SVP 

TD

0 1
 8 -5.28308453845385  0.18071351095110 -3.29628941864186
 8  3.12507251275128  2.86102335703570  3.13836991539154
 8  3.24353270187019  0.60497589658966  3.13723560866087
 8  1.99773741324132 -7.36773304340434  1.38066657295730
 8  0.31169605760576 -6.92444886848685 -0.31888987188719
 8  1.80214726282628  3.98032115491549  0.12804231163116
 7 -2.39697930903090 -1.01271970217022  0.59236625322532
 7 -4.36311119251925  0.66671433793379 -1.22779113391339
 7  1.79411980358036 -0.67300887388739 -0.51975045264526
 7  2.60716625852585  1.97724346984698 -0.50668741544154
 6 -4.77602399359936  1.31825332233223  0.02016781658166
 6 -4.45726311911191  0.36030619591959  1.21420877857786
 6 -3.03750884648465  0.01789204590459  1.36122813581358
 6 -1.96788588528853  0.64464942214221  2.09843301290129
 6 -0.74427103740374  0.00335489999000  1.76756743434343
 6 -1.00639482728273 -0.93873693259326  0.70760257965797
 6 -6.15596795289529  1.52629041834183 -0.18565378077808
 6  0.63174178077808  0.10233090959096  2.47787680778078
 6 -6.71578209270927  0.84082333073307 -1.32647837653765
 6 -0.14422067816782 -2.00916965386539  0.09938201970197
 6  1.10703759996000 -1.86790633723372 -0.38733031523152
 6 -5.38700930123012  0.54903311801180 -2.12874018551855
 6  1.87802188738874 -2.85482602100210 -0.90036704600460
 6 -2.14273997489749  1.85226098299830  3.06717110731073
 6 -7.12343983718372  1.93498162736274  0.87368135403540
 6  3.06034236793679 -2.29850980218022 -1.28412965806581
 6  1.23554958225823  1.62536102950295  2.43565720162016
 6  2.95406348164817 -0.85032365796580 -1.18059204740474
 6  1.54193796399640 -4.35754171857186 -0.91749346624662
 6 -7.98310421642164  0.61801343894389 -1.94895328312831
 6  1.88673623922392 -5.16420735533553  0.35232122762276
 6  4.31882749174918 -2.98049651845185 -1.86297552885289
 6  3.94182505310531  0.15200460396040 -1.36396107850785
 6  2.65017563876388  1.66388397659766  2.89324522442244
 6  3.68393277107711  1.54691010251025 -1.14340090739074
 6 -9.20735571897190  0.53098525882588 -1.31280609590959
 6  1.26390145484548 -6.55866251645165  0.45837449644965
 6  4.60004883948395  2.65657241214121 -1.47003408650865
 6  3.86060532893289  3.77755827952795 -0.98760005430543
 6  2.62355392619262  3.34378222932293 -0.40888965166517
 6  5.90287389268927  2.52865770637064 -1.97230918601860
 6  4.16173179297930  5.16355123092309 -1.06090810421042
 6  6.70202025962596  3.47902358715872 -2.51320579747975
 1 -4.18401288738874  2.33522460256026  0.29051209150915
 1 -4.96735139203920 -0.40307178327833  1.11994673887389
 1 -4.78846568646865  0.91555555525553  2.08326523622362
 1 -2.90731977187719 -1.40561795729573 -0.16393331513151
 1 -3.56903790109011  0.74781669876988 -1.75332288318832
 1  0.47572200690069 -0.03532322032203  3.59221876997700
 1  1.27158116751675 -0.60691535893589  2.02838797159716
 1 -0.67485614651465 -3.08585605060506  0.11663666596660
 1 -3.13081322662266  2.11326259035904  3.52706269596960
 1 -1.61171238633863  1.55907527142714  4.12094048194820
 1 -1.73740012111211  2.90678449824982  2.75562298409841
 1 -6.57157060796080  2.73883268676868  1.44372660566057
 1 -7.40412017901790  1.23792360156016  1.52534954565457
 1 -7.93337927512751  2.48479456255626  0.38769724992499
 1  1.19546225462546  2.15512754935494  1.51861992929293
 1  0.56477959045905  2.26620344234423  3.03041886608661
 1  1.42698702510251  0.26941758675868 -0.25079044434443
 1  2.23436122832283 -4.80832466286629 -1.67427203690369
 1  0.62890468796880 -4.68037788528853 -1.22037052045204
 1 -7.86545760756076  0.29640987158716 -3.06298223642364
 1  1.48096028492849 -4.55558673837384  1.16849442604260
 1  3.04456072617262 -5.33477068156816  0.61723953885389
 1  3.99153421572157 -4.10354780698070 -2.12166562766277
 1  5.09468056645665 -3.25623447364736 -1.00357397499750
 1  4.62945437853785 -2.54616684928493 -2.74341341494149
 1  4.84218383788379 -0.31841393589359 -1.75905208090809
 1 -9.36381998249825  0.33432088758876 -0.24273696349635
 1 -10.10496863046305  0.37477889358936 -2.02193829382938
 1  3.93798848534853  2.52662604630463  3.51665643134313
 1  6.16192966116612  1.56211836103610 -2.12397121212121
 1  5.09100980078008  5.43792655685569 -0.64915353525353
 1  4.30243226572657  5.42850961666167 -2.21058360326033
 1  3.26909457905791  5.64182378877888 -0.61022276387639
 1  1.37668497659766 -8.13748490559056  1.55594164906491
 1  7.66971941634163  3.08902444234423 -2.76758403170317
 1  6.51451333883388  4.40779629182918 -2.41309366186619

