%nproc=4
%Mem=4GB
# td=(NStates=1) B3LYP/SVP 

TD

0 1
 8 -5.31265749574958  0.01247668726873 -3.28694848454845
 8  2.91730173567357  2.95265251995199  3.56325240364036
 8  3.40272862146215  0.79743514251425  2.62973485858586
 8  1.46534417391739 -7.14573084318432  1.49191769806981
 8  0.63715860386039 -7.07713413701370 -0.59201718461846
 8  1.82008905700570  4.03201632443244  0.03648315571557
 7 -2.29033864496450 -0.94759318951895  0.65790280688069
 7 -4.34458934033403  0.62800046654665 -1.23345169997000
 7  1.89968035963596 -0.65778735173517 -0.29503798139814
 7  2.60241578347835  1.90466621212121 -0.56194294099410
 6 -4.79824621582158  1.15381687868787 -0.00345454565457
 6 -4.46840423322332  0.34927509280928  1.35197255495550
 6 -2.96271136673667 -0.02239198249825  1.42241425442544
 6 -1.95741483818382  0.62526748394839  2.14949811941194
 6 -0.72854946524652  0.07975253975398  1.80378105570557
 6 -0.98944313211321 -0.97115017391739  0.79879169856986
 6 -6.30395275137514  1.34073186248625 -0.16697191259126
 6  0.56558516511651  0.23685436193619  2.56232525262526
 6 -6.69313982848285  0.80129937833783 -1.31094682338234
 6 -0.11370762686269 -1.94965370227023  0.21817389888989
 6  1.18798569476948 -1.77062660926093 -0.22380396259626
 6 -5.47956855715572  0.44818303300330 -2.17572488398840
 6  1.90255434063406 -2.88258879727973 -0.92901991129113
 6 -2.19575527642764  1.52667842474247  3.20774516471647
 6 -7.14026151935194  1.87493562276228  0.90144413031303
 6  3.12582891659166 -2.35063501470147 -1.38032927802780
 6  1.10205623292329  1.71883037643764  2.63723735963596
 6  3.07993606890689 -0.87450607620762 -0.99466345454545
 6  1.35338910911091 -4.28586455085509 -0.93080479737974
 6 -7.92410831683168  0.63981561916192 -1.96568495629563
 6  1.63751131673167 -5.04370530513051  0.41570756625663
 6  4.22703831283128 -3.02523099189919 -2.05036426772677
 6  3.87016788738874  0.04865426892689 -1.55515019741974
 6  2.61814243544354  1.76918450665066  2.93870977087709
 6  3.73532791059106  1.53620903240324 -1.15750231753175
 6 -9.17048203160316  0.55103726402640 -1.48477329262926
 6  1.14646971167117 -6.48814546474647  0.31795045404540
 6  4.63866270087009  2.64715147004700 -1.43606068916892
 6  4.06748601700170  3.81012153585359 -1.03747504180418
 6  2.69866143694369  3.30985883698370 -0.39375813851385
 6  6.01514511981198  2.57057189778978 -2.10390234533453
 6  4.48480410021002  5.15251012681268 -1.03947596099610
 6  6.82836289388939  3.51346703150315 -2.72692716961696
 1 -4.30369485558556  2.10027110721072  0.15164820512051
 1 -4.98636329322932 -0.66837831393139  1.17902264646465
 1 -4.78182502240224  0.73905790549055  2.32662957265727
 1 -2.63920296019602 -1.35435283078308 -0.26298322012201
 1 -3.44575557285729  0.80823274037404 -1.57432498339834
 1  0.29311374607461 -0.13131281928193  3.50349989808981
 1  1.35806981638164 -0.50779544694469  2.23681881468147
 1 -0.64887354825483 -2.85509297429743  0.04400940324032
 1 -3.34198434373437  1.49956122022202  3.25744573427343
 1 -1.63706492159216  1.23555291919192  4.13262165006501
 1 -1.97349373047305  2.50486430623062  2.63829125092509
 1 -6.67327077797780  2.65885468896890  1.51470370337034
 1 -7.35650541754175  1.17906771597160  1.65583259395940
 1 -8.06533247044704  2.31829791289129  0.51248972917292
 1  0.66593930233023  2.25237727432743  1.57808587588759
 1  0.56047916041604  2.16623344534453  3.32670849504951
 1  1.69387371377138  0.37499814481448  0.14622925762576
 1  1.75198299049905 -4.89150298069807 -1.76988159785979
 1  0.20166196369637 -4.32785263276328 -1.06161464486449
 1 -8.00430149194920  0.57207743834383 -3.12387832603260
 1  0.99559174807481 -4.70007118681868  1.31791936853685
 1  2.68302457255726 -4.95213241774177  0.85204301920192
 1  4.13823888618862 -4.16294374657466 -1.97315077617762
 1  5.21469256765677 -3.02022087228723 -1.38095171277128
 1  4.57915934903490 -2.62411464406441 -3.16512558615862
 1  4.81848146764677 -0.14765686018602 -2.23229940564056
 1 -9.41068466896690  0.53197065256526 -0.38760144994499
 1 -9.93183131673167  0.33217463316332 -2.22970907090709
 1  3.97361204770477  3.41615499919992  3.35146991269127
 1  6.47802127032703  1.50957310651065 -2.32296111111111
 1  5.54015471527153  5.25510827502750 -0.65981460136014
 1  4.33934595709571  5.69545631133113 -2.00500304520452
 1  3.60075774537454  5.39354896129613 -0.22944468606861
 1  1.22958026612661 -8.02178333543354  1.44117017191719
 1  7.69609205360536  3.08334387428743 -3.23559083238324
 1  6.57139902740274  4.63937945014501 -2.43988634113411

