%nproc=4
%Mem=4GB
# td=(NStates=1) B3LYP/SVP 

TD

0 1
 8 -5.29160539053905 -0.05255981638164 -3.25167495719572
 8  2.92902290779078  3.00094734943494  3.14301037943794
 8  3.33807215581558  0.73983938293829  3.19419130423042
 8  1.50428806830683 -7.22821909200920  1.43987249354936
 8  0.62128701670167 -6.96804322792279 -0.56986496939694
 8  1.81881892999300  4.03956707950795  0.03853336073607
 7 -2.35591520262026 -0.93636206640664  0.63872088868887
 7 -4.35559044044404  0.41442910941094 -1.21680003480348
 7  1.91117150875087 -0.68265983898390 -0.40143862146215
 7  2.55286082798280  1.91980772627263 -0.62027877457746
 6 -4.76677306850685  1.07553905090509  0.01708750855086
 6 -4.38101549434943  0.20550071537154  1.29384674237424
 6 -2.97747284288429  0.05612586928693  1.39095110811081
 6 -1.91862095879588  0.59730468766877  2.21738490809081
 6 -0.70628723902390 -0.05281071657166  1.88539921752175
 6 -0.92099628742874 -0.99821288018802  0.81870368976898
 6 -6.23273562966297  1.35289307860786 -0.14640985638564
 6  0.57266587318732  0.10710138663866  2.58040706080608
 6 -6.60685119961996  0.88134738313831 -1.39654538323832
 6 -0.13567982408241 -1.88093683058306  0.14456653815382
 6  1.14981187738774 -1.83981352795280 -0.30621220342034
 6 -5.38135873617362  0.37343555825583 -2.13464077557756
 6  2.02493657885789 -2.84363490189019 -0.80184719401940
 6 -2.10042574347435  1.63264902180218  3.18337272747275
 6 -7.19080657385739  2.07871600080008  0.88294228012801
 6  3.14773110681068 -2.24278422962296 -1.27699894499450
 6  1.13417944524452  1.51160965436544  2.55934957085709
 6  3.11117919321932 -0.87084571017102 -1.05987997619762
 6  1.58357212741274 -4.36252221662166 -0.87668938583858
 6 -7.93805971197120  0.83929556715672 -2.07303569136914
 6  1.66173373897390 -5.10062099669967  0.48400439593959
 6  4.27927353635364 -2.89649811861186 -2.14031326262626
 6  3.93889476007601  0.21352075557556 -1.42185686808681
 6  2.60556117731773  1.71856944514451  3.00184608450845
 6  3.66841121892189  1.53820923242324 -1.17209377667767
 6 -9.10914589798980  0.96446860716072 -1.49810462576258
 6  1.25410047474747 -6.52184883508351  0.35577423642364
 6  4.56102493709371  2.59096585148515 -1.34378146124612
 6  3.89335860426043  3.74621514521452 -0.96161745604560
 6  2.63373494429443  3.26247409850985 -0.41579034173417
 6  5.78217182248225  2.42058689928993 -2.14355631073107
 6  4.28316393619362  5.19844472027203 -1.02852486588659
 6  6.45746580418042  3.50450613541354 -2.81184566146615
 1 -4.04761924802480  1.92724380448045  0.16288932923292
 1 -4.73280793769377 -0.90896237233723  1.34491923612361
 1 -4.94147098699870  0.86613061276128  2.16466337603760
 1 -2.97454649454945 -1.51472886838684 -0.17374429622962
 1 -3.48260925822582  0.47424934203420 -1.62277982888289
 1  0.57779221392139 -0.24219390739074  3.56631617971797
 1  1.37985199459946 -0.49350401780178  1.95567069986999
 1 -0.76378503940394 -2.92689015401540 -0.04146914461446
 1 -3.13535368066807  1.95805706980698  3.11856184588459
 1 -1.71118233333333  1.48265762966297  4.25800418831883
 1 -1.48107448854886  2.53715753555355  2.85151257305731
 1 -6.66257970887089  2.69980878437844  1.54321655465547
 1 -7.71429119611961  1.32193200240024  1.56773378407841
 1 -7.78231416861686  2.63127921102110  0.22047052725272
 1  0.93133584198420  2.04991702830283  1.69468753605361
 1  0.54439755225522  2.04942176417642  3.19774559875988
 1  1.88818314471447  0.29442008700870 -0.01910727602760
 1  2.04308210041004 -4.76649047944795 -1.61467607730773
 1  0.60023182068207 -4.42034188168817 -0.99164764816482
 1 -7.88509957175718  0.55739597019702 -3.11653759195920
 1  0.95388757765777 -4.49471065076508  1.32432000860086
 1  2.69827609770977 -5.21570877537754  0.84011182608261
 1  4.11429649194919 -4.05583303550355 -1.78958241934193
 1  5.26686778517852 -2.50763961416142 -1.83176679427943
 1  4.04902633573357 -2.67794002660266 -3.34078315191519
 1  4.96661628112811 -0.11909400390039 -1.98122429812981
 1 -9.10222382288229  1.12433988948895 -0.32085477527753
 1 -10.09460759435944  1.02788420412041 -2.12330843084308
 1  3.85508019451945  3.13239662336234  3.40812557825783
 1  6.25069853805380  1.52585473467347 -2.15120393539354
 1  5.07853855365537  5.40330309450945 -0.54550317021702
 1  4.23854587708771  5.62220898659866 -2.07714025892589
 1  3.44407207680768  5.68129773617362 -0.57579932153215
 1  1.13591089918992 -8.12883404050405  1.19706576147615
 1  7.69958240264026  3.28773431333133 -3.11032830613061
 1  6.18733062056206  4.39865537773777 -2.88936128862886

