%nproc=4
%Mem=3GB
# td=(NStates=1) B3LYP/SVP 

TD

0 1
 8 -3.30484739493949 -1.42841789728973 -2.94468512281228
 8  2.65177563236324  3.38334999349935  3.16392066296630
 8  3.73183749194919  1.57333446174617  4.14034847844785
 8  7.69939854275427 -1.63753986818682 -0.66423718551855
 8  6.61269542594259 -3.14992578747875 -1.89436588468847
 8 -2.68505941244124  1.53328881798180  1.50497055755576
 7 -0.19719546574657 -2.42650896519652  0.83488832963296
 7 -2.62366440444044 -1.30242537753775 -0.70125226982698
 7  1.12343389278928  0.11781269096910 -0.66919185638564
 7 -0.92897204270427  1.44000940884088 -0.14540543844384
 6 -3.33048819851985 -1.34472203460346  0.57976495039504
 6 -2.58488711481148 -2.33497764396440  1.58300360716072
 6 -1.11442708440844 -1.99421723572357  1.74746273487349
 6 -0.53421322362236 -1.21978317001700  2.74820284078408
 6  0.79341045364536 -1.08932393339334  2.43086428102810
 6  1.03398608480848 -1.91080751545155  1.22923772777278
 6 -4.67924287088709 -1.90174582328233  0.28049493679368
 6  1.91934652605261 -0.27686801640164  3.05305746024602
 6 -4.84659102050205 -1.90144885328533 -1.09189953045305
 6  2.19134709110911 -1.94573276547655  0.36481876057606
 6  2.13499952185219 -0.90601251345135 -0.59631353285329
 6 -3.51712638253825 -1.54681664696470 -1.66868415181518
 6  2.97261832503250 -0.72444319261926 -1.76837073597360
 6 -1.31599017121712 -0.40534439143914  3.72021753005301
 6 -5.65447067116712 -2.08769524982498  1.41198220382038
 6  2.47824748164816  0.39230659885989 -2.48374298429843
 6  1.76748618101810  1.21290698269827  2.69066570817082
 6  1.39548291479148  0.89894654325433 -1.79372547854785
 6  4.23978932803280 -1.57956738583858 -2.00310994109411
 6 -5.88235257135714 -2.39379146954695 -2.03843729192919
 6  5.35914146514651 -1.09150089528953 -1.19181259815982
 6  3.08751884728473  0.98950735333533 -3.75005151435144
 6  0.51507393149315  2.00194534143414 -2.08832057715772
 6  2.91842048234823  1.94358394389439  3.32099744494449
 6 -0.59249308090809  2.29367399959996 -1.21120640854085
 6 -6.94502842934293 -3.15693945804580 -1.82074063276328
 6  6.61404097369737 -2.04855311041104 -1.33739442944294
 6 -1.45986464126413  3.41184341754175 -1.10750882558256
 6 -2.32709679907991  3.21183166216622 -0.15692359855986
 6 -2.01301357375738  2.05930686418642  0.56602553455346
 6 -1.22479245764576  4.56313257345735 -2.05966773477348
 6 -3.28742937943794  4.26760724362436  0.46253049274927
 6 -1.77332122332233  5.78376379457946 -1.95825955875588
 1 -3.46759525272527 -0.44276976687669  1.21459566416642
 1 -2.61066269266927 -3.42502762776278  1.23845419451945
 1 -2.93104292409241 -2.39830327472747  2.51270065876588
 1 -0.14434973977398 -3.03153191829183 -0.01011400140014
 1 -1.88875726542654 -0.59594589808981 -0.81286538893889
 1  1.80149811121112 -0.45164661846185  4.22661476057606
 1  2.56003333623362 -0.66431832313231  2.42180711011101
 1  3.06395520942094 -2.57115869876988  0.32023507670767
 1 -2.23428605790579 -1.03146242024202  4.15364242604260
 1 -0.57507727572757  0.03097889428943  4.61136749324933
 1 -1.71426073987399  0.27609005570557  2.90934970027003
 1 -5.69439022622262 -1.37066519771977  2.32906719971997
 1 -5.31569032973297 -3.01629573417342  2.08373121942194
 1 -6.68990636743674 -2.29924556795680  0.91037739943994
 1  1.88899503890389  1.24063400530053  1.65970358165817
 1  0.70525047654765  1.43723596789679  3.08949692339234
 1  0.27490574817482  0.22091646144614  0.00002797049705
 1  4.53782950215022 -1.44841790079008 -3.10121572347235
 1  4.28204903470347 -2.64062584178418 -1.85780288828883
 1 -5.64620675907591 -1.98350927552755 -3.16005946974697
 1  5.24346226752675 -1.15871635153515 -0.08378515481548
 1  5.55543698499850  0.08697170107011 -1.43022750525052
 1  4.12154206570657  0.50347683978398 -4.16336456595660
 1  3.09784553615361  2.25396647534753 -3.46822915831583
 1  2.28001379067907  0.93852835073507 -4.63382653465346
 1  0.64301821182118  2.58357985448545 -3.06778767076708
 1 -7.26291537763776 -3.75237742164216 -1.05418443964396
 1 -7.51667993289329 -3.14384571507151 -2.80223327682768
 1  3.44697842534253  3.65748510951095  3.50158341254125
 1 -0.51849572837284  4.50062134163416 -2.76137403280328
 1 -3.87545613521352  4.59278586038604 -0.52314346584658
 1 -3.91633038273827  3.83473826742674  1.14480529192919
 1 -2.88148646484649  5.22112240334033  0.97142291219122
 1  8.17913360686069 -2.45279843404340 -0.71400203520352
 1 -1.33476640124012  6.65914637173717 -2.56335118731873
 1 -2.37579993289329  6.05707708350835 -1.04324023152315

