%nproc=4
%Mem=3GB
# td=(NStates=1) B3LYP/SVP 

TD

0 1
 8 -3.26256316651665 -1.21977703320332 -2.95881653595360
 8  3.05581603640364  3.22111376987699  2.84469874077408
 8  3.66176048424842  1.54551167946795  4.23966841044104
 8  7.78731733463346 -1.75978209240924 -0.81514227602760
 8  6.57716187258726 -3.01931272617262 -2.13640008810881
 8 -2.61656256275627  1.65104059315932  1.57369743024302
 7 -0.30621636783678 -2.45643195749575  0.99686452725273
 7 -2.55977801580158 -1.26572170717072 -0.65282742734273
 7  1.19913146254625  0.20518142784278 -0.66159109630963
 7 -1.00059920542054  1.38777418531853 -0.18387928582858
 6 -3.38093324302430 -1.34779234163416  0.56884385828583
 6 -2.64828345444544 -2.26314046024602  1.66090139693969
 6 -1.34576021772177 -1.96605441944194  1.81636962556256
 6 -0.60333013531353 -1.25583677537754  2.87440546104610
 6  0.73549466206621 -1.09613461446145  2.57338853345335
 6  0.93222590879088 -1.92154858955896  1.35150995499550
 6 -4.69508445504550 -1.95441108980898  0.08415530283028
 6  1.88369296069607 -0.36309663926393  3.13817597209721
 6 -4.69008536993699 -2.03059176757676 -1.20981132163216
 6  2.10593855025503 -1.92940113231323  0.30472275097510
 6  2.02497851975198 -0.96604851705171 -0.61256515801580
 6 -3.51614628452845 -1.44936690199020 -1.78668595199520
 6  3.04121518471847 -0.73701444974497 -1.74283818271827
 6 -1.33685225742574 -0.55699955695570  4.00508601690169
 6 -5.69503472757276 -2.20501698199820  1.25755676127613
 6  2.63805346224622  0.45561292949295 -2.35107971797180
 6  1.80439987238724  1.10944663666367  2.76385302690269
 6  1.36199956645665  1.06634328292829 -1.70015612161216
 6  4.22057740684068 -1.59943937303730 -2.00949057915792
 6 -5.82474681078108 -2.52615470587059 -2.04456790499050
 6  5.41578712971297 -1.22021376657666 -1.15317873477348
 6  3.24510460586059  1.02047044964496 -3.50334684388439
 6  0.56451887598760  2.07676282318232 -1.99671141624162
 6  2.88587722802280  2.01261084658466  3.34918026322632
 6 -0.58120195179518  2.31212584478448 -1.18177346524652
 6 -6.87400132663266 -3.32472623672367 -1.68439699839984
 6  6.59516908650865 -2.06318457355736 -1.43296398639864
 6 -1.44778343314331  3.62364459765977 -1.17433550825082
 6 -2.28287237663766  3.39748022702270 -0.12249015521552
 6 -2.09581185358536  2.07076801030103  0.45328426042604
 6 -1.22373235163516  4.70205646584659 -2.08419018701870
 6 -3.40898153465347  4.24665514841484  0.38776301600160
 6 -2.12031592279228  5.69712513071307 -2.32716644944494
 1 -3.64352284548455 -0.43097858775878  0.95017922252225
 1 -2.67711933833383 -3.37303242824282  1.12399274837484
 1 -3.41062088188819 -2.08614205860586  2.66049543824382
 1 -0.49198450325033 -2.67726649174917  0.09102611261126
 1 -1.95516390609061 -0.46908321182118 -0.82557666006601
 1  2.03042100350035 -0.41466292009201  4.18838093719372
 1  2.87587492039204 -0.77273916521652  2.87604253365337
 1  2.89789860376038 -2.68291987488749  0.00498355155516
 1 -2.17202983228323 -1.34727400140014  4.23256031783178
 1 -0.50247001500150 -0.42803700730073  4.61176753325333
 1 -1.88961827562756  0.42918536523652  3.60923968926893
 1 -5.32828361556156 -1.70551868306831  2.16285057805781
 1 -5.88466722742274 -3.42108621322132  1.60078292459246
 1 -6.76885426222622 -2.09444508790879  1.06367272897290
 1  1.94418055745575  1.19214915681568  1.74779239053905
 1  0.82391234273427  1.61469371367137  3.01767974167417
 1  0.46654491209121  0.18275264506451  0.01994996269627
 1  4.40627634683468 -1.61125418441844 -2.94241984388439
 1  4.01729255905591 -2.60395217441744 -1.86986409440944
 1 -5.77947008540854 -1.82664358895890 -3.07193065686569
 1  5.25054297559756 -1.29808028792879 -0.02755953225322
 1  5.82166360766077 -0.13813080918092 -1.25791027352735
 1  4.06703661516152  0.50734722682268 -3.87849607910791
 1  3.28873462506251  2.09945102380238 -3.23417575297530
 1  2.55614140344034  1.09980447834784 -4.45068822082208
 1  1.10651456145615  2.90600209670967 -2.60727161916192
 1 -6.80413950005001 -3.85684786868687 -0.65882490369037
 1 -7.44446271117112 -3.40687201770177 -2.60521357485749
 1  3.77421114861486  3.63154251525153  3.24804805900590
 1 -0.06650052885289  4.54939621912191 -2.61216911231123
 1 -4.38707729732973  4.60439702150215 -0.23647479897990
 1 -3.65942469216922  3.77263205680568  1.35652646404640
 1 -2.96053436963696  5.25787607870787  0.30117588748875
 1  8.50350604410441 -2.39011216541654 -0.94936557155716
 1 -1.91465439003900  6.31800225732573 -3.12352720492049
 1 -3.07789014191419  5.90468184398440 -1.84192009950995

