%nproc=4
%Mem=3GB
# td=(NStates=1) B3LYP/SVP 

TD

0 1
 8 -3.26857376757676 -1.18960401590159 -2.84799545384538
 8  3.20052050685069  3.05847750625062  2.76727099799980
 8  3.50823513171317  1.51648877717772  4.50155459905991
 8  7.66025462836284 -1.61351746594659 -0.46560732253225
 8  6.72221637803780 -3.03725452035204 -2.01798824692469
 8 -2.68365927242724  1.40782627172717  1.39527958845885
 7 -0.17769351555156 -2.46305261956196  0.92933777457746
 7 -2.53155519351935 -1.30552568756876 -0.63157530213021
 7  1.06195774517452 -0.09085817611761 -0.82259719691969
 7 -1.04193333883388  1.39722513041304 -0.27234813271327
 6 -3.26107125682568 -1.35629319171917  0.58318529242924
 6 -2.56596522262226 -2.28104225042504  1.70851615841584
 6 -1.13919956165617 -2.00178799279928  1.81612960156016
 6 -0.45269507180718 -1.15557674937494  2.78255627612761
 6  0.90474158675868 -1.20512551355136  2.51179237383738
 6  0.96888957515752 -1.89418585328533  1.21396620062006
 6 -4.59155410201020 -1.79852550125012  0.31158804610461
 6  1.92975756715672 -0.39621995159516  3.15807796229623
 6 -4.82824918631863 -1.88744745314531 -1.07607794829483
 6  2.14413236963696 -1.92082027422742  0.35115739443944
 6  2.08463448534854 -0.95963787598760 -0.64310821232123
 6 -3.48891356125613 -1.46487845314531 -1.72470975437544
 6  2.98274933813381 -0.59344009230923 -1.83398729762976
 6 -1.15258383058306 -0.63514737173717  3.96948245654565
 6 -5.63332855695570 -2.02609909020902  1.32261326692669
 6  2.53605326222622  0.49759712791279 -2.49548415841584
 6  1.81628106050605  1.08881457345735  2.71284792639264
 6  1.30215358185819  0.93286993559356 -1.89727583358336
 6  4.26236158525853 -1.34990441954195 -2.05366499659966
 6 -5.91029536563656 -2.24614670507051 -1.97515096329633
 6  5.41514706570657 -1.14394613981398 -1.07323073997400
 6  3.06917701310131  1.22039044164416 -3.68349485868587
 6  0.38752117621762  1.97565271217122 -2.09417116221622
 6  2.92945158545855  1.76355594109411  3.46259160436044
 6 -0.70418425002500  2.27173180538054 -1.19371465936594
 6 -6.94500842734273 -3.03619738383838 -1.68297685638564
 6  6.66673624322432 -2.10555881098110 -1.25722641264126
 6 -1.46001465626563  3.48444067726773 -1.24571264596460
 6 -2.43009709910991  3.31120159915992 -0.17837574377438
 6 -2.09627189958996  1.94954588808881  0.40790972297230
 6 -1.24060403880388  4.67122338253825 -2.17051881988199
 6 -3.50690132663266  4.16065654855486  0.28857309700970
 6 -1.98882277347735  5.74008942714271 -2.30603433623362
 1 -3.43288178137814 -0.30047553745375  0.97847205180518
 1 -2.76246787318732 -3.26982210721072  1.18943929302930
 1 -3.25786560636064 -2.37810125452545  2.62890227892789
 1 -0.48618392319232 -3.31443020812081  0.24983199319932
 1 -1.71783017271727 -0.61908821232123 -0.64512861526153
 1  1.81342930433043 -0.44645609940994  4.32499459855986
 1  3.04888222112211 -0.70117200850085  2.81430636003600
 1  2.94834364826483 -2.67295887878788  0.25603865706571
 1 -1.80276290559056 -1.30047932193219  4.39426648844884
 1 -0.48283805180518 -0.28317252085209  4.81315767226723
 1 -1.89778909270927  0.19755220192019  3.67984674997500
 1 -5.69031981918192 -1.12958108930893  2.07834212721272
 1 -5.73713247394740 -3.02855696029603  1.82374522082208
 1 -6.65327270407041 -2.17760340374037  1.00425678737874
 1  1.66515265466547  1.43677361926193  1.63104071537154
 1  0.82650260176018  1.48506075037504  3.32312028572857
 1  0.25424368196820  0.29196356615662 -0.20357238953895
 1  4.46089180838084 -1.03070612961296 -3.00121572347235
 1  3.90986181598160 -2.46878865806581 -1.85708281628163
 1 -5.82072421082108 -1.88926985158516 -2.93926739053905
 1  4.97389531083108 -1.27433791369137 -0.06689346564656
 1  5.78167960926093 -0.22634963106311 -1.10003448594859
 1  3.92550246174617  0.65786227832783 -4.11808003750375
 1  3.36299205080508  2.19564064276428 -3.19861219661966
 1  2.35442123142314  1.45611010891089 -4.37067021902190
 1  0.56413032303230  2.59917141364136 -2.95321621362136
 1 -7.23338242434243 -3.45329751365137 -0.73832285348535
 1 -7.62656092099210 -3.39520085058506 -2.49425247874788
 1  3.90687441494149  3.49548890989099  3.22286554075408
 1 -0.35391927072707  4.52294357385739 -2.69575747114711
 1 -4.17864645424542  4.42756933873387 -0.52185333683368
 1 -4.18187693739374  3.69797459105911  0.91076188758876
 1 -3.32406072227223  5.14680497159716  0.85806157605761
 1  8.40924661816182 -2.22316547074707 -0.56828746374637
 1 -1.42547547214722  6.45626608370837 -3.00314516671667
 1 -3.04916726962696  6.04614599039904 -2.09492540004000

