%nproc=4
%Mem=4GB
# td=(NStates=1) B3LYP/SVP 

TD

0 1
 8 -5.37770400040004  0.22534797439744 -3.25141493119312
 8  3.13382338783878  2.81879913461346  3.23135921432143
 8  3.41244959355936  0.54730012901290  2.87719960506051
 8  1.53885152465247 -7.09113538363836  1.65193369966997
 8  0.50898578657866 -6.95156157975798 -0.34583256615662
 8  1.66804385248525  3.98784190699070  0.00245975337534
 7 -2.36738634973497 -0.95385381558156  0.54616163276328
 7 -4.40850573197320  0.63080074657466 -1.26812516731673
 7  1.77682807440744 -0.64255582858286 -0.46276475407541
 7  2.48689423132313  1.87296304180418 -0.68131487818782
 6 -4.80602699389939  1.16253775077508  0.01159695949595
 6 -4.41171856465647  0.31374153945395  1.25458281598160
 6 -2.96616171177118  0.02137239393939  1.27425943894389
 6 -1.88596769346935  0.53520847804780  2.09977314691469
 6 -0.69966657695770 -0.07124255975598  1.82478315591559
 6 -0.95815000280028 -1.00471353025303  0.73592541194119
 6 -6.30978333443344  1.42536032533253 -0.16991220662066
 6  0.67688629522952  0.11474215071507  2.53906292639264
 6 -6.74607512201220  0.89026827522752 -1.31782751145115
 6 -0.22738899499950 -2.07339607650765  0.13017509900990
 6  1.10244714091409 -1.84884443104310 -0.43401498369837
 6 -5.45536613691369  0.54104231893189 -2.06036334783478
 6  1.99437352255226 -2.85398593699370 -0.97330433973397
 6 -2.09166486738674  1.59293505040504  3.21857624782478
 6 -7.10729822302230  2.02693082228223  0.93732771867187
 6  3.07565389908991 -2.28289824102410 -1.41090233533353
 6  1.20159618691869  1.46515500890089  2.63617725362536
 6  3.02268034333433 -0.87164579017902 -1.02008599679968
 6  1.68930270047005 -4.31088705310531 -0.93671538843884
 6 -8.04616052205221  0.79376101370137 -2.04860324812481
 6  1.88793635923592 -5.13278421302130  0.40021601710171
 6  4.40764637363736 -2.85504397319732 -1.90133936523652
 6  3.98985985658566  0.12222162566257 -1.28460314271427
 6  2.65830645184518  1.52173976217622  2.92417831773177
 6  3.66082045984598  1.55327073857386 -1.11122769006901
 6 -9.24990997439744  0.58343050335034 -1.50594540984098
 6  1.23708877357736 -6.42961961216122  0.50341900090009
 6  4.59436827142714  2.73830058495850 -1.38584566766677
 6  3.81310057845785  3.80269079277928 -1.09388068236824
 6  2.52939451025103  3.33968181928193 -0.50324908760876
 6  5.95464907020702  2.49144398499850 -1.92458441354135
 6  4.21403702350235  5.26111098689869 -1.25100711411141
 6  6.79851990959096  3.51476716151615 -2.42984746164616
 1 -4.08289277537754  2.07306838693869  0.09342238253825
 1 -4.71365602250225 -0.76273774987499  1.49772451665166
 1 -4.58897573747375  0.68456245594559  2.26116302600260
 1 -2.78487752765277 -1.36586398189819 -0.26556347814781
 1 -3.44332532983298  0.70569248634864 -1.59447699859986
 1  0.77388182288229 -0.42042173017302  3.65588513661366
 1  1.49076308570857 -0.48318298569857  2.05494062686269
 1 -0.76308496939694 -2.98833629862986 -0.25924092179218
 1 -3.01298144344434  2.06156742084208  3.50822081178118
 1 -1.68243945904590  1.18903826772677  4.27122551045105
 1 -1.56543292439244  2.54393821362136  2.88765618741874
 1 -6.55624907580758  2.81384018751875  1.44348658165817
 1 -7.08863863086309  1.26318612781278  1.61397840854085
 1 -8.22111804900490  2.53306939003900  0.68108658885889
 1  1.00698340674067  2.23909594619462  1.78608667596760
 1  0.72366547904791  2.11640846284628  3.28656448064807
 1  1.51405573197320  0.32669331433143 -0.39447481278128
 1  2.27961575377538 -4.73365719611961 -1.70853546324632
 1  0.73605540304030 -4.57104695219522 -1.23079156255626
 1 -7.84254531633163  0.87110734133413 -3.22267820602060
 1  1.54012620152015 -4.49314049374938  1.22810038663866
 1  3.04296056615662 -5.37546475097510  0.58168598349835
 1  4.38424348664867 -3.93990144234423 -1.99872333343334
 1  5.06963806220622 -2.66484533473347 -1.06325994359436
 1  4.67031846494649 -2.58100033263326 -2.87118619221922
 1  4.72769238873887 -0.12015410991099 -1.98037421312131
 1 -9.35058865936594  0.09743719921992 -0.47817050685068
 1 -10.14706283988399  0.74899631533153 -2.13703980398040
 1  4.17285197169717  2.73722710641064  3.51766653235324
 1  6.25836930513051  1.45073722292229 -2.02790160516052
 1  5.15782648244824  5.37803056725673 -0.70569918981898
 1  4.35987801030103  5.41427819351935 -2.39742228712871
 1  3.47322499209921  6.09589919631963 -0.79480122172217
 1  1.08699600770077 -7.92903406050605  1.62991904680468
 1  7.76616906130613  3.30441598149815 -3.01903917721772
 1  6.34963685118512  4.47147265946595 -2.33430578307831

