%nproc=4
%Mem=3GB
# td=(NStates=1) B3LYP/SVP 

TD

0 1
 8 -3.21155806600660 -1.29367442294229 -2.82709336363636
 8  2.97196765156516  3.10694235273527  3.06054032493249
 8  3.84497880608061  1.39395652395240  4.38911335493549
 8  7.71674027692769 -1.55292140634063 -0.79802056385639
 8  6.67792194859486 -2.93646444134413 -2.20485693379338
 8 -2.68748965546555  1.69263475257526  1.35946600710071
 7 -0.26961270747075 -2.35083139743974  0.99894473527353
 7 -2.67898993699370 -1.13325846084608 -0.53393553815382
 7  1.14693624302430  0.11749265896590 -0.68399333653365
 7 -1.00259940544054  1.51460686858686 -0.21914281218122
 6 -3.47019216891689 -1.36471403380338  0.70506748064806
 6 -2.63707233333333 -2.33606775297530  1.65006031283128
 6 -1.23679932163216 -2.03800161416142  1.84530251885189
 6 -0.56040584288429 -1.28998018971897  2.84697271777178
 6  0.86401751435144 -1.23891889288929  2.53862505710571
 6  1.00588327452745 -1.92875931063106  1.28313311731173
 6 -4.79446439303930 -1.81574722342234  0.23639052635264
 6  1.96583117451745 -0.55493582318232  3.32607476197620
 6 -4.75910227162716 -1.88445715411541 -1.09137947844785
 6  2.08391634803480 -1.89333752595260  0.29845212391239
 6  2.10995701760176 -0.87041895409541 -0.55878978047805
 6 -3.42092676257626 -1.46281824712471 -1.63698098149815
 6  3.02194325752575 -0.63907465576558 -1.76092999189919
 6 -1.34063263546355 -0.59067292429243  3.85256076437644
 6 -5.84296952105211 -2.15137161746175  1.19668067366737
 6  2.50981063796380  0.44924229242924 -2.47785239523952
 6  1.96075550795080  0.87545323732373  2.83253989558956
 6  1.25920928742874  0.96329297789779 -1.86520262626263
 6  4.22951830093009 -1.60910033913391 -2.01013064316432
 6 -5.64630896699670 -2.53922601300130 -2.09546299449945
 6  5.43634918591859 -1.16265801100110 -1.03661707860786
 6  3.13276337173717  1.11315971857186 -3.60100660986099
 6  0.52639506360636  2.06567171407141 -2.06497824292429
 6  3.00534917521752  1.80096968246825  3.51559690489049
 6 -0.55283911551155  2.31937656985699 -1.21148643654365
 6 -6.76574050055005 -3.23592735683568 -1.70790934963496
 6  6.55854542414241 -1.97274552965297 -1.41323201320132
 6 -1.48439709450945  3.43608584178418 -1.32454052875288
 6 -2.30076416581658  3.51958243724372 -0.23876178237824
 6 -2.02933520592059  2.21075200870087  0.49604853685369
 6 -1.33345332373237  4.51710797099710 -2.22479424742474
 6 -3.36177681418142  4.41829231213121  0.22280652035204
 6 -2.11573546474647  5.66877229542954 -2.50667440024002
 1 -3.60065855905591 -0.64195968586859  1.31565577017702
 1 -2.80818244464446 -3.30622574757476  1.35950629972997
 1 -3.20237005680568 -2.29002244664466  2.63035242394239
 1 -0.53445875067507 -2.95937470257026  0.19847685768577
 1 -1.87871626132613 -0.32768907240724 -0.60710481288129
 1  1.79702766416642 -0.35279673347335  4.57890999009901
 1  2.67599493239324 -1.14792668396840  3.21730666006601
 1  2.99975878977898 -2.67080866376638  0.21552460566057
 1 -2.31601423072307 -1.16782605660566  4.07741480328033
 1 -0.84440420842084 -0.50512471607161  5.04009036553655
 1 -1.68467778157816  0.58381082778278  3.69636840214021
 1 -5.74537532473247 -1.49845797699770  2.10729502250225
 1 -5.89150791149115 -3.07277138173817  1.57590043634363
 1 -6.91676905370537 -2.01903754715472  0.83121948364837
 1  2.14165030443044  1.07487742964296  1.79870748204821
 1  1.03953390489049  1.22694493879388  3.04055202890289
 1  0.52642089968997  0.21691606140614  0.07981594929493
 1  4.31051677087709 -1.67433049204920 -3.12214781668167
 1  4.09232006180618 -2.64962674187419 -1.80595770377038
 1 -5.49054119251925 -2.41464238883888 -3.20305376917692
 1  5.01971989328933 -1.52431291119112 -0.04452122842284
 1  5.56626806810681 -0.14546154225423 -1.32018650115012
 1  3.86337624912491  0.62971946404640 -4.03150137963796
 1  3.34854060566057  1.99396047474747 -3.26664900030003
 1  2.30756654595459  1.45316981488149 -4.17174032603260
 1  0.42321623162316  2.58737023352335 -3.15713660566057
 1 -7.10646973307331 -3.56896908080808 -0.79030805200520
 1 -7.37553581848185 -3.78212954345435 -2.41537459095910
 1  3.58101182868287  3.55168452945294  3.56945019921992
 1 -0.50386426522652  4.48609988948895 -2.88230612601260
 1 -4.37165575517552  4.33089967176718 -0.33982513401340
 1 -3.75750450015001  4.05265005860586  1.35452626402640
 1 -3.10105842204220  5.42436272737274  0.16392216211621
 1  8.33964965846585 -2.19900305450545 -1.01795243024302
 1 -1.78417134173417  6.58107856495650 -3.08862371457146
 1 -3.05251760466047  5.94706608240824 -1.99985589308931

