%nproc=4
%Mem=3GB
# td=(NStates=1) B3LYP/SVP 

TD

0 1
 8 -3.29831674187419 -1.35872092759276 -2.85803645794579
 8  2.89930038483848  3.25579723822382  2.95588985988599
 8  3.45545985418542  1.61621875017502  4.42941738533853
 8  7.65089369226923 -1.71694780898090 -0.46402716451645
 8  6.71163531993199 -2.96030682558256 -2.16737318541854
 8 -2.63262416891689  1.68875436453645  1.48821888238824
 7 -0.20055580178018 -2.55299161346135  0.94432927372737
 7 -2.55901793979398 -1.25520065506551 -0.62230437503750
 7  0.97776932633263  0.03122403210321 -0.81044598179818
 7 -0.97590673617362  1.44515992389239 -0.17808870677068
 6 -3.26495164486449 -1.45079264166417  0.64283125702570
 6 -2.54571319741974 -2.47051119731973  1.56209151595160
 6 -1.08791443314331 -2.17052486648665  1.78631662026203
 6 -0.57037683998400 -1.28262945464546  2.79174719521952
 6  0.79223033563356 -1.15909091009101  2.45316651125113
 6  0.94796748294829 -1.88191462616262  1.34119892389239
 6 -4.73035798239824 -1.94066971567157  0.30958784608461
 6  1.80351494289429 -0.31600192979298  3.15157731223122
 6 -4.77670403180318 -1.97864657305731 -1.01882222272227
 6  2.11451940834083 -1.86161435363536  0.28751102980298
 6  2.08924494639464 -1.01811372357236 -0.72444634613461
 6 -3.54379904980498 -1.46320828612861 -1.70111739513951
 6  2.95539660286029 -0.69199994829483 -1.86146004490449
 6 -1.34053262546255 -0.69597345434543  3.87211271957196
 6 -5.69832505660566 -2.29832631293129  1.34527553315332
 6  2.45030468736874  0.43681104930493 -2.45146975697570
 6  1.90268970137014  1.19889558155816  2.58588523012301
 6  1.36430979747975  0.82572922152215 -1.87137324332433
 6  4.30911626072607 -1.45695512461246 -2.13263289338934
 6 -5.88159249534954 -2.30201229162916 -2.03135658385839
 6  5.47605315631563 -1.20285203040304 -1.09815323222322
 6  3.09644974037404  1.10330873347335 -3.70619712891289
 6  0.53914633873387  1.98327347424742 -2.06094783988399
 6  2.83454209450945  2.01385097059706  3.40913625882588
 6 -0.63846767836784  2.24553918611861 -1.26240152805281
 6 -6.92730665716572 -3.13197696179618 -1.63175173387339
 6  6.66953652325232 -2.08754700980098 -1.28406909690969
 6 -1.32921157595760  3.58802103530353 -1.14859293399340
 6 -2.23615770517052  3.45148562756276 -0.05433333953395
 6 -1.99232150455045  2.04615554905491  0.52116104810481
 6 -1.27811779017902  4.62809907010701 -2.18437020502050
 6 -3.30226086258626  4.43371385428543  0.40828506820682
 6 -1.77119101030103  5.91987740594059 -2.28427216001600
 1 -3.47606609980998 -0.51887737763776  1.13422762736274
 1 -2.69419104550455 -3.35871099609961  1.25213556265627
 1 -2.82377219701970 -2.74832827722772  2.53649303800380
 1 -0.45599090389039 -2.71768053315332 -0.08370136013601
 1 -2.07243563326333 -0.42776908040804 -0.68633273567357
 1  1.42276023742374 -0.24894634843484  4.08928102720272
 1  2.77462479537954 -0.71110300160016  2.97385231463146
 1  3.05348416231623 -2.63916549944994  0.37804085728573
 1 -2.11660428972897 -1.38141741574157  4.30218728052805
 1 -0.64576434443444 -0.54674887848785  4.79884624112411
 1 -1.81719103290329  0.20745319201920  3.35872463776378
 1 -5.51948273547355 -1.77180531173117  2.19653394639464
 1 -5.61687044774477 -3.38223232783278  1.57376022232223
 1 -6.57653503030303 -2.14304994839484  0.72782914461446
 1  2.15343148254825  1.13949389128913  1.50500811211121
 1  0.85527547904790  1.79421166546655  2.52311028472847
 1  0.26342460006001  0.27430179998000 -0.26402843514351
 1  4.48611433063306 -1.15973903290329 -3.10000560246025
 1  4.13697452725273 -2.49968174737474 -2.28958606660666
 1 -5.90511264966497 -1.87680860546055 -3.11883534733473
 1  5.20969889118912 -1.43218369826983  0.08187141084108
 1  5.76955839713971 -0.03540053615361 -1.16891137363736
 1  3.83988389988999  0.30995748784878 -4.19499772927293
 1  3.57217296889689  1.94851593029303 -3.34259659505951
 1  2.35584137343734  1.41740623852385 -4.62399555155516
 1  0.90358426842684  2.48431992849285 -2.95809670167017
 1 -6.86404549064906 -3.66130831473147 -0.57696671787179
 1 -7.73379164406441 -3.57779911041104 -2.19270232373237
 1  3.39110283778378  4.08454781578158  3.44909816401640
 1 -0.66509038783878  4.20394167366737 -3.11812970837084
 1 -4.16216480608061  4.80708729052905 -0.16899805130513
 1 -3.73991274097410  4.07050184378438  1.34391520292029
 1 -2.76161447764776  5.55984627572757  0.72259802970297
 1  8.54546023952395 -2.26297945214521 -0.59848048304831
 1 -1.60778370297030  6.64682513961396 -3.07201205340534
 1 -2.54763711661166  6.19016039183918 -1.50672658015802

