%nproc=4
%Mem=3GB
# td=(NStates=1) B3LYP/SVP 

TD

0 1
 8 -3.25697260746075 -1.29449450495050 -2.82916357065707
 8  3.19457991279128  2.95579723822382  3.25832010291029
 8  3.61555586378638  1.19454658295830  4.63324776837684
 8  7.66317492039204 -1.39714582878288 -0.69798055985599
 8  6.72194635103510 -2.82121291619162 -2.10348679677968
 8 -2.56660756725673  1.64503999309931  1.38485854635464
 7 -0.25034078027803 -2.26672298659866  0.82506734753475
 7 -2.68733077107711 -1.16547168216822 -0.56235838043804
 7  1.26749829922992  0.13122403210321 -0.74442938013801
 7 -1.13570271577158  1.39249465736574 -0.30021091899190
 6 -3.32276742644264 -1.28102566496650  0.63099007290729
 6 -2.66661528762876 -2.32188633483348  1.71713702050205
 6 -1.25372101380138 -2.02015982998300  1.69418740734073
 6 -0.55269507180718 -1.20586177787779  2.77871589208921
 6  0.80785189778978 -1.25586058705871  2.55950714531453
 6  0.96402908910891 -1.83250968566857  1.28508331233123
 6 -4.77622256885689 -1.73052870157016  0.30076696399640
 6  1.94731932333233 -0.53332366196620  3.18372052655266
 6 -4.79097545894589 -1.83373208160816 -1.04157449794980
 6  2.07558551495150 -1.92231042324232  0.24676695539554
 6  2.14138015991599 -0.89684159635964 -0.68965286678668
 6 -3.44492916281628 -1.38209017431743 -1.62461974537454
 6  3.08948001120112 -0.65234598289829 -1.76857075597560
 6 -1.20449902210221 -0.61837569456946  3.86141164946495
 6 -5.75915113921392 -1.99241572187219  1.37968897449745
 6  2.59174883178318  0.45148251645165 -2.44104871487149
 6  1.86174560696070  0.97494318631863  3.04178081968197
 6  1.36833019951995  0.95731237983798 -1.85253135913591
 6  4.23374872397240 -1.39949937903790 -2.13319294939494
 6 -5.88052238833883 -2.40788287868787 -1.81676512471247
 6  5.44188973997400 -1.12286403160316 -1.19035245214521
 6  3.16584668006801  0.96333473607361 -3.73715022422242
 6  0.41849427352735  1.97852299919992 -2.09456120122012
 6  2.95482412271227  1.68760834633463  3.79274461966197
 6 -0.63933776537654  2.28157278947895 -1.24575986388639
 6 -6.87552147864786 -3.33938770287029 -1.69084764346435
 6  6.62159172877288 -1.92858111321132 -1.39179986998700
 6 -1.36992564736474  3.56984921812181 -1.28200627532753
 6 -2.38161225062506  3.36976745574557 -0.31825973217322
 6 -2.07153942634263  2.16680761426143  0.39596852885289
 6 -1.26128610701070  4.52118837903790 -2.46777854585459
 6 -3.37794843134313  4.28940942384238  0.25867010671067
 6 -2.23808769997000  5.51919733793379 -2.73085681848185
 1 -3.48061655485549 -0.38224371427143  1.11008521312131
 1 -2.84728635503550 -3.28045317031703  1.22782313141314
 1 -3.20618043784378 -2.07326077047705  2.54663405210521
 1 -0.41303660846085 -2.81290005510551  0.00869787978798
 1 -2.07827621732173 -0.36249255275528 -0.46865096749675
 1  2.18785674707471 -1.04372582638264  4.24626672577258
 1  2.98894622752275 -0.89808169946995  2.61698662806281
 1  2.76400521442144 -2.79571115401540  0.28278133133313
 1 -2.02892552185219 -1.18951822582258  4.29956701850185
 1 -0.70603037103710 -0.27042124572457  4.86133248974898
 1 -1.62539185298530  0.26224867156716  3.28021678697870
 1 -5.78145893309331 -1.26560469166917  2.17074136713671
 1 -5.69707846854685 -3.00285439003900  1.91427427372737
 1 -6.82031940874087 -2.25742138553855  0.84805116681668
 1  1.96148228762876  1.16933687558756  2.01423903520352
 1  0.96815676717672  1.47345959025903  3.35763373707371
 1  0.20903916151615  0.16477084688469 -0.14703673597360
 1  4.68543426262626 -1.24452751175118 -3.31465706760676
 1  3.81027185698570 -2.50268204740474 -2.23420052805281
 1 -5.82443458185819 -2.02047297189719 -2.81189465326533
 1  5.01074899619962 -1.33702418231823 -0.23112988928893
 1  5.74333577487749 -0.17440443654365 -1.18361284378438
 1  4.30074998649865  0.62494898699870 -3.79096732623262
 1  3.19163491509151  2.13422450115011 -3.53260559595960
 1  2.66040182948295  0.50362486038604 -4.78302145414541
 1  0.62686659665967  2.50204170067007 -3.03116400840084
 1 -7.15220430653065 -3.72073425732573 -0.65100412161216
 1 -7.59072733763376 -3.65854718521852 -2.39165221872187
 1  3.88377210471047  3.08828818981898  3.89611286548655
 1 -0.49044292309231  4.29617089658966 -3.02441033643364
 1 -4.17359594919492  4.27304388618862 -0.50063121462146
 1 -3.64294304400440  4.00952574617462  1.24830564196420
 1 -2.89796811301130  5.37837812891289  0.16490226012601
 1  8.48703439693969 -1.90099325352535 -0.84132476747675
 1 -2.06283920852085  6.26501695879588 -3.56081093329333
 1 -3.02845519841984  5.83439481528153 -2.07336324382438

