%nproc=4
%Mem=4GB
# td=(NStates=1) B3LYP/SVP 

TD

0 1
 8 -5.33153938393839 -0.08711327172717 -3.20313010271027
 8  2.99298930443044  2.87996525122512  3.25294137253725
 8  3.27579592819282  0.69031443044304  3.03471535663566
 8  1.56183382288229 -7.06034230433043  1.41850035633563
 8  0.54909979797980 -7.04702112571257 -0.51596957985799
 8  1.78226527462746  4.07140026282628 -0.06058655125513
 7 -2.43614322542254 -1.03198162836284  0.67778479507951
 7 -4.43961884328433  0.50323799029903 -1.15881423622362
 7  1.79717010861086 -0.58038961196120 -0.46025450305030
 7  2.62600814271427  1.96882262776278 -0.64377112381238
 6 -4.79275566676668  1.23936543354335  0.05879167896790
 6 -4.43435082788279  0.41206137143714  1.26021337903790
 6 -2.98969406500650 -0.02708245154515  1.41214322732273
 6 -1.98705780248025  0.62886784398440  2.18121129072907
 6 -0.69936654695470 -0.09366480198020  1.79621029862986
 6 -1.06290047784778 -1.09996305520552  0.81563338273827
 6 -6.28235059115912  1.26655444474447 -0.15596081148115
 6  0.53500210681068  0.13347402390239  2.49421844194419
 6 -6.63217373187319  0.76812606100610 -1.33979970867087
 6 -0.20351660776078 -1.96862559945995  0.13985606710671
 6  1.06719361556156 -1.76552609920992 -0.38910049224923
 6 -5.42120272057206  0.35433364806481 -2.09379669116912
 6  2.01126521172117 -2.89979051745174 -0.92734974427443
 6 -2.11890759165917  1.72382813971397  3.08669305950595
 6 -7.18808630183018  1.98342647184718  0.88057204310431
 6  3.12305863956396 -2.24802475367537 -1.38950019511951
 6  1.18877490479048  1.57639613301330  2.45953958985899
 6  3.07783585888589 -0.79461808740874 -1.00961494969497
 6  1.61458522872287 -4.35237120152015 -0.99654137103710
 6 -7.95714162016202  0.68659029662966 -1.96848523632363
 6  1.63929149474947 -5.02144307890789  0.46790278577858
 6  4.36328193719372 -2.98017648644865 -1.91816104740474
 6  4.01956282688269  0.14694409790979 -1.26939162156216
 6  2.56562718391839  1.64221180938094  2.93839973987399
 6  3.75054943274327  1.59433484498450 -1.10428699599960
 6 -9.12512749614961  0.81395355565557 -1.34780959625963
 6  1.24488955365537 -6.51405805600560  0.31822048104810
 6  4.58127696229623  2.62903965886589 -1.47717480058006
 6  3.92516178457846  3.81440196389639 -1.08305960026003
 6  2.67328889968997  3.41907975907591 -0.39911867456746
 6  5.83733733903390  2.43753859445945 -2.10166212131213
 6  4.42955857565757  5.22473734953495 -1.08448046144614
 6  6.75600565816582  3.38068375317532 -2.44227870477048
 1 -3.92816730283028  2.14685576567657  0.06667970827083
 1 -5.13792844974497 -0.38058953505351  1.12207695189519
 1 -4.59273611351135  0.91407540724072  2.21050796049605
 1 -2.77359639953995 -1.70072746824682 -0.02142906470647
 1 -3.40052104940494  0.78111002810281 -1.60988853975398
 1  0.47827226192619 -0.23375306330633  3.54027357545755
 1  1.40451446084608 -0.50073474087409  2.31121625442544
 1 -0.62185084598460 -2.93846131113111 -0.15276027372737
 1 -3.01891203650365  1.92063332743274  3.45784577427743
 1 -1.44924613971397  1.46505586948695  3.97590597849785
 1 -1.73265964706471  2.76469028882888  2.78217563936394
 1 -6.59339279017902  2.81133993749375  1.65147738073807
 1 -7.42647241424142  1.13457326652665  1.44721173187319
 1 -8.01548748594860  2.50774685778578  0.53680216041604
 1  0.95028773717372  1.90651268786879  1.35163323062306
 1  0.66079919241924  2.40677749974997  2.97018284248425
 1  1.47287161356136  0.34245489048905 -0.49608497379738
 1  2.47899569176918 -4.98650248064806 -1.47510211991199
 1  0.52364416191619 -4.32989283678368 -1.41346983038304
 1 -7.86759782158216  0.77334756535654 -3.06560249844985
 1  0.91740392929293 -4.63992517221722  1.22554013061306
 1  2.70693696379638 -4.74143134763476  0.73993180808081
 1  4.31930699299930 -3.98342579477948 -2.14836829792979
 1  5.31788288668867 -3.13893274347435 -1.28334195179518
 1  4.61822325542554 -2.53265549814981 -2.76846592019202
 1  4.95340495999600 -0.15109720422042 -1.75183135883588
 1 -9.11738533903390  1.04575203070307 -0.36523921372137
 1 -10.10215834943494  0.74998641434143 -1.87059315931593
 1  3.87577226372637  2.69234261796180  3.37104186988699
 1  6.12306577477748  1.39023117231723 -2.40590940594059
 1  5.74770547034703  5.27151991619162 -0.70786940684068
 1  4.51982400490049  5.73965073077308 -2.05214775967597
 1  3.87764543414341  6.06625623202320 -0.47336907850785
 1  1.27581488958896 -8.06917807490749  1.50265632053205
 1  7.48221066546655  3.06424196409641 -3.10534780808081
 1  6.51115300280028  4.38231374357436 -2.15760811331133

