%nproc=4
%Mem=4GB
# td=(NStates=1) B3LYP/SVP 

TD

0 1
 8 -5.42350858085809  0.12144758435844 -3.28150794049405
 8  3.20642064756476  2.73957121182118  3.00907698609861
 8  3.39717806640664  0.53073847284728  2.93745563066307
 8  1.54875251475148 -6.97810408050805  1.71564007030703
 8  0.71883677167717 -7.11615803940394 -0.44244222712271
 8  1.76978402650265  3.98380150295029  0.14307381478148
 7 -2.38310792189219 -0.97176560676068  0.63683069966997
 7 -4.39439432083208  0.52941060756076 -1.30805916071607
 7  1.85757614921492 -0.65569714271427 -0.50399887748775
 7  2.53922946484648  1.87921366686669 -0.47490423712371
 6 -4.79760615181518  1.16015751275128 -0.12372657285729
 6 -4.37567496029603  0.43461362666267  1.23950130783078
 6 -2.95018011361136  0.04713497019702  1.38949096209621
 6 -1.92713180988099  0.60264522172217  2.16278944854485
 6 -0.72896950725073 -0.11924736023602  1.83280395799580
 6 -1.02449663746375 -1.01229428832883  0.87619943934393
 6 -6.35401775787579  1.33841163046305 -0.18658387378738
 6  0.58683729032903  0.04199487598760  2.59215823592359
 6 -6.61209172367237  0.81673092149215 -1.42102783148315
 6 -0.19914617071707 -1.97141587848785  0.13616569806981
 6  1.15681257745775 -1.83800334693469 -0.32403398559856
 6 -5.53393399369937  0.46395461016102 -2.15244255575558
 6  1.99357344254425 -2.89249978837884 -0.90280729002900
 6 -2.15613131403140  1.72303806070607  3.10506489668967
 6 -7.04537203040304  2.07757588678868  0.91207519341934
 6  3.09638597229723 -2.29368932013201 -1.46096734183418
 6  1.20238626592659  1.52258075147515  2.61813544944494
 6  3.02335041034103 -0.86064469006901 -1.13012700090009
 6  1.59913368356836 -4.33147911231123 -0.93619533643364
 6 -7.95987189318932  0.73330496809681 -2.00438882668267
 6  1.80100766636664 -4.96087702230223  0.43886988248825
 6  4.29029463846385 -2.97826629542954 -2.11356058735874
 6  3.86119699029903  0.12302170567057 -1.41102578497850
 6  2.67025764696470  1.54062165036504  2.80694659455946
 6  3.66493087088709  1.49262467396740 -1.09706627392739
 6 -9.12293727712771  0.77882004230423 -1.41302611791179
 6  1.28795386008601 -6.46747339753975  0.44506316531653
 6  4.47135597019702  2.69423617851785 -1.36648373147315
 6  3.83705297369737  3.87278780248025 -1.01677297159716
 6  2.63037460826083  3.31580943204320 -0.34085284798480
 6  5.84070767606761  2.53470831143114 -1.97132908800880
 6  4.23750937073707  5.23131800760076 -1.08859087248725
 6  6.65697575517552  3.59583526832683 -2.48285276217622
 1 -4.26470095619562  2.23487456755676 -0.00612757245725
 1 -5.04383904080408 -0.69983145924592  1.07511225542554
 1 -5.03478031793179  1.06343034273427  2.05067197689769
 1 -2.94455349524952 -1.43616101160116 -0.07459438123812
 1 -3.39342033933393  0.44745666276628 -1.70551810271027
 1  0.42112654735474 -0.31573126112611  3.61764131223122
 1  1.14753876327633 -0.89661432883288  2.28558369116912
 1 -0.49089775067507 -2.88084554955496 -0.07084208190819
 1 -3.37181732703270  1.84797606170617  3.10147013671367
 1 -1.83687490259026  1.65073443734373  4.19478786668667
 1 -1.85633201430143  2.70517433723372  2.80704812661266
 1 -6.25558900980098  2.97338614211421  1.20158239123912
 1 -7.24763453045304  1.39263907310731  1.71515852655266
 1 -7.82444838203820  2.56023210631063  0.65245372557256
 1  1.10335304370437  2.14259629622962  1.48350641794179
 1  0.66774988748875  2.22483930593059  3.51928775297530
 1  1.54296862326233  0.17245789078908 -0.12037740304030
 1  2.18569636183618 -4.76469029942994 -1.52581719141914
 1  0.62715451295129 -4.63698354585459 -1.42359084248425
 1 -8.06568763056306  0.29586981758176 -3.00996693489349
 1  1.25953814271427 -4.48695987568757  1.37018459505951
 1  2.90571684178418 -5.00114731923192  0.57040485538554
 1  4.22280734303430 -3.98691614381438 -2.04722818391839
 1  5.10570166856686 -2.65724457465747 -1.49644326192619
 1  4.48806023912391 -2.41161339393939 -3.02236130973097
 1  4.70863048254826 -0.12534462896290 -1.94793096879688
 1 -9.12418601910191  1.02320977647765 -0.52873556335634
 1 -9.99784791839184  0.54082549824982 -1.85808190819082
 1  4.08904359085909  2.67430081378138  3.19001376707671
 1  6.25977944614461  1.50017216641664 -2.02921173617362
 1  5.12236293609361  5.35067783198320 -0.52236085598560
 1  4.63900592309231  5.57334410011001 -2.09887243214321
 1  3.29293696329633  5.84210381678168 -0.92299404100410
 1  1.30149745784578 -7.85675683278328  1.75790184508451
 1  7.55308775317532  3.20515605550555 -2.98553582688269
 1  6.63325521302130  4.74064957715772 -2.07268962146215

