%nproc=4
%Mem=4GB
# td=(NStates=1) B3LYP/SVP 

TD

0 1
 8 -5.05663189318932  0.15960139973997 -3.29470926062606
 8  3.17995800130013  2.96554380908091  2.95852193059306
 8  3.41223957255726  0.79539493849385  3.01847373247325
 8  1.61372901240124 -7.07444371447145  1.48965747204720
 8  0.68395328332833 -7.03013943754375 -0.60871885478548
 8  1.63982103020302  3.95430855365537  0.10535004240424
 7 -2.21328093919392 -0.95561399159916  0.71034805140514
 7 -4.27084196559656  0.65114278077808 -1.14161251605161
 7  1.91185157675768 -0.75095666866687 -0.26643512111211
 7  2.46169171107111  1.90389613511351 -0.58211495819582
 6 -4.73106949814981  1.24455595259526  0.11895769556956
 6 -4.38838623142314  0.21864202950295  1.29936729442944
 6 -2.90571566716672 -0.03469321262126  1.42188420142014
 6 -1.86609570627063  0.60051500870087  2.21284445404540
 6 -0.68513512381238 -0.03766920242024  1.93502418001800
 6 -0.86605079287929 -1.06538959785979  0.99996181558156
 6 -6.30996335243524  1.36442423172317 -0.18232344774477
 6  0.61083969056906  0.16529720622062  2.76271529162916
 6 -6.49693020752075  1.01549079747975 -1.50117584628463
 6 -0.16029228532853 -2.06420515741574  0.28161024252425
 6  1.08613550975098 -1.91540108670867 -0.30690227242724
 6 -5.14517511781178  0.50693890859086 -2.10823813531353
 6  1.89275336053605 -2.87718825722572 -0.94042105140514
 6 -2.16102180308031  1.82917867476748  3.18689307950795
 6 -7.13527102030203  1.83468159735974  0.88925291119112
 6  3.01544787848785 -2.26598654985499 -1.40821206630663
 6  1.15754178147815  1.67208570197020  2.76546018191819
 6  2.97281535683568 -0.87812643824382 -1.02850683888389
 6  1.40433420362036 -4.35412137653765 -1.06641835873587
 6 -7.75160106610661  0.71512314991499 -2.18711709950995
 6  1.50934850045005 -5.01561249584959  0.34209020452045
 6  4.16485209420942 -3.03966243504350 -2.23130236153615
 6  3.90931180178018  0.11928133163316 -1.29373405580558
 6  2.69219984118412  1.71576916511651  2.93401930183018
 6  3.56828120592059  1.44497990949095 -1.06519308660866
 6 -9.02219720312031  0.67943010331033 -1.63315813111311
 6  1.16901196589659 -6.43779042924292  0.40667932693269
 6  4.38562739733973  2.59579633453345 -1.53015009810981
 6  3.79672894129413  3.80434095779578 -1.04714600890089
 6  2.56507807860786  3.24562241334133 -0.45843460616062
 6  5.69203280858086  2.50198503910391 -2.08189014411441
 6  4.12802842264226  5.28825370117012 -1.13812582598260
 6  6.54565462306231  3.38608429322932 -2.56040051695170
 1 -4.19862434853485  2.20939201930193  0.29443248354835
 1 -4.80484514141414 -0.64167564366437  1.11647639183918
 1 -4.77036387628763  0.52990699039904  2.35682259195920
 1 -2.84450349024902 -1.46375377087709  0.03679675787579
 1 -3.12312330963096  0.78409032613261 -1.49918746964696
 1  0.33598803350335 -0.36223591159116  3.92095164326433
 1  1.25901991139114 -0.58819348674868  2.43291842464246
 1 -0.72785144604460 -3.02839030403040 -0.13130812851285
 1 -3.18727887318732  2.10148141224122  3.01455144484448
 1 -1.78788000310031  1.57850721462146  4.19868825672567
 1 -1.67241362246225  2.59412323212321  2.81536895869587
 1 -6.75347879877988  2.50001880538054  1.71295352835284
 1 -7.73712347934793  0.99192900210021  1.38744575527553
 1 -7.97433337053705  2.43213929702970  0.39763824402440
 1  1.02924563296330  2.11275331193119  1.84762282958296
 1  0.68917202970297  2.13202002400240  3.47603342754276
 1  1.54868919531953  0.19390003500350 -0.25127049234923
 1  1.90858865106511 -5.16842067246725 -1.81216582628263
 1  0.39159095659566 -4.32703255075508 -1.45502398579858
 1 -7.46171723352335  0.55863609420942 -3.26264220242024
 1  0.73111530043004 -4.53437461716172  1.17327490409041
 1  2.61138740884088 -5.13091029552955  0.84621243614361
 1  3.93942900520052 -4.10886833903390 -2.08364182528253
 1  5.17958905730573 -3.01115996619662 -1.79726334393439
 1  3.97731916501650 -2.72712494509451 -3.32356142974297
 1  4.92717233673367 -0.27205930043004 -1.55928210391039
 1 -9.14013761426143  0.72058951445145 -0.66487917771777
 1 -9.71315944954496  0.26406782248225 -2.40907700770077
 1  4.13898858535854  2.88189157285729  3.05586035173517
 1  5.98926239443944  1.47900004920492 -2.41097991299130
 1  5.27532823262326  5.36299906410641 -0.82425104500450
 1  4.06234825732573  5.60752751845185 -2.27559010391039
 1  3.34502217181718  5.67765737213721 -0.32837457905791
 1  1.46276358445845 -8.04124528162816  1.34254030893089
 1  7.52600504490449  3.07192273217322 -2.99894716801680
 1  6.37481936943694  4.32635814801480 -2.37361971447145

