%nproc=4
%Mem=4GB
# td=(NStates=1) B3LYP/SVP 

TD

0 1
 8 -5.33726995699570  0.22311775137514 -3.36460625032503
 8  3.02865287078708  2.92290954565456  3.28971504990499
 8  3.30586893549355  0.74338973797380  2.97734962006201
 8  1.77999563906391 -7.12242851295129  1.38246675297530
 8  0.31798668666867 -6.78081450505050 -0.41016899979998
 8  1.81691873997400  3.83424654745475  0.25013452085209
 7 -2.35624523562356 -1.02262069226923  0.75298231483148
 7 -4.29446432783278  0.38598626512651 -1.23702205700570
 7  1.90248063966397 -0.78594016701670 -0.24856333393339
 7  2.66466200810081  1.79207495299530 -0.31065781248125
 6 -4.70199659085909  1.08820031703170  0.00071587138714
 6 -4.40583797659766  0.19219938523852  1.27036439413941
 6 -2.90771586718672  0.01299155585559  1.45767778077808
 6 -1.96314541124112  0.71113607080708  2.05741891149115
 6 -0.76100271057106  0.07932249674968  1.82361303890389
 6 -1.01901608940894 -1.07295035393539  0.85062688208821
 6 -6.28664102020202  1.23070085938594 -0.14922013741374
 6  0.60909951655166  0.24628530503050  2.57588660876088
 6 -6.61144165866587  0.90018926732673 -1.41089681838184
 6 -0.19547580368037 -1.93887262416242  0.18261034253425
 6  1.06608350455046 -1.93993353995400 -0.33028461066107
 6 -5.37709831013101  0.41222943764376 -2.17546485798580
 6  1.89107319251925 -2.84777531593159 -0.99563657295730
 6 -2.11391709260926  1.84461021792179  3.21423581378138
 6 -7.12138963216322  1.80939906910691  0.89171315721572
 6  3.12738907260726 -2.30149010021002 -1.38111935703570
 6  1.08068409570957  1.72830132353235  2.63903753965397
 6  3.02392046734673 -0.95593421902190 -1.02973696189619
 6  1.45268903910391 -4.32641860626063 -0.97557927482748
 6 -7.94623052905291  0.89840147774777 -2.12872125992599
 6  1.76002356795680 -5.07073800840084  0.40322631813181
 6  4.29258486748675 -3.00201867066707 -2.11067029832983
 6  4.05977684828483  0.09749915341534 -1.33308799119912
 6  2.60458107930793  1.62545013321332  3.04910080998100
 6  3.86213059085909  1.40771618311831 -0.95403197049705
 6 -9.06292127552755  0.73478563886389 -1.48045286058606
 6  1.18279334403440 -6.35963261346135  0.37494615361536
 6  4.59717855245525  2.69239599449945 -1.56742382548255
 6  3.87364663306331  3.70754127782778 -1.09254054835484
 6  2.69167073787379  3.21027887898790 -0.31931069376938
 6  5.88441204650465  2.53844868546855 -2.25196715181518
 6  4.04964058385839  5.25993086888689 -1.34546656005601
 6  6.61430148774877  3.59937562236224 -2.71910638753875
 1 -4.27486197229723  2.15579665976598  0.04157719801980
 1 -4.92162681958196 -0.78160963706371  1.16181092529253
 1 -4.69546638653865  0.80042404210421  2.19264617431743
 1 -2.82483152305230 -1.34941233673367 -0.07918484028403
 1 -3.27038803610361  0.54697661476148 -1.57325487638764
 1  0.20758519321932 -0.40689037703770  3.55950549864986
 1  1.40477448684869 -0.35248991639164  2.14172930573057
 1 -0.76879554045404 -3.02607007200720  0.01139614191419
 1 -3.22558270357036  1.70709197329733  3.48515850555055
 1 -1.33708492359236  1.45998536243624  4.02162054995500
 1 -1.88026440754075  2.80266408620862  2.96380380218022
 1 -6.66130958185818  2.36469527302730  1.75225745874588
 1 -7.47057682468247  1.01033084228423  1.53504051475147
 1 -7.90990692789279  2.39433551665167  0.57653613381338
 1  0.96170887928793  2.35634767136714  1.56470453775378
 1  0.56666977947795  2.26991381338134  3.26359218341834
 1  1.75390971737174  0.15701634663466  0.07493212791279
 1  1.70620841304130 -4.98125195559556 -1.86633124282428
 1  0.39704150165017 -4.24361420892089 -1.32710119351935
 1 -7.79227028882888  1.13485371597160 -3.33757969616962
 1  1.52077426632663 -4.43985516521652  1.39930750735073
 1  2.84617088718872 -4.93699090359036  0.35271308620862
 1  3.77388245054505 -3.94404185638564 -2.34941840294029
 1  5.20632173057306 -3.13468231843184 -1.44729834743474
 1  4.51485291839184 -2.40663289588959 -3.07267634123412
 1  4.88807842734274 -0.41750384488449 -1.69761593729373
 1 -9.48937253775378  0.86002345784578 -0.44109679947995
 1 -9.95164329792979  1.13864528022802 -2.16480258025803
 1  3.98501318781878  3.03636702040204  3.70619538523852
 1  6.25434890309031  1.40718286748675 -2.14831364636464
 1  4.98504920472047  5.51779454365437 -0.82565118501850
 1  3.94703672617262  5.47423418911891 -2.37212975787579
 1  3.12995066466647  5.74472407880788 -0.88393013461346
 1  1.41279858795880 -7.88636979407941  1.39711576647665
 1  7.64250669506951  3.45372091199120 -3.38847612091209
 1  6.25373726122612  4.70583609580958 -2.79081143364336

