%nproc=4
%Mem=4GB
# td=(NStates=1) B3LYP/SVP 

TD

0 1
 8 -5.38123435343534  0.19327476707671 -3.34374416411641
 8  2.97734774027403  2.96723397809781  3.14319039743974
 8  3.41813016161616  0.71386678567857  2.88253013811381
 8  1.69085672517252 -7.33156942704270  1.54814332063206
 8  0.79416430443044 -7.11246767036704 -0.37746572947295
 8  1.63367041514151  3.98115123792379 -0.03856434903490
 7 -2.26714632573257 -0.86189461966197  0.53831084768477
 7 -4.34826970837084  0.66112377887789 -1.24545290009001
 7  1.76462685428543 -0.64711628462846 -0.49315779337934
 7  2.37054259615962  1.83643938943894 -0.64501124782478
 6 -4.65972236343634  1.20443194019402  0.02230803060306
 6 -4.41398879167917  0.27194736003600  1.25115247294729
 6 -2.88835393099310  0.00033028972897  1.35154716771677
 6 -1.96802589928993  0.56013097029703  2.17525069466947
 6 -0.73982059235924 -0.00295573107311  1.80148082568257
 6 -1.02652684048405 -0.98529158805881  0.82150396979698
 6 -6.13106546264626  1.44673246254625 -0.15956117151715
 6  0.54558316491649  0.11611228772877  2.66403542364236
 6 -6.65498601310131  0.95003425182518 -1.37065279397940
 6 -0.21176743284328 -2.07938667556756  0.16685876737674
 6  1.08133502970297 -1.85787533413341 -0.35674725692569
 6 -5.40077067736774  0.60932914761476 -2.10856816831683
 6  1.99688377357736 -2.94058459685969 -0.84603161246125
 6 -2.14408010891089  1.73857961486149  3.19887427762776
 6 -6.99866735993599  2.05897402660266  0.92270625652565
 6  3.07845417911791 -2.31964191539154 -1.39259050415042
 6  1.18622464976498  1.56486497989799  2.65528916481648
 6  2.97495557085709 -0.90022864846485 -1.12522651085109
 6  1.62441621182118 -4.42885885028503 -0.88923063996400
 6 -7.97494340034003  0.91320295789579 -1.96292468026803
 6  1.88653621922192 -5.19725065966597  0.41689768526853
 6  4.27365297429743 -3.04106257505751 -1.99282851415142
 6  3.92041291189119  0.10948035153515 -1.54814949734974
 6  2.62502312351235  1.66537412561256  2.87545344524452
 6  3.59972435023502  1.48824423592359 -1.18457502480248
 6 -9.16818180158016  0.76347850815082 -1.45843065836584
 6  1.43577864256426 -6.57872452265227  0.52574123312331
 6  4.38990782538254  2.70847760266027 -1.48732581568157
 6  3.81410067846785  3.77147767146715 -1.07474876917692
 6  2.47856942774277  3.24632248334833 -0.60930969366937
 6  5.81685529082908  2.59345418601860 -2.07363931903190
 6  4.21334695449545  5.16473134893489 -0.90110212361236
 6  6.76645670327033  3.52941862666267 -2.21959643654365
 1 -3.92313679977998  2.10873195329533 -0.06588354805481
 1 -4.85910056695670 -0.66024750085009  1.03798854305430
 1 -4.85091193109311  0.70372437213721  2.24524143384338
 1 -2.78833787368737 -1.37362475797580 -0.08031495329533
 1 -3.47626862416242  0.63379529662966 -1.63543109400940
 1  0.45446988168817 -0.35187487548755  3.65028457655766
 1  1.32334634403440 -0.54393906130613  2.22301743454345
 1 -0.55018367926793 -3.13437090209021  0.32707771007101
 1 -3.22065221052105  2.04987625172517  3.48356834653465
 1 -1.60440165526553  1.27203656755676  4.15403379127913
 1 -1.52848923002300  2.57851167096710  2.79435685748575
 1 -6.45994944584458  2.64369317281728  1.48646087908791
 1 -7.71796156315632  1.23761357055706  1.45886289698970
 1 -7.91984792199220  2.66659274237424  0.59282776297630
 1  1.00515322372237  1.83145518211821  1.51915998329833
 1  0.66441955445545  2.23568039003900  3.29224504870487
 1  1.31730605700570  0.24412505750575 -0.44610997629763
 1  2.10590838303830 -4.84768859925993 -1.75184979467947
 1  0.66628842634263 -4.46329617711771 -1.01673015641564
 1 -7.74735579737974  0.72622285288529 -3.00690662886289
 1  1.53765595449545 -4.55057623732373  1.18322589918992
 1  3.05738200830083 -5.08750595509551  0.60386820172017
 1  3.97947300960096 -4.14761221342134 -2.19202266336634
 1  5.05777687608761 -3.04312316251625 -1.27376099369937
 1  4.66015744884488 -2.38849108170817 -2.97704677827783
 1  4.81119073857386 -0.24757685218522 -1.98551472717272
 1 -9.32444604510451  1.13802125762576 -0.36692938273827
 1 -10.19233736733673  0.47437885358536 -1.85945204520452
 1  3.87778246474647  2.88306168986899  3.26168093379338
 1  6.19000246844684  1.47171932113211 -2.09857867286729
 1  5.10935163496350  5.24123688788879 -0.11840045994600
 1  4.55778780128013  5.53442020772077 -1.91775432033203
 1  3.45103277287729  5.82289189558956 -0.54425616721672
 1  1.09362667076708 -8.17187834493449  1.38651470637064
 1  7.82397484188419  3.33902944284428 -2.62293956725672
 1  6.60148203570357  4.64189970217022 -1.83602595509551

