%nproc=4
%Mem=3GB
# td=(NStates=1) B3LYP/SVP 

TD

0 1
 8 -3.31238814901490 -1.38138319381938 -2.91856251055105
 8  3.11481193599360  3.13591525002500  3.12259653055305
 8  3.55033934213421  1.44166129442944  4.55502994659466
 8  7.75900450335033 -1.66069218341834 -0.69957071887189
 8  6.37801195759576 -3.14821561646165 -1.71292774087409
 8 -2.60541144764476  1.58655414451445  1.44596465696570
 7 -0.28720446664666 -2.53122943724372  0.98705354615462
 7 -2.64792683068307 -1.36427156215622 -0.75226737133713
 7  1.10581213061306 -0.01256034633463 -0.79225416261626
 7 -0.98033717921792  1.40100550845085 -0.28320921882188
 6 -3.30205535523552 -1.30360792319232  0.55662263616362
 6 -2.58495712181218 -2.33022716891689  1.60030533733373
 6 -1.12898854055406 -1.99852766676668  1.76111410001000
 6 -0.50246004830483 -1.14448564026403  2.78503652415242
 6  0.91195230783078 -1.25526052705271  2.40714190879088
 6  1.01255394159416 -1.88312474717472  1.20539534353435
 6 -4.76499144574457 -1.79653530223022  0.24055094239424
 6  2.02789738113811 -0.38706903650365  3.08916107060706
 6 -4.79083544494449 -2.00279898829883 -1.09724006450645
 6  2.07069502590259 -2.02195038723872  0.26221850055005
 6  2.12933895579558 -0.92841475367537 -0.76974087558756
 6 -3.59130380028003 -1.52155412071207 -1.75579286268627
 6  3.06476753995400 -0.53974472277228 -1.69217311621162
 6 -1.18335690789079 -0.37424128112811  3.91602711101110
 6 -5.63954917901790 -2.20152663296330  1.26773777937794
 6  2.61700135703570  0.55735310351035 -2.43344795479548
 6  1.94977440984098  1.08982467446745  2.72694933653365
 6  1.32482584908491  0.97946459505951 -1.73502960896090
 6  4.22303765286529 -1.31551098019802 -1.99666929702970
 6 -5.93268760486049 -2.33441553195320 -1.98106155435544
 6  5.55633118411841 -0.90635238043804 -1.20920433733373
 6  3.18081817721772  1.18209661226123 -3.73228973817382
 6  0.51467389148915  2.03189833673367 -2.03802554765477
 6  3.05070371067107  1.84687427292729  3.58116346154615
 6 -0.65717954955496  2.27690232243224 -1.26241152905291
 6 -7.05531945844584 -3.14254801890189 -1.55622418111811
 6  6.56906647624762 -2.06358461356136 -1.27606829682968
 6 -1.45350400520052  3.47418965216522 -1.32407048174817
 6 -2.39091318071807  3.37613809280928 -0.16488439463946
 6 -2.06845911831183  2.11542247574757  0.41450038203820
 6 -1.39416939533953  4.52469873007301 -2.25742751075108
 6 -3.48467910441044  4.21436191909191  0.31222546224622
 6 -1.97742163336334  5.77938335653565 -2.21929566236624
 1 -3.18460695389539 -0.42200769066907  1.11687589218922
 1 -2.38978060446045 -3.32154727972797  1.08333868296830
 1 -3.17185700550055 -2.37634107850785  2.48147753645364
 1 -0.64678998379838 -2.99693845894589  0.13970098009801
 1 -1.97867625732573 -0.68977528102810 -1.02523662606261
 1  1.85204316571657 -0.56511796559656  4.36239833893389
 1  2.94805213811381 -0.95053694499450  2.89618454785479
 1  2.76386520042004 -2.61646322922292  0.53550660386039
 1 -1.76972960226023 -1.01328060206021  4.36693375517552
 1 -0.36493626162616 -0.06391059465947  4.68441479797980
 1 -1.64247356115612  0.49636208290829  3.32747151245125
 1 -5.75832661986199 -1.64343247444744  2.15835012801280
 1 -5.70773953465346 -3.42939704430443  1.49789263556356
 1 -6.81037841464146 -2.09535517891789  1.04879124082408
 1  2.23914005340534  1.23022296419642  1.60633824512451
 1  0.90546049754975  1.41384362866287  2.89560753445345
 1  0.24936319391939  0.35494986478648 -0.34326635893589
 1  4.44647036623662 -1.37446050505051 -3.16886248814881
 1  4.00320114991499 -2.52963474267427 -1.76190329832983
 1 -5.91124326272627 -2.03611453605361 -3.15110857465747
 1  5.28061598289829 -0.85547602750275 -0.19545632193219
 1  6.18779022032203  0.00423342724272 -1.51584606710671
 1  3.68892880438044  0.48586507860786 -4.34707293679368
 1  3.78338409000900  2.09738081678168 -3.59089142454245
 1  2.30538632793279  1.41162566046605 -4.33846699869987
 1  0.70024393439344  2.41747324382438 -2.93164405640564
 1 -7.34551363746375 -3.42716490039004 -0.49085810701070
 1 -7.66542480738074 -3.64816614711471 -2.19817287078708
 1  3.97798152565257  3.52370173117312  3.68385163936394
 1 -0.76038991779178  4.32301358085809 -3.08152604800480
 1 -4.28284687428743  4.47072365416542 -0.45359651115112
 1 -3.97557630733073  3.62336713031303  1.06071688308831
 1 -3.00754907110711  5.09857014811481  0.82833860376038
 1  8.50904659815982 -2.34810796499650 -0.92026266126613
 1 -1.71084400900090  6.62436289338934 -3.04567942014201
 1 -2.70086243914391  6.34750612641264 -1.50089599709971

