%nproc=4
%Mem=3GB
# td=(NStates=1) B3LYP/SVP 

TD

0 1
 8 -3.16750366056606 -1.41521657715772 -2.87073772807281
 8  3.00862131693169  3.17170882938294  3.16662093299330
 8  3.68400270847085  1.34504163246325  4.35005944954495
 8  7.73552215511551 -1.52169828402840 -0.89077983978398
 8  6.64860901730173 -3.17890868576858 -2.05079152725273
 8 -2.66170707720772  1.56460194929493  1.43161322182218
 7 -0.23213896009601 -2.33952026632663  0.84222906370637
 7 -2.64466650465046 -1.10790592559256 -0.62533467806781
 7  1.20792234163416  0.09065997569757 -0.65965090229023
 7 -1.06283542904290  1.41353676157616 -0.19558045594559
 6 -3.31158630833083 -1.35844340674067  0.61315828972897
 6 -2.61189981608161 -2.38248239443944  1.54534984178418
 6 -1.19530517221722 -2.04070188418842  1.73523151175117
 6 -0.60252005430543 -1.14656584828483  2.75707372787279
 6  0.72774388698870 -1.11785678667867  2.43384457905791
 6  0.98729141534153 -1.82219865456546  1.18357316131613
 6 -4.65837078367837 -1.83961961066107  0.32842973027303
 6  1.78417300870087 -0.29608993859386  3.16503865836584
 6 -4.83987034843484 -2.09873858225823 -1.03769410991099
 6  2.07242519891989 -1.91549974217422  0.31739401810181
 6  2.09921594349435 -0.86586849904990 -0.60408430993099
 6 -3.52030670057006 -1.44515648094809 -1.70641792519252
 6  3.07326839003900 -0.62194294259426 -1.62808670757076
 6 -1.35076364856486 -0.37147100410041  3.80203571187119
 6 -5.85179040314031 -2.00695717601760  1.29199020462046
 6  2.52363202010201  0.49401676987699 -2.36317092709271
 6  1.87594702710271  1.08293398539854  2.81461810341034
 6  1.31445481198120  0.85290193879388 -1.75779188518852
 6  4.28181353045304 -1.44290371947195 -2.08622825292529
 6 -5.92924726082608 -2.54991708210821 -1.93733718191819
 6  5.44333988498850 -1.10570231543154 -1.26412982988299
 6  3.27711780718072  1.08873727632763 -3.62010852005201
 6  0.45075749984998  1.91487663456346 -1.96173791889189
 6  3.02167080738074  1.84391397689769  3.57561290649065
 6 -0.65708954055406  2.18830346254625 -1.14247953585359
 6 -6.86952087858786 -3.40253401750175 -1.73014157285729
 6  6.62974254385439 -2.07383563866387 -1.48402909290929
 6 -1.44725338013801  3.55475770897090 -1.19864793949395
 6 -2.33667775717572  3.40274075307531 -0.10766867306731
 6 -2.04097637003700  2.06201713521352  0.50813974597460
 6 -1.24255423382338  4.52588884908491 -2.21516328432843
 6 -3.39346998349835  4.31354183708371  0.30435467516752
 6 -1.80939483068307  5.77221263946395 -2.31865559835984
 1 -3.34036252945295 -0.54452994289429  1.24791899649965
 1 -2.76720834723472 -3.43936906190619  1.00044039313931
 1 -2.96259607940794 -2.33042648704871  2.47904729342934
 1 -0.34799010381038 -2.99639840494049  0.03870088008801
 1 -2.20683907360736 -0.14184048754875 -0.64164826722672
 1  1.58881684308431 -0.26835828962896  4.24615671477148
 1  2.70253758665867 -0.85199709100910  3.14517944734473
 1  2.90186900080008 -2.64531611451145  0.40178323152315
 1 -2.45806843614361 -1.04290356435644  3.82988004980498
 1 -0.86146591459146 -0.21282548614862  4.93687004350435
 1 -1.71036034983498  0.76600904760476  3.29415818111811
 1 -5.69438022522252 -1.13165129632963  2.01053534653465
 1 -5.95406416711671 -2.87375147974797  1.68136098239824
 1 -6.79245662246225 -1.67112275567557  0.77782414411441
 1  2.21241738113811  1.23875381728173  1.75774338563856
 1  0.97495744724472  1.88187043134313  2.96167414111411
 1  0.46845510311031 -0.00910654085409 -0.04839687198720
 1  4.51020673987399 -1.34517757675768 -3.22992859475948
 1  3.76248707850785 -2.37632941214121 -1.76232334033403
 1 -5.87456959535954 -2.36039696429643 -2.90540400420042
 1  5.18411633293329 -1.08332881278128 -0.11627840414041
 1  5.79284072537254 -0.10056705280528 -1.54909939243924
 1  4.06682659415942  0.42954944704470 -4.07609583908391
 1  3.67439319091909  2.12334341304130 -3.52682501790179
 1  2.26989277857786  1.30801529942994 -4.28794194619462
 1  0.81315522552255  2.57973947044705 -2.76295718771877
 1 -6.88141722782278 -3.95553773767377 -0.76252527372737
 1 -7.61115938083808 -3.85015634613461 -2.43798685218522
 1  3.56716044354435  3.61058041904190  4.04990824502450
 1 -0.58743262206221  4.08673995349535 -3.05196309170917
 1 -4.09918850845084  4.73008959075908 -0.64729588108811
 1 -4.10207895759576  3.78522331593159  1.07933874527453
 1 -3.11857017321732  5.30993128422842  0.75198096799680
 1  8.55118081158116 -2.08002115631563 -1.04210484548455
 1 -1.72789571417142  6.51271172827283 -3.15304015621562
 1 -2.47193954685469  6.25565694149415 -1.64184009150915

