%nproc=4
%Mem=4GB
# td=(NStates=1) B3LYP/SVP 

TD

0 1
 8 -5.26090232023202 -0.10123468386839 -3.26352614231423
 8  3.13373337883788  2.76611386608661  2.87505358375838
 8  3.25700404900490  0.47170256925693  2.80218210331033
 8  1.74312195169517 -7.16087235733573  1.56884539083908
 8  0.65395028302830 -7.04623104670467 -0.36601458435844
 8  1.72237928602860  4.12585570837084  0.09529903730373
 7 -2.33738334943494 -0.96246467666767  0.61690870747075
 7 -4.38506338773877  0.65397306380638 -1.26127448224822
 7  1.65833622522252 -0.67433900690069 -0.39146762436244
 7  2.45614115601560  1.93502924842484 -0.47824457115712
 6 -4.69005539673967  1.24723622062206 -0.00620482068207
 6 -4.40531792459246  0.22741290659066  1.24160151785178
 6 -2.97958305390539 -0.02256199949995  1.32128414141414
 6 -1.95099419611961  0.57336229342934  2.19770293989399
 6 -0.79672628292829 -0.10509594509451  1.89053973157316
 6 -1.02187637543754 -1.11096415531553  0.86088790819082
 6 -6.13187554365437  1.50070786008601 -0.19001421682168
 6  0.48023663026303  0.15399607610761  2.62990201030103
 6 -6.60551106560656  0.95753500190019 -1.38298402710271
 6 -0.21899815591559 -2.17137587448745  0.25842792429243
 6  1.03683057925793 -1.87880742734273 -0.27664924712471
 6 -5.32923352365237  0.41293950865087 -2.08751606310631
 6  1.95103918911891 -2.89417995639564 -0.84010101940194
 6 -2.13706940784078  1.63174893179318  3.13597798799880
 6 -6.99948744194419  2.08504663386339  0.86124010991099
 6  3.08599493319332 -2.22916286748675 -1.22445369046905
 6  1.14306033333333  1.45147364076408  2.60406404230423
 6  2.93503157845785 -0.78560718631863 -1.01016500470047
 6  1.66343011321132 -4.43646961136114 -0.92763448034803
 6 -7.81284719071907  0.86368800640064 -2.06100448824882
 6  1.91967953355336 -5.22963389798980  0.45419141464146
 6  4.35437104610461 -2.66290475927593 -2.00377960926093
 6  3.79216008660866  0.13081248474848 -1.36909159155916
 6  2.60932155335534  1.50280786898690  2.80789668956896
 6  3.54285866366637  1.59565497699770 -1.15813238053805
 6 -9.07081206460646  1.11360352065207 -1.48395321062106
 6  1.39842490719072 -6.58009465966597  0.48577723672367
 6  4.49169800440044  2.67555431033103 -1.52708979207921
 6  3.85870513891389  3.76016654035404 -1.00141143544354
 6  2.61793336413641  3.39916776787679 -0.41053981668167
 6  5.71915552085209  2.47794263486349 -2.18650060516052
 6  4.31962758255826  5.28815369116912 -1.02298431183118
 6  6.53029308690869  3.56919260406041 -2.51435591249125
 1 -4.26032051815181  2.18920000010001  0.32694573487349
 1 -5.12908756565657 -0.82264374047405  1.02214695889589
 1 -4.73276011591159  0.77851185088509  2.11672858255826
 1 -2.51126016591659 -1.70851824732473 -0.24030095189519
 1 -3.44643564086409  0.47438935603560 -1.55495304620462
 1  0.32504693939394 -0.40728041604160  3.72595214331433
 1  1.20595460486049 -0.59505417281728  2.16645177797780
 1 -0.65065372627263 -3.09163662866287  0.03271827412741
 1 -3.16367651295130  1.63729499359936  3.42685267496750
 1 -1.36138735383538  1.66991635553555  3.90702909080908
 1 -1.84976135723572  2.72477629742974  2.63608102990299
 1 -6.00513396429643  2.66354515801580  1.45000723372337
 1 -7.71015078207821  1.33330313951395  1.53410042074207
 1 -7.68916485368537  2.88583466656666  0.47963644384438
 1  1.04331704010401  2.19762179877988  1.68965703300330
 1  0.64164727722772  2.04936175817582  3.41386721092109
 1  1.42630695709571  0.31578222322232 -0.43729909520952
 1  2.27073486568657 -4.76096992739274 -1.88584319401940
 1  0.61185298279828 -4.55458530603060 -1.35737422082208
 1 -7.92401346314632  0.34826505710571 -3.00871680988099
 1  1.31212340124012 -4.56712789248925  1.16710428702870
 1  2.99680595069507 -5.05245244974497  0.60659847474747
 1  4.39482454475448 -3.83232068426843 -2.09246270737074
 1  5.42074317271727 -2.35524437463746 -1.45811942954295
 1  4.23084451755176 -2.10737296989699 -3.09134820842084
 1  4.84272389188919 -0.15743783828383 -1.79050522622262
 1 -9.12079568006801  1.22643009850985 -0.27625031483148
 1 -9.92628076167617  1.12838425412541 -2.18087418741874
 1  4.06510119661966  2.50711409510951  2.97509227492749
 1  6.07942141034103  1.44687683688369 -2.26771558655866
 1  5.33546424622462  5.41988475267527 -0.63941256115612
 1  4.26387841034103  5.55720248594860 -2.00139268416842
 1  3.52554022362236  5.86808641504150 -0.41501324292429
 1  1.47803511161116 -8.07004816191619  1.60982703760376
 1  7.45124756915692  3.29787532743274 -2.86252352565257
 1  6.34420630813081  4.66367187938794 -2.27062941544154

