%nproc=4
%Mem=4GB
# td=(NStates=1) B3LYP/SVP 

TD

0 1
 8 -5.28129435943594  0.01480692029203 -3.20896068576858
 8  2.90963096859686  2.94590184488449  3.10818689708971
 8  3.33787213581358  0.79641504050405  3.09170105520552
 8  1.17396503600360 -6.99333560366037  1.58498700500050
 8  0.77673256125613 -6.98459488308831 -0.75925390829083
 8  1.78299534763476  3.99720284308431  0.08144765216522
 7 -2.34721433253325 -1.01934036423642  0.71099811641164
 7 -4.32500738213821  0.62574024052405 -1.17173552835284
 7  1.86044643624362 -0.64024559755976 -0.41875035263526
 7  2.58128367026703  1.91575732123212 -0.57349409610961
 6 -4.77856424762476  1.20069156615662  0.06945274507451
 6 -4.39952734553455  0.18902906820682  1.35035239293929
 6 -2.91682677827783 -0.08310805410541  1.42837485048505
 6 -1.89512860956096  0.62135709290929  2.17251042064206
 6 -0.65949255955596  0.05463002750275  1.74080475807581
 6 -1.01169535733573 -1.01492455135514  0.81465328472847
 6 -6.31484384048405  1.25202299159916 -0.07125234063406
 6  0.60015862246225  0.20379105560556  2.50405942604260
 6 -6.66512702720272  0.78591784018402 -1.29525525422542
 6 -0.18410466656666 -1.85059379627963  0.02506458795880
 6  1.13356025222522 -1.74153369997000 -0.41772335453545
 6 -5.38444904520452  0.40505872057206 -2.07539485098510
 6  1.90747483268327 -2.91384192259226 -0.93459046834683
 6 -2.23833953485349  1.76796255315532  3.10312470267027
 6 -7.22571006420642  1.96990511971197  0.90607459335934
 6  3.13566990069007 -2.33106305750575 -1.43753499859986
 6  1.16360238753875  1.69296779017902  2.49549318521852
 6  3.13367144244424 -0.95430405600560 -1.03955794399440
 6  1.43061683188319 -4.27729369376938 -0.99786150305030
 6 -7.97734364036404  0.66037767536754 -1.99911829962996
 6  1.62300986658666 -4.98923985858586  0.41305730123012
 6  4.24786039503950 -3.03387185598560 -2.04550378167817
 6  4.00856172677268  0.08262766626663 -1.27903258565857
 6  2.54064468566857  1.71523911211121  2.89454535443544
 6  3.74658903670367  1.47208261976198 -1.07198376567657
 6 -9.12754773817382  0.38995115541554 -1.37880269556956
 6  1.16139120382038 -6.45577222742274  0.32244090309031
 6  4.68743757835784  2.66023277817782 -1.36412349544954
 6  3.97821709010901  3.81372189588959 -1.08445974027403
 6  2.65595716651665  3.42946079717972 -0.53853261596160
 6  5.97512111741174  2.39172401300130 -2.18932088718872
 6  4.44534015381538  5.20943581938194 -1.08504051745175
 6  6.82113217081708  3.35815149995000 -2.35903037993799
 1 -4.46565105120512  2.17971905200520  0.25472851315132
 1 -5.04834949184918 -0.66043751985199  1.06122086628663
 1 -4.74914175407541  0.73511751145115  2.38198510821082
 1 -2.84517355725573 -1.59309670517052  0.08033111131113
 1 -3.35443644094409  0.85479739683968 -1.54601215211521
 1  0.27308174287429  0.06321663366337  3.62345189328933
 1  1.47105111451145 -0.42149681708171  2.25127025982598
 1 -0.87402606350635 -2.78054551955196 -0.21145614331433
 1 -3.44833497879788  1.91492275637564  3.24476446614661
 1 -1.73820503560356  1.52292165606561  4.09082747064707
 1 -1.86351273237324  2.69681350115011  2.59022644444444
 1 -6.71998544944494  2.80312911641164  1.36097833083308
 1 -7.51595136213621  1.08172798199820  1.69136614731473
 1 -8.10062599979998  2.53996007910791  0.40604908510851
 1  0.95051776017602  2.30311234783478  1.65176324362436
 1  0.70941405390539  2.23514033603360  3.31863768796880
 1  1.61257558395840  0.41504214921492 -0.36330169546955
 1  1.86905469766977 -4.80589441984198 -1.76502111181118
 1  0.39944174167417 -4.38498834633463 -1.19976846024602
 1 -7.82065312711271  0.56342657325733 -3.13106904510451
 1  0.97147933683368 -4.49219039873987  1.03774135073507
 1  2.74787105720572 -4.78334553905391  0.94281209610961
 1  4.08752381468147 -3.96574402660266 -2.42735619671967
 1  5.16164726312631 -3.02583143334333 -1.36097971557156
 1  4.58351978507851 -2.37909014161416 -2.85487456105610
 1  4.91574119361936 -0.06924901940194 -2.04420059575958
 1 -9.08026162666267  0.52347980348035 -0.16140883068307
 1 -10.13054118771877 -0.01319990429043 -1.73197929792979
 1  3.83001768826883  3.22964634833483  3.15297006270627
 1  6.07724119231923  1.55298744794479 -2.73820263526353
 1  5.41149184898490  5.34605736993699 -0.57541616151615
 1  4.56607863036304  5.68147491319132 -2.12215476037604
 1  3.90338800840084  5.92157176357636 -0.40770251185118
 1  0.99461676977698 -8.01988314541454  1.39316537143714
 1  7.73785623002300  2.98623416331633 -2.93329060236024
 1  6.89831171867187  4.40072558475848 -1.94440679317932

