%nproc=4
%Mem=3GB
# td=(NStates=1) B3LYP/SVP 

TD

0 1
 8 -3.20484739493949 -1.40421547704770 -2.83507416171617
 8  2.87980843564356  3.08926058455846  3.06875114601460
 8  4.05396970517052  1.31040816911691  4.00899534313431
 8  7.85186378927893 -1.24898101230123 -0.92347310911091
 8  6.73913807020702 -2.85760655555556 -2.05733218131813
 8 -2.72533343984398  1.71472696179618  1.36007606810681
 7 -0.31008675487549 -2.44778109240924  0.86566140694069
 7 -2.72975501350135 -1.32880801580158 -0.59605174977498
 7  1.10122167156716  0.09357026672667 -0.61338627582758
 7 -1.04241338683868  1.51721712961296 -0.21411230913091
 6 -3.45072022172217 -1.37773533593359  0.59422639653965
 6 -2.75495412151215 -2.46518066426643  1.68160346714671
 6 -1.28009365106511 -2.19945775977598  1.81659964856486
 6 -0.61742154445445 -1.36219741144114  2.83684170467047
 6  0.68303941654165 -1.17969297029703  2.48000919551955
 6  0.91374406060606 -1.95772220692069  1.29173397739774
 6 -4.76839178577858 -1.83812946164616  0.29175606290629
 6  1.81037562896290 -0.45759608920892  3.09450160466047
 6 -4.86317267866787 -2.04498320672067 -1.09255959645965
 6  2.03234119051905 -1.90031822402240  0.38044032273227
 6  2.09024504640464 -0.86643855605561 -0.53652755425543
 6 -3.56014068396840 -1.57392935823582 -1.68253553695370
 6  3.06856791999200 -0.72866361466147 -1.66092999189919
 6 -1.28066663886389 -0.69133299029903  3.93563907220722
 6 -5.87965318941894 -1.98118459875988  1.26640764636464
 6  2.54473413031303  0.36851421962196 -2.39139374937494
 6  1.79267870027003  1.08631432343234  2.87035367696770
 6  1.38647201370137  0.98610525912591 -1.72917902390239
 6  4.30416576567657 -1.60074950405041 -1.79117874797480
 6 -5.95087942404240 -2.47123921432143 -1.95520896909691
 6  5.46963251425143 -1.00266201140114 -1.08466188308831
 6  3.24191428682868  1.12040044264426 -3.56722323152315
 6  0.58772119621962  2.00904605150515 -2.04011575667567
 6  3.00712935323532  1.76277586308631  3.36761210641064
 6 -0.51850568216822  2.33755838803880 -1.22387767566757
 6 -6.97710163666367 -3.17638140224022 -1.55710426912691
 6  6.68899846944694 -1.94366262136214 -1.35592628262826
 6 -1.38290694549455  3.53736596979698 -1.34972304700470
 6 -2.28523261266127  3.38592907190719 -0.31506941314131
 6 -2.03002527492749  2.18181911541154  0.37680661266127
 6 -1.23826380478048  4.59799605980598 -2.28366013401340
 6 -3.36315695219522  4.31471195409541  0.15002924262426
 6 -1.73237712891289  5.86014143234323 -2.24752848564856
 1 -3.53154164736474 -0.33361885178518  1.15754995959596
 1 -2.75406703310331 -3.67178230323032  1.59995034413441
 1 -3.08179799959996 -2.37019046344635  2.68838822752275
 1 -0.44580988578858 -3.16699546464646  0.15320233023302
 1 -2.05811420112011 -0.43334963846385 -0.52540664306431
 1  1.84723268466847 -0.78115956975698  4.20679277837784
 1  2.84537187008701 -0.88901079237924  2.66864179357936
 1  2.93010182408241 -2.46877846074607  0.48012106530653
 1 -2.24980761006101 -1.25072434643464  4.47222428422842
 1 -0.42711247924792 -0.28841304490449  4.73737009350935
 1 -1.81323063686369  0.15862830953095  3.42272103740374
 1 -5.67742853005300 -1.34450258145815  2.14676896989699
 1 -5.77102586328633 -3.13219732433243  1.53437628392839
 1 -6.84671204800480 -1.66832247564756  0.81795815751575
 1  1.81331747114712  1.25052499439944  1.93696130743074
 1  0.91796174767477  1.68719096339634  2.96692466616662
 1  0.31216947454745  0.48741311111111  0.07822579027903
 1  4.45773149234924 -1.96631969096910 -3.12286788868887
 1  3.97104793459346 -2.72778455765577 -1.59031613961396
 1 -5.73243538193819 -2.12894381898190 -2.94152761656166
 1  5.19002692399240 -1.02107258715872 -0.01817859415942
 1  5.85068650995100  0.03758676257626 -1.26191067356736
 1  3.96578649014902  0.37739423152315 -3.97736596609661
 1  3.89013476507651  1.94536561526153 -3.20058239363936
 1  2.53819960926093  1.51775627352735 -4.31711486348635
 1  0.87926183618362  2.75661715821582 -2.81174206620662
 1 -7.52542162826283 -3.69708189208921 -0.60415943714371
 1 -7.54606287118712 -3.66335766626663 -2.42599565306531
 1  3.65489921742174  3.46833619461946  3.68515176937694
 1 -0.51482536133613  4.30542182168217 -3.06626452185219
 1 -4.07794638423842  4.65673225502550 -0.76449760126013
 1 -4.21120987068707  3.90027482108211  0.98081889328933
 1 -2.96847516371637  5.31000129122912  0.65472124202420
 1  8.49339503300330 -1.66413956815682 -1.32402303730373
 1 -1.49829275387539  6.50155061216122 -3.12538739093909
 1 -2.41198355125513  6.39258063386339 -1.45745165266527

