%nproc=4
%Mem=3GB
# td=(NStates=1) B3LYP/SVP 

TD

0 1
 8 -3.05343225342534 -1.46653170867087 -2.78704935923592
 8  2.86341679647965  3.17609926842684  3.53234750565057
 8  3.91234554275428  1.11505863416342  4.16175061866187
 8  7.84379298219822 -1.05961207540754 -1.20737149894989
 8  6.49365352175217 -3.26905770067007 -1.62177862596260
 8 -2.68905981248125  1.70814630373037  1.39433949444944
 7 -0.33529927612761 -2.44943125742574  1.04271911271127
 7 -2.58579061706171 -1.13948908390839 -0.62110425502550
 7  1.05947749714971 -0.04541363166317 -0.79521445864586
 7 -1.09336848234823  1.53029843774377 -0.26614751265127
 6 -3.27807295699570 -1.28356591899190  0.65079205310531
 6 -2.73038166426643 -2.38304245044504  1.61393670047005
 6 -1.21831747344734 -2.02851066506651  1.83992198079808
 6 -0.57767757005701 -1.22987417911791  2.80800882138214
 6  0.72548366096610 -1.17927292829283  2.45354654925493
 6  0.85993868006801 -1.82774920962096  1.27726253025303
 6 -4.73715866246625 -1.80637628632863  0.22188907620762
 6  1.93403799519952 -0.40284061366137  3.18397055155516
 6 -4.67727408880888 -2.11300000840084 -1.05294563506351
 6  1.99484744114411 -1.96472466466647  0.27310958965897
 6  2.03450947284728 -1.03725563776378 -0.65682958445845
 6 -3.39271394129413 -1.62016398169817 -1.65319260266027
 6  2.91143220642064 -0.81251199949995 -1.85474937383738
 6 -1.13937250945095 -0.49099295629563  3.97578308660866
 6 -5.75309053315332 -2.03500998129813  1.29181018661866
 6  2.53458311521152  0.38920628882888 -2.44692930293029
 6  1.74800423282328  1.15978167016702  3.10147678927893
 6  1.31308467496750  0.84731137973797 -1.76209231523152
 6  4.17563291239124 -1.53240266936694 -2.07231686178618
 6 -5.72939727582758 -2.53937602800280 -2.01957540574057
 6  5.42764831583158 -0.96264801000100 -1.33225664256426
 6  3.08644874027403  1.07642604520452 -3.58768527772777
 6  0.46718914301430  1.95943109000900 -2.02679442454245
 6  2.92420106040604  1.72407199269927  3.54863020822082
 6 -0.56067989958996  2.26784141634163 -1.25773106100610
 6 -6.81668559505951 -3.24442820692069 -1.72632119081908
 6  6.60599016861686 -1.94113236833683 -1.48579926992699
 6 -1.40202885768577  3.55064729792979 -1.31539961466147
 6 -2.35484957435744  3.50882136113611 -0.34222212841284
 6 -2.16556882928293  2.14182511601160  0.40307923992399
 6 -1.08148812721272  4.66149240944094 -2.19270103810381
 6 -3.46722735923592  4.35914639753975  0.11182542224222
 6 -1.74491838303830  5.88316373457346 -2.28290202300230
 1 -3.38726721992199 -0.42578806870687  1.09372357695770
 1 -2.53066469286929 -3.61825695069507  1.30586093519352
 1 -3.16567638743874 -2.43965741014101  2.51628101680168
 1 -0.71175648044805 -2.67935670077008  0.15549255925593
 1 -1.96783517321732 -0.36905320882088 -0.65461956435644
 1  1.95495345674567 -0.60919237303730  4.31174327342734
 1  2.95161249414942 -0.78894078537854  2.48205313471347
 1  2.77887670157016 -2.64807639053905  0.61358441164116
 1 -1.85657828712871 -1.02127140114011  4.60373743554355
 1 -0.44967473547355 -0.28890309390939  4.67700405690569
 1 -1.68078739253925  0.50019246594659  3.71640040534053
 1 -5.67200798799880 -1.27785591679168  2.28405269826983
 1 -5.84170293099310 -2.90107421202120  1.68628147444744
 1 -6.70276765356536 -1.87442308570857  0.88911527322732
 1  1.36635277467747  1.65683562546255  1.84697230853085
 1  0.75730568206821  1.66422866716672  3.69847782148215
 1  0.18058631623162  0.09244361416142 -0.25748778107811
 1  4.20204592379238 -1.61247430643064 -3.19268487038704
 1  4.10435126492649 -2.53716549574958 -1.70611771977198
 1 -5.49800193859386 -2.28206913151315 -3.00619408320832
 1  5.36104402570257 -0.71806228612861 -0.19276605290529
 1  5.55117655895590  0.00906391029103 -1.73836831933193
 1  4.00680059155916  0.41428792089209 -4.11624985448545
 1  3.46448219981998  2.22158323702370 -3.62835517091709
 1  2.36009179847985  1.24843934183418 -4.37541069306931
 1  0.85777968796880  2.56492798929893 -2.75586647864786
 1 -7.37338642474247 -3.60176236013601 -0.70395941714171
 1 -7.51740000490049 -3.43402473297330 -2.65431848534853
 1  3.78432215971597  3.50193955495550  3.64261751595160
 1 -0.16803068186819  4.54560584008401 -2.88837673307331
 1 -4.33177176677668  4.28773535533553 -0.56642779427943
 1 -3.72779152885289  3.82359715331533  0.97538835023502
 1 -3.08629694589459  5.37464775587559  0.23472924282428
 1  8.55312100560056 -1.73675682988299 -1.33008364336434
 1 -1.33782670727073  6.51917237433743 -3.00140499269927
 1 -2.61549390229023  6.10974235003500 -1.59253516101610

