%nproc=4
%Mem=3GB
# td=(NStates=1) B3LYP/SVP 

TD

0 1
 8 -3.27973488368837 -1.34507956345635 -2.84776543084308
 8  3.09321977677768  3.15951761026103  3.20848511941194
 8  3.76938124632463  1.19430655895590  4.30569501310131
 8  7.70660926382638 -1.63361947614761 -0.59746050785078
 8  6.73660781718172 -2.84225502040204 -2.28287473557356
 8 -2.70261116761676  1.55706119521952  1.47881794229423
 7 -0.23816956315632 -2.34468078237824  1.00354519531953
 7 -2.68574061206121 -1.23465860086009 -0.62189433403340
 7  1.10615216461646  0.11417232693269 -0.79073401060106
 7 -0.94388353385339  1.47573298119812 -0.17969886778678
 6 -3.37750289999000 -1.27204476687669  0.66827380128013
 6 -2.57619624572457 -2.35298944514451  1.59910521732173
 6 -1.21783742544254 -1.98984679867987  1.86416440504050
 6 -0.60193999629963 -1.13533472517252  2.86890491099110
 6  0.73201431403140 -1.11075607660766  2.47494868946895
 6  0.98479116531653 -1.78771520622062  1.25618042204220
 6 -4.70555550215022 -1.88271392009201  0.26841372867287
 6  1.89189378077808 -0.42315264486449  3.24102625712571
 6 -4.78148450985099 -2.01479018741874 -1.09655999649965
 6  2.04253220962096 -1.89443763596360  0.29246152485249
 6  2.04583060496050 -0.89189110131013 -0.76969087058706
 6 -3.49728439833983 -1.52044400970097 -1.70799808320832
 6  2.93796485968597 -0.64996574487449 -1.72175607450745
 6 -1.33206177837784 -0.42128598559856  3.92567807610761
 6 -5.76864208830883 -2.09930641094109  1.24995600120012
 6  2.55702535943594  0.49222659085909 -2.41873648364836
 6  1.90025945834583  1.14483017501750  2.87539418101810
 6  1.34037740424042  0.91933858245825 -1.84662076807681
 6  4.16784213331333 -1.50775020412041 -2.07119674977498
 6 -5.74804914101410 -2.53799588998900 -1.97610105830583
 6  5.37764331533153 -1.18610035523552 -1.17374079097910
 6  3.15510560596060  0.92684108670867 -3.65537204640464
 6  0.57851027512751  2.10901604850485 -1.96405815091509
 6  2.96390503080308  1.76988657415742  3.59204454965497
 6 -0.55023885548555  2.26118075027503 -1.24644993289329
 6 -6.85049897639764 -3.25624938903890 -1.73364192289229
 6  6.65368493809381 -1.97806606170617 -1.37945863586359
 6 -1.47308596339634  3.46925915911591 -1.22208028272827
 6 -2.27396148554856  3.35186566556656 -0.20080798699870
 6 -2.08821109350935  2.02326325982598  0.43659259125913
 6 -1.32006198459846  4.58396465666567 -2.28937070507051
 6 -3.44282491899190  4.32429291219122  0.22012625232523
 6 -1.89643353455346  5.72627804600460 -2.42721645444544
 1 -3.40677917111711 -0.36136162606261  1.20286449104911
 1 -2.72450407680768 -3.29558468346835  1.23094344344434
 1 -3.05585540534053 -2.18548199259926  2.58002739143914
 1 -0.36392169696970 -2.72043080818082  0.12974998499850
 1 -1.98373676337634 -0.54197050055005 -0.65114921732173
 1  1.95189315071507 -0.67835928972897  4.24867696679668
 1  2.89812714561456 -0.87037892919292  2.89156408580858
 1  2.97923673757376 -2.45627721062106  0.35275832903290
 1 -1.86404903420342 -1.11998127212721  4.59203626542654
 1 -0.67575734373437  0.17211300770077  4.61384774127413
 1 -1.90320963476348  0.36020846754675  3.33358212351235
 1 -5.56952773997400 -1.54450258145815  2.31349564256426
 1 -5.89470823152315 -3.19066317091709  1.47205005130513
 1 -6.87639501630163 -1.72187783118312  1.03143950565057
 1  1.90879701910191  1.30673061496150  1.82390000130013
 1  0.89640959245925  1.49952219651965  2.96649462316232
 1  0.27826608420842  0.43529789958996 -0.23510554285429
 1  4.36270198939894 -1.26800985998600 -3.18010361226123
 1  3.85568639843984 -2.53831561076108 -1.92447955595560
 1 -5.51905404380438 -2.22744366896690 -3.08121158495850
 1  4.92942086338634 -1.34280476037604 -0.26590336663666
 1  5.14794623592359 -0.11256825292529 -1.24835931843184
 1  3.86846675817582  0.09152564466447 -3.93204143364336
 1  3.63134888648865  1.89357043574357 -3.49004133953395
 1  2.49252504180418  1.12015651355135 -4.40300345234523
 1  0.83772768276828  2.60222171867187 -2.74245513751375
 1 -7.08326741284128 -3.74504668856886 -0.87720674187419
 1 -7.45330359525953 -3.62846417691769 -2.55551860536054
 1  3.57618134563456  3.57940730173017  3.86481973617362
 1 -0.67167104590459  4.29785106460646 -3.13794168956896
 1 -4.07867645724572  4.87247382918292 -0.66605775727573
 1 -3.92294104380438  3.76676146974697  1.20268107950795
 1 -3.22126044224422  5.39687997909791  0.76244201410141
 1  8.62138783228323 -2.04486764096410 -0.89441007600760
 1 -1.72921584618462  6.31120157725773 -3.46855170737074
 1 -2.61693404630463  6.10237161296130 -1.70629653715372

