%nproc=4
%Mem=4GB
# td=(NStates=1) B3LYP/SVP 

TD

0 1
 8 -5.22850908090809  0.33299873947395 -3.29466925662566
 8  2.91440144564456  3.11539879457946  3.28786486488649
 8  3.34930327892789  0.90352575157516  2.98394027912791
 8  1.93586122562256 -7.18232450255025  1.25461396769677
 8  0.22625751375138 -6.97001342494249 -0.30955893879388
 8  1.63719076717672  3.84249737253725 -0.02133262586259
 7 -2.36672628372837 -0.96091452165217  0.62650966756676
 7 -4.36991187258726  0.75890355685569 -1.17802615741574
 7  1.88516890849085 -0.62342391539154 -0.36617509510951
 7  2.60301584348435  1.82293803930393 -0.57307405410541
 6 -4.84103049424942  1.23748524552455  0.10863666346635
 6 -4.46144353715372  0.36403656895690  1.22771012871287
 6 -2.96699179477948  0.03252350905090  1.35428744174417
 6 -1.96098519521952  0.59076403360336  2.14880805040504
 6 -0.66173278357836  0.04607917241724  1.79758043564356
 6 -1.05598978677868 -0.96110916981698  0.76599841924192
 6 -6.37961031713171  1.38868665796580 -0.15872108750875
 6  0.67805641224122  0.27278795529553  2.45256427652765
 6 -6.68047856235624  0.81758100650065 -1.37945367406741
 6 -0.22103835993599 -1.83004174107411  0.06859894139414
 6  1.18337523372337 -1.78046759335934 -0.26709829202920
 6 -5.36549715001500  0.57939615431543 -2.17064437593759
 6  1.78524260946095 -2.91356189458946 -0.99118612791279
 6 -2.15092079297930  1.67193295019502  3.18906329652965
 6 -7.10974846804680  1.93770189938994  1.03863784968497
 6  3.07693402710271 -2.39355930713071 -1.30748199329933
 6  1.14098012531253  1.74822331573157  2.51244488038804
 6  3.07060513581358 -0.96891551715172 -0.98097208540854
 6  1.46021979217922 -4.30210617501750 -1.05550726762676
 6 -7.98797470347035  0.56400803840384 -1.99237762556256
 6  1.88569613521352 -5.14620555515552  0.26010200570057
 6  4.30503611261126 -3.06250471927193 -1.97686691799180
 6  4.05070594119412 -0.00848144464446 -1.30277495989599
 6  2.57224784598460  1.85976356455646  3.01144704460446
 6  3.79352373017302  1.42946835833583 -1.13282985028503
 6 -9.16091107450745  0.36229839013901 -1.39562437773777
 6  1.21104616931693 -6.47784443464346  0.27814647364736
 6  4.63065189978998  2.56072282718272 -1.41066814991499
 6  3.93642291069107  3.74086461016102 -1.03813510781078
 6  2.64895646644664  3.24476232733273 -0.47301606430643
 6  5.93689729502950  2.36866170677068 -2.04775673077308
 6  4.23795941574157  5.04989986578658 -1.17585959935994
 6  6.84430448804880  3.41182686748675 -2.27987246414641
 1 -4.50462494859486  2.26964804490449  0.28104114441444
 1 -5.01110576747675 -0.76974845094509  0.92434717891789
 1 -4.79750659055906  0.60049404910491  2.40256716641664
 1 -3.05370441034103 -1.49014641014101 -0.00241716351635
 1 -3.30714171147115  0.75291720882088 -1.27828537943794
 1  0.52497693239324 -0.13692338033803  3.39544909300930
 1  1.32848685808581 -0.50447511491149  1.93755888868887
 1 -0.75672433333333 -2.84156162116212 -0.28197319501950
 1 -3.16499664496450  2.05916718081808  3.42367235693569
 1 -1.65553676877688  1.50125948984898  4.11977036493649
 1 -1.75152153325332  2.61354517431743  2.82911033283328
 1 -6.56360981188119  2.93716251975198  1.40292252525253
 1 -6.84611437843784  1.12514232343234  1.90847785848585
 1 -8.28256419361936  1.87262334543454  0.80731921212121
 1  1.22450515891589  2.26210824742474  1.51510957825783
 1  0.55978909140914  2.16773359535954  3.32897872207221
 1  1.73547787418742  0.31495214021402 -0.38685405070507
 1  2.03968176037604 -4.73428725912591 -2.08478308800880
 1  0.36032783028303 -4.42588243574357 -1.33850233363336
 1 -7.84510557235724  0.32479270987099 -2.86165210341034
 1  1.58965115401540 -4.65904708440844  1.19462703930393
 1  3.02309857995800 -5.28200540504050  0.22304011891189
 1  4.12248731103110 -4.07169462166217 -2.19841330243024
 1  5.11297239563956 -3.13389223942394 -1.26309992759276
 1  4.30309174227423 -2.55015724832483 -2.84709378297830
 1  4.91257087658766 -0.34761685618562 -1.67490366606661
 1 -9.30890449094910  0.25518297379738 -0.22732542234223
 1 -9.99121725532553  0.10561197689769 -2.00252635263526
 1  3.86993167966797  3.07668105180518  3.27866263196320
 1  6.05501897009701  1.35318746794679 -2.29468828382838
 1  5.30723142294229  5.26130889508951 -0.97314593449345
 1  4.14641666416642  5.30396716241624 -2.33910645554555
 1  3.49140681028103  5.77343695009501 -0.66316805840584
 1  1.43398070617062 -8.15663682078208  1.23930998589859
 1  7.95341778617862  3.34240978087809 -2.74252152545254
 1  6.58797068456846  4.42976848904891 -1.96162851535154

