%nproc=4
%Mem=4GB
# td=(NStates=1) B3LYP/SVP 

TD

0 1
 8 -5.39568579857986  0.03240868046805 -3.26065585528553
 8  3.22565257075708  2.87999525422542  3.24131020942094
 8  3.34135248384838  0.67987338633863  3.25085697079708
 8  1.49600724022402 -7.34384065416542  1.34680318661866
 8  0.45346023402340 -6.93234965856586 -0.62126010891089
 8  1.69898694679468  3.94870799359936  0.06939644704470
 7 -2.31504111521152 -0.83596202640264  0.54952196879688
 7 -4.34985986738674  0.55205287178718 -1.25996435123512
 7  1.95130552215222 -0.72020359335934 -0.26426490409041
 7  2.49430497239724  1.87275302080208 -0.46055280198020
 6 -4.85329172037204  1.21576307330733 -0.07972217241724
 6 -4.33404079687969  0.36663682898290  1.18785614331433
 6 -2.83269836543654  0.18806906360636  1.28953096609661
 6 -1.88003710041004  0.80854581178118  2.01708487808781
 6 -0.64641125142514  0.09917448194819  1.77231790939094
 6 -0.87852204000400 -0.89686274517452  0.85115693509351
 6 -6.26529888598860  1.24804259355936 -0.16957217261726
 6  0.61334994159416  0.25247592409241  2.57671669176918
 6 -6.70168068256826  0.73254250265026 -1.35249097779778
 6 -0.13367962406241 -1.95655439233923  0.23863594509451
 6  1.14275117131713 -1.81081062766277 -0.30405198739874
 6 -5.33233383368337  0.47034524922492 -2.16062337383738
 6  1.94698878407841 -2.87224776317632 -0.79159616891689
 6 -2.11359706060606  1.93494925182518  3.06224061426143
 6 -7.15147264046405  1.83905203440344  0.94899888578858
 6  3.14377071077108 -2.31887183838384 -1.31740298539854
 6  1.24911093839384  1.61785027842784  2.57168080398040
 6  3.00433850915091 -0.91304993059306 -0.95776976517652
 6  1.45124889508951 -4.32232819721972 -0.92650436733673
 6 -8.01512741874187  0.55006664426443 -2.04362275007501
 6  1.90607817341734 -5.07503843844384  0.41746774227423
 6  4.23932954195420 -2.96604507330733 -1.99716894819482
 6  3.93892476307631  0.12448185168517 -1.21605628802880
 6  2.73047366856686  1.62716030423042  3.03204910481048
 6  3.61427580538054  1.47253266476648 -1.05707227452745
 6 -9.28673365676568  0.67015917621762 -1.44142895819582
 6  1.22158722342234 -6.61284793499350  0.27539619861986
 6  4.53040187478748  2.63282003690369 -1.46757384048405
 6  3.90348961736174  3.72523304700470 -1.04607590189019
 6  2.60712228302830  3.32676052715271 -0.34669343204320
 6  5.74314792009201  2.53480832143214 -2.18421037613761
 6  4.25110072987299  5.19053392919292 -1.19985199859986
 6  6.68457851545154  3.51879756455646 -2.60353483038304
 1 -4.44177866396640  2.18239932003200  0.16981002130213
 1 -4.88059271617162 -0.63100457655766  1.10877562176218
 1 -4.81614845474548  1.00845484518452  2.09349625932593
 1 -2.80911995189519 -1.41977937343734 -0.09682660446045
 1 -3.40511150845084  0.50509242634263 -1.63525107600760
 1  0.36054048874887 -0.09921960996100  3.53210275837584
 1  1.30012402180218 -0.50664533193319  2.26619175197520
 1 -0.58974763566357 -2.86674413941394 -0.19616461416142
 1 -3.24575472077208  2.07431869596960  3.17182717241724
 1 -1.69939115421542  1.55096446034603  4.03399178707871
 1 -1.55843222432243  2.89399321912191  2.69491691349135
 1 -6.53600705160516  2.37615641914191  1.63378561156116
 1 -7.64150391739174  0.90829063826383  1.66109312001200
 1 -7.97287322452245  2.42363844694469  0.51554003420342
 1  1.38087079547955  2.19289132573257  1.57729579687969
 1  0.82543565606561  2.32517933993399  3.33237906210621
 1  1.53415774217422  0.24105475047505 -0.06597196249625
 1  1.92657044924493 -4.69464329472947 -1.89821443114311
 1  0.31087288478848 -4.30113996149615 -1.24386286968697
 1 -8.14682574437444 -0.11684145354535 -3.11843778197820
 1  1.46431862076208 -4.70178135783578  1.31509908650865
 1  3.09482575267527 -5.33782098659866  0.47157497239724
 1  4.01672673497350 -3.99508696089609 -2.33254671577158
 1  5.09093019141914 -3.11398024822482 -1.23801741934193
 1  4.55253668676868 -2.71302353495350 -2.91503057665767
 1  4.91635125462546  0.02024993049305 -1.80304648034803
 1 -9.42382598309831  1.46953440894089 -0.33609629942994
 1 -10.09714784838484  0.45389680538054 -2.10075617561756
 1  4.19085377187719  2.91167455115511  3.50899566526653
 1  6.08129159735974  1.56956910611061 -2.43505232023202
 1  5.23628432823282  5.42091485568557 -0.63621224112411
 1  4.24369639213921  5.62261902760276 -2.19968251315131
 1  3.48530620022002  5.91840144654465 -0.72501424302430
 1  0.80679798789879 -8.14587574467447  1.27390344524453
 1  7.44372681708171  3.15845138503850 -3.31670894419442
 1  6.55961784928493  4.56065157735774 -2.19387173967397

