%nproc=4
%Mem=3GB
# td=(NStates=1) B3LYP/SVP 

TD

0 1
 8 -3.30238714891489 -1.22658771427143 -2.80338099239924
 8  3.08863931873187  3.08896055455546  3.02323659455946
 8  3.46658096629663  1.31023815211521  4.52391683528353
 8  7.65307391029103 -1.39816593079308 -0.63067382918292
 8  6.74308846524652 -2.89576037093709 -2.02479892799280
 8 -2.51046195269527  1.61520700980098  1.44026408690869
 7 -0.26588233443344 -2.46186250055006  0.93687852865287
 7 -2.74738677667767 -1.14089922492249 -0.60000214481448
 7  1.06544809420942  0.06782769246925 -0.78208314551455
 7 -0.90302944844484  1.45350075797580 -0.21464236213621
 6 -3.42929807950795 -1.32147971037104  0.70309728362836
 6 -2.69019764586459 -2.24428857505751  1.55458076487649
 6 -1.17856349804980 -2.09590740474047  1.80611860046005
 6 -0.57441724402440 -1.11706289798980  2.87524554505451
 6  0.78966007860786 -1.13176817781778  2.46647784238424
 6  1.06547923412341 -1.87415385008501  1.26020082408241
 6 -4.77797274387439 -1.88485413411341  0.26200308760876
 6  1.84696928832883 -0.36934726432643  3.09267142164216
 6 -4.85691205260526 -1.98015672407241 -1.03515385588559
 6  2.12153010941094 -1.91976016821682  0.33623590229023
 6  2.05826184808481 -0.97055896809681 -0.71916581808181
 6 -3.61461613151315 -1.39554151945195 -1.65305258865887
 6  2.97359842304230 -0.78248899719972 -1.89815371427143
 6 -1.27033560576058 -0.59249310631063  3.97099260756076
 6 -5.83873909800980 -2.37331381168117  1.36076708230823
 6  2.54958461536154  0.38992636083608 -2.53959856985699
 6  1.89424885728573  1.05691138313831  2.67946458805881
 6  1.35725909240924  0.79746639523952 -1.79756586258626
 6  4.26101145024502 -1.45609503860386 -2.01600123022302
 6 -5.82897723382338 -2.54838692909291 -2.01803525172517
 6  5.39501505250525 -1.00754249944994 -1.12357577447745
 6  3.13648374377438  1.13566196879688 -3.74128063726373
 6  0.49232165626563  1.90882602950295 -2.17080882598260
 6  2.87870651095109  1.78748833433343  3.51638698389839
 6 -0.57543137473747  2.15960059225923 -1.21620690859086
 6 -6.95517944444444 -3.16044980908091 -1.65967452615262
 6  6.62809237883788 -1.83627188228823 -1.39125981598160
 6 -1.29665832063206  3.51355358855886 -1.13910198489849
 6 -2.23207729712971  3.36528700770077 -0.09192709890989
 6 -1.88926119851985  2.08706964046405  0.45332426442644
 6 -1.26723670207021  4.55968222842284 -2.27018878687869
 6 -3.11683231973197  4.38653913681368  0.26133037273727
 6 -1.89911380258026  5.73293871207121 -2.48284201700170
 1 -3.46259475267527 -0.37944343424342  1.22652685728573
 1 -2.83108473487349 -3.24459958495850  1.08539888898890
 1 -3.11859167896790 -2.10635407980798  2.59580896959696
 1 -0.25270057485749 -2.90522928802880  0.03323033303330
 1 -2.10331872157216 -0.30247655115512 -0.63865796819682
 1  1.53553151455145 -0.48433988778878  4.28315041414141
 1  2.74431176407641 -0.82587447874788  3.11609653905391
 1  3.11254006790679 -2.65271685458546  0.14806785998600
 1 -2.23115574487449 -1.26692596659666  4.33342040384038
 1 -0.48786855485549 -0.35397960156016  4.79915627212721
 1 -1.92014132793279  0.10858330503050  3.60739950525052
 1 -5.79497028422842 -1.85805393659366  2.17504179717972
 1 -5.83252201290129 -3.32413651825182  1.38453129942994
 1 -6.87118449524953 -2.24567021042104  1.04430079177918
 1  1.84189032843284  1.32156209810981  1.58292590389039
 1  0.84734468596860  1.39811205550555  3.06352432613261
 1  0.29152741034103  0.14594896469647 -0.30820285258526
 1  4.57599331853185 -1.37808086708671 -3.13132873477348
 1  4.08187901770177 -2.54162594179418 -2.05313242124212
 1 -5.60891302970297 -2.29935085968597 -2.99539300310031
 1  4.77428534983498 -1.19239971987199 -0.12835961226123
 1  5.70608204950495  0.20744374827483 -1.25417990049005
 1  4.35480539203920  1.12194868696870 -3.67112534203420
 1  2.89907565916592  2.50950202890289 -3.58492082748275
 1  2.57823361266127  0.50582508040804 -4.49691284328433
 1  0.48935284528453  2.52582407890789 -2.93646453845385
 1 -7.22456154225423 -3.57891007490749 -0.56519554075408
 1 -7.73420168506851 -3.57468879937994 -2.36908996249625
 1  3.76306003350335  3.45192455345535  3.58929218341834
 1 -0.32260613941394  4.31927320682068 -3.05210310571057
 1 -3.91123971357136  4.47599418121812 -0.43538468996900
 1 -3.73325207490749  3.82761755535553  1.06432724412441
 1 -2.88266658285829  5.50501079217922  0.52620839073907
 1  8.32257795129513 -1.91222437663766 -0.74926556155616
 1 -1.77224014861486  6.42976343344334 -3.14891974417442
 1 -2.61793414631463  5.98536991279128 -1.67853376087609

