%nproc=4
%Mem=4GB
# td=(NStates=1) B3LYP/SVP 

TD

0 1
 8 -5.48041427142714  0.02798823842384 -3.26505629532953
 8  3.00322032753275  2.93906116081608  3.11466754515452
 8  3.26733508210821  0.67359275827583  3.08765065016502
 8  1.75288292779278 -7.22335860596060  1.44143264956496
 8  0.68929381738174 -7.04464088768877 -0.37011499439944
 8  1.81155820392039  3.98822194499450  0.22983249064907
 7 -2.32568217931793 -1.04102253245325  0.66635365196520
 7 -4.41695657705771  0.63454112061206 -1.20553890869087
 7  1.75368576017602 -0.76073764676468 -0.48208668626863
 7  2.55259080098010  1.88647439293929 -0.50434718141814
 6 -4.78411480268027  1.25389688668867 -0.07851205140514
 6 -4.40176756955696  0.30112027732773  1.23322067976798
 6 -2.87760285588559  0.02710296699670  1.31813382638264
 6 -1.93734283098310  0.59652460966097  2.16769993959396
 6 -0.68675528582858  0.01751631613161  1.74212489008901
 6 -0.95006919471947 -0.95082814171417  0.75521734113411
 6 -6.30635299139914  1.36379416871687 -0.17331254665467
 6  0.61337994459446  0.22610328682868  2.45986500660066
 6 -6.68256877137714  0.90315956435644 -1.35439116781678
 6 -0.17768402450245 -1.93945268216822  0.11258333983398
 6  1.11880877707771 -1.74285383198320 -0.43858544074407
 6 -5.44731533183318  0.41119933463346 -2.07896520802080
 6  1.95033911911191 -2.94245478387839 -1.00779778907891
 6 -2.17096279717972  1.58564432133213  3.17275166536654
 6 -7.07704519771977  2.02359048824883  0.94725871177118
 6  3.10999733343334 -2.35991594279428 -1.33748499359936
 6  1.17288331563156  1.65779427282728  2.43172680858086
 6  3.02923099839984 -0.82041066666667 -1.05847983618362
 6  1.46247001720172 -4.41833779817982 -0.91173289018902
 6 -7.96981288728873  0.79509114671467 -2.02363075087509
 6  1.83949151475148 -5.01954288888889  0.41430742624262
 6  4.30039564856486 -2.98698716751675 -1.96426565786579
 6  3.87783865446545  0.10097950145014 -1.37314199659966
 6  2.60933155435544  1.61279886808681  2.95655155505551
 6  3.67469184698470  1.46547195869587 -1.04573114041404
 6 -9.12829781318132  0.91185334563456 -1.39981479677968
 6  1.32555762046205 -6.46485313551355  0.49147780678068
 6  4.55051388598860  2.65582233713371 -1.48536561966197
 6  3.87938720712071  3.75748627232723 -1.10958225252525
 6  2.63364493529353  3.31340919201920 -0.45345410811081
 6  5.95694930023002  2.47402224282428 -1.97619957505751
 6  4.17703332313231  5.18832370817082 -1.10246225962596
 6  6.75558561616162  3.51724740954095 -2.43214769166917
 1 -4.19509399549955  2.23171425152515  0.12972601290129
 1 -4.80980563746375 -0.68485996209621  1.19072381658166
 1 -4.75414225412541  0.74404840454045  2.08659556925693
 1 -2.75949498939894 -1.48484588008801 -0.19102602440244
 1 -3.31584258155816  0.45394731183118 -1.48636618751875
 1  0.42191662636264 -0.14201388938894  3.56320586868687
 1  1.24705871527153 -0.54498916631663  2.11897703050305
 1 -0.60514917581758 -3.05769323432343 -0.22138713641364
 1 -3.35966611191119  1.45563682778278  3.49075906560656
 1 -1.59128034313431  1.42444180808081  3.90598898679868
 1 -1.75483186428643  2.58731255105510  2.68659608140814
 1 -6.40460391129113  2.72792159565957  1.48358059105911
 1 -7.33535330233023  1.09916972617262  1.60203721442144
 1 -8.15718165536554  2.34872095519552  0.49689817001700
 1  0.98840154855486  2.26915895249525  1.41070913821382
 1  0.61394450695070  2.29579640164016  3.06036186038604
 1  1.29231355775578  0.20826147114711 -0.57614297959796
 1  2.08532632483248 -4.87091092149215 -1.78597320702070
 1  0.34140593809381 -4.59934978247825 -1.01829031243124
 1 -7.97487854965497  0.48953918451845 -2.98843478167817
 1  1.29034122302230 -4.55983716341634  0.98454603120312
 1  2.91093736383638 -4.92934013851385  0.56375419031903
 1  4.15621068336834 -4.03015046724672 -2.20837429852985
 1  5.19502060046005 -3.01885073527353 -1.38530214781478
 1  4.58739017211721 -2.34708694129413 -2.86117519111911
 1  4.80710032953295 -0.11648374287429 -1.87495367106711
 1 -9.20115371587159  1.11332878837884 -0.35982867266727
 1 -10.13768190179018  0.77434885058506 -1.98893499349935
 1  4.07335202170217  2.83147653135314  2.98386315201520
 1  6.36501997019702  1.36660881008101 -1.84912372737274
 1  5.07598829862986  5.34858762296230 -0.43576219611961
 1  4.45955797829783  5.65309207490749 -2.05787833273327
 1  3.21895956555656  5.76783639003900 -0.77117885948595
 1  1.43048035613561 -8.19072022912291  1.44608066296630
 1  7.59145158955896  3.23051859175918 -2.92798007130713
 1  6.44282617011701  4.54297981018102 -2.54285663816382

