%nproc=4
%Mem=3GB
# td=(NStates=1) B3LYP/SVP 

TD

0 1
 8 -3.41830874107411 -1.33125818131813 -2.86287694199420
 8  3.16626708150815  3.03883554205421  3.05514978587859
 8  3.53184749294929  1.47997512581258  4.67181162476248
 8  7.54871347424742 -1.66197231143114 -0.76071683348335
 8  6.69544370077008 -2.93326412131213 -2.30429687778778
 8 -2.73142404890489  1.70716620572057  1.38843890439044
 7 -0.27754350055005 -2.46278259255926  0.94874971577158
 7 -2.65865790379038 -1.36721185618562 -0.64862700730073
 7  1.07979952935294  0.02598350805080 -0.78242317951795
 7 -0.93785293079308  1.53711911981198 -0.11893279117912
 6 -3.39474462416242 -1.38207576997700  0.69159613351335
 6 -2.59227785388539 -2.34255840204020  1.64444975177518
 6 -1.12255789748975 -2.09675748974897  1.73706169476948
 6 -0.45543534583458 -1.21656284798480  2.87343536403640
 6  0.83176428902890 -1.20502550355035  2.46583777837784
 6  0.96577926412641 -1.88217465216522  1.30552535653565
 6 -4.78775372197220 -1.93340898959896  0.30318720602060
 6  1.99952454385439 -0.45074540414041  3.21734388888889
 6 -4.77201356275628 -2.15253396179618 -0.99375971647165
 6  2.08239619601960 -1.88395658785879  0.31463374207421
 6  2.11738776067607 -0.82710462266227 -0.64666856835684
 6 -3.56008067796780 -1.56718868416842 -1.67814509790979
 6  3.05254631783178 -0.61464221252125 -1.75572947184718
 6 -1.38495706790679 -0.33421727872787  3.74377988628863
 6 -5.77893311741174 -2.13045952625263  1.23796480208021
 6  2.65917557445745  0.50107747594759 -2.43118772877288
 6  2.03842327472747  0.92731842384238  2.79191583318332
 6  1.44405777227723  0.97009365796580 -1.66966307230723
 6  4.28281363046305 -1.54037346644664 -2.00180981108111
 6 -5.84920925702570 -2.62488457885789 -1.95832928112811
 6  5.28850440144014 -1.16989873507351 -1.08361177807781
 6  3.34182427782778  1.30432883548355 -3.54341085028503
 6  0.68500092419242  2.04534968186819 -1.88248999409941
 6  2.96106474677468  1.84952453795380  3.58535388058806
 6 -0.53929776137614  2.30974560676068 -1.16665195309531
 6 -6.96368029452945 -3.23386715081508 -1.61228978767877
 6  6.56892646224622 -2.02052030713071 -1.51249193919392
 6 -1.47092574737474  3.52549478267827 -1.37968604330433
 6 -2.32920701010101  3.40623110211021 -0.31843975017502
 6 -2.07445971837184  2.13099403290329  0.43673260526053
 6 -1.28614859325933  4.64086034623462 -2.32585435343534
 6 -3.40602123862386  4.36500698359836  0.10481472117212
 6 -2.01699559075908  5.81827724592459 -2.43045677847785
 1 -3.46988548174818 -0.37584307420742  1.13864806940694
 1 -2.74040566696670 -3.32776790179018  1.14818516761676
 1 -3.18747856765677 -2.45662910731073  2.53341272997300
 1 -0.43798910371037 -2.75680444554455 -0.11399438943894
 1 -2.03779216891689 -0.64017032053205 -0.57997209960996
 1  1.79439740114011 -0.62486394019402  4.26708880798080
 1  2.95191252415241 -0.91315320662066  3.04430936033603
 1  2.82069088298830 -2.60464204710471  0.29877293049305
 1 -1.93453608290829 -1.34941421542154  4.33167022882288
 1 -0.79656942494249  0.24630042644264  4.48163451995200
 1 -2.06307562136214  0.27403985068507  3.06026479177918
 1 -5.92315310251025 -1.31817994919492  1.99631392439244
 1 -5.73583234393439 -3.16311041564156  1.78348119441944
 1 -6.83061043784378 -2.17556319971997  0.90871723342334
 1  2.43603974337434  1.15343528542854  1.72055966726673
 1  1.03787373887389  1.43405564986499  2.54974294799480
 1  0.33126138373837  0.31320569036904 -0.07648968126813
 1  4.26058177737774 -1.51056411541154 -3.15346094799480
 1  3.89861069086909 -2.59167094629463 -1.85853296129613
 1 -5.73059519791979 -2.29473039763976 -3.00150361416142
 1  5.24730265156516 -1.32433291319132  0.01779500320032
 1  5.56952839413941 -0.22353935003500 -1.18906338883888
 1  4.29904981648165  0.73366985908591 -3.85431366086609
 1  3.40076582818282  2.42424350305030 -3.01989432483248
 1  2.63692948224823  1.17367186508651 -4.24915806780678
 1  0.98806271627163  2.80806230273027 -2.55920681268127
 1 -7.34745383148315 -3.35822800670067 -0.65208422962296
 1 -7.82868113301330 -3.35760709120912 -2.45931898539854
 1  3.54144787228723  3.66387574857486  3.73558681288129
 1 -0.46484036283628  4.42132341184118 -2.95541343674367
 1 -4.07290588018802  4.68417499929993 -0.82620377187719
 1 -4.19547829752975  3.79438423202320  0.81693250465047
 1 -2.64720303650365  5.20102039313931  0.52163793369337
 1  8.45423111661166 -2.13957711191119 -1.14322495749575
 1 -1.82524544914491  6.48975943304330 -3.18503335553555
 1 -2.84625697859786  6.16703807960796 -1.82545845334533

