%nproc=4
%Mem=3GB
# td=(NStates=1) B3LYP/SVP 

TD

0 1
 8 -3.35154206440644 -1.65893094859486 -2.99763041734173
 8  3.07989844464446  3.14529618811881  3.31079535043504
 8  3.75506981518152  1.27334446274627  4.51296574017402
 8  7.79561816471647 -1.66186230043004 -0.57104786658666
 8  6.78578273467347 -2.94834562946295 -2.19677612571257
 8 -2.55407631413141  1.56438192729273  1.44197425792579
 7 -0.33512925912591 -2.21793810811081  0.85197003780378
 7 -2.71104314231423 -1.20124525952595 -0.68778092269227
 7  1.19180072947295  0.13502441214121 -0.73247818501850
 7 -0.99271841734173  1.42015742364236 -0.22269316721672
 6 -3.31721687138714 -1.28878644104410  0.61878885278528
 6 -2.61065969206921 -2.31500564676468  1.61665697249725
 6 -1.21513715541554 -1.94334214821482  1.76686467506751
 6 -0.59676947924792 -1.21225241694169  2.84671269176918
 6  0.73104421702170 -1.05469047004700  2.46021721632163
 6  0.92197488368837 -1.73884031873187  1.21134593859386
 6 -4.78243318991899 -1.86601224992499  0.24849173647365
 6  1.84570916231623 -0.35420575017502  3.13161531603160
 6 -4.82970933233323 -2.02325103350335 -1.17372771327133
 6  2.06923487988799 -1.83567175937594  0.28953123182318
 6  2.18044406630663 -0.79640155235524 -0.65144904640464
 6 -3.57945261516152 -1.58913087838784 -1.79655693909391
 6  3.08023908710871 -0.56169691799180 -1.74693859275928
 6 -1.32239081128113 -0.53703756075608  3.99113462176218
 6 -5.93757898199820 -1.96717319761976  1.24305531113111
 6  2.64002365926593  0.55146251445145 -2.50320493049305
 6  2.03947337973797  1.05899159115912  2.75180182178218
 6  1.37320068656866  0.98147479607961 -1.86792289828983
 6  4.37119246834683 -1.44089351845185 -2.00544017411741
 6 -5.97264160026003 -2.54722681308131 -1.95295874407441
 6  5.49659521052105 -1.12475422062206 -1.11013443034303
 6  3.07083717911791  1.01817021962196 -3.76763327252725
 6  0.56647907200720  2.02115726262626 -2.10479222432243
 6  3.04399303960396  1.80436002150215  3.66210155535554
 6 -0.63030686228623  2.28712334453445 -1.24872015991599
 6 -7.04700862736274 -3.23101686578658 -1.49827838653865
 6  6.74496406600660 -2.09257751285128 -1.41863255325533
 6 -1.47526618141814  3.50224245744574 -1.26481455615562
 6 -2.30663475287529  3.30539101810181 -0.24012191839184
 6 -1.97570984338434  2.06018695219522  0.44817374937494
 6 -1.35318529692969  4.54294055425543 -2.20655242324232
 6 -3.36481711821182  4.19294977787779  0.37354159385939
 6 -2.07758164936494  5.69342476067607 -2.33995772857286
 1 -3.36553504670467 -0.36062155205521  1.24268847344734
 1 -2.90190181658166 -3.20157528252825  1.23462381148115
 1 -2.92364218401840 -1.93302674707471  2.72543193189319
 1 -0.37308261306131 -2.58662742784278 -0.02777576757676
 1 -1.99941833153315 -0.48401470497050 -0.80627472987299
 1  1.84599256065606 -0.61493294709471  4.25181728082808
 1  2.76276360926093 -0.97708960026003  2.93679860926093
 1  2.60731954585459 -2.73360494339434  0.37076012921292
 1 -2.14154678397840 -1.21282055605561  4.57848491029103
 1 -0.41647141514151 -0.31012521612161  4.74541089758976
 1 -1.86943625742574  0.30558300500050  3.80870963626363
 1 -5.60430121732173 -1.25632376357636  1.98439273227323
 1 -6.11627038773877 -2.83030713531353  1.69466231253125
 1 -6.79515689248925 -1.81218686208621  0.80719708140814
 1  2.08269440884088  1.19303924582458  1.82308992029203
 1  1.16462641414141  1.69922216651665  2.76083405710571
 1  0.42803106070607  0.28934330413041 -0.05024705700570
 1  4.88282400160016 -1.46804986398640 -2.99109471137114
 1  3.93497432723272 -2.44686646584658 -1.87776488448845
 1 -5.87855999439944 -2.31948287288729 -3.05670913471347
 1  5.12249017031703 -1.48464894479448 -0.05948272457246
 1  5.77159860116012 -0.00787778387839 -1.00305478797880
 1  3.99448936043604  0.65678217031703 -3.93564179367937
 1  3.14069982158216  2.20344142284228 -3.85382771817182
 1  2.43128891819182  0.73757825572557 -4.74305745774577
 1  0.47803171317132  2.68087958445845 -2.91220211221122
 1 -7.20331941804180 -3.41435361926193 -0.39668869006901
 1 -7.95339360426042 -3.48639997049705 -2.24686774027403
 1  3.63338706620662  3.56984634563456  3.97788104230423
 1 -0.66995087388739  4.49954123362336 -3.17807570297030
 1 -4.19199778937894  4.41644822662266 -0.48184933643364
 1 -3.75253400310031  3.68441323492349  1.25854666606661
 1 -2.95071338753875  5.08876916801680  0.59043481338134
 1  8.52035772927293 -2.30843399759976 -0.81243187818782
 1 -2.00357328192819  6.56362681978198 -3.08757360956096
 1 -2.69855220812081  6.08551992779278 -1.59196510401040

