%nproc=4
%Mem=3GB
# td=(NStates=1) B3LYP/SVP 

TD

0 1
 8 -3.26886379657966 -1.13083813931393 -2.84612526682668
 8  3.12028248304831  3.10973263176318  3.35360963186319
 8  3.78280258845885  1.37593472177218  4.62759720332033
 8  7.69700830373037 -1.58681479567957 -0.89989075087509
 8  6.43541769816982 -3.27824861976198 -1.78656510461046
 8 -2.63470437693769  1.73533902300230  1.55367542804280
 7 -0.20505625182518 -2.39598591289129  0.84910975177518
 7 -2.57114915291529 -1.23195833083308 -0.67944008860886
 7  1.06005755515552  0.06628753845385 -0.75114005120512
 7 -1.05424456995700  1.51456686458646 -0.07358825672567
 6 -3.32928807850785 -1.28253581598160  0.61305827972797
 6 -2.58285691179118 -2.28783292949295  1.66724203100310
 6 -1.17174281598160 -1.99754756875688  1.85003299189919
 6 -0.51568137043704 -1.11615280698070  2.77400542104210
 6  0.84706581918192 -1.05175017601760  2.48075927052705
 6  0.93825651185119 -1.86358279297930  1.19639444344434
 6 -4.67946289288929 -1.90054570327033  0.20119700700070
 6  1.89138372977298 -0.38930926052605  3.23508566306631
 6 -4.72732909430943 -2.01662037043704 -1.14138447894789
 6  2.12724068046805 -1.89572776497650  0.20800307900790
 6  2.13533955585559 -0.90366227842784 -0.72291619311931
 6 -3.44459912981298 -1.43838580388039 -1.64700198359836
 6  2.92203326652665 -0.71801254955496 -1.90557445634563
 6 -1.14371294349435 -0.49620347734773  3.88534404270427
 6 -5.74319954405441 -2.24679115941594  1.21407241284128
 6  2.42513217011701  0.39716708490849 -2.49891450145014
 6  2.06538597099710  1.11091678367837  2.91252789438944
 6  1.35451881838184  0.84911155975598 -1.83550965696570
 6  4.21767711681168 -1.49247867696770 -2.15894552465247
 6 -5.76240057615762 -2.38951104150415 -2.08580202840284
 6  5.42967851885189 -1.01588333353335 -1.21582499939994
 6  3.02594268966897  1.09709811241124 -3.71353786298630
 6  0.52104452855286  2.01469661656166 -2.04713645874587
 6  2.99367800810081  1.86039562506251  3.80917626282628
 6 -0.65098893049305  2.24374900710071 -1.19172446034603
 6 -6.73251717821782 -3.41442520662066 -1.89692825152515
 6  6.55777534713471 -2.10736899199920 -1.35132582258226
 6 -1.51622027682768  3.52187442064206 -1.32675074977498
 6 -2.36186027542754  3.39763024202420 -0.24727263346335
 6 -2.11130340274027  2.18187912141214  0.52793172517252
 6 -1.42359233763376  4.46076233643364 -2.41911367936794
 6 -3.53635427192719  4.32632311521152  0.22321656135614
 6 -2.09202309350935  5.65951136933693 -2.45699943274327
 1 -3.30004849804980 -0.24964045394539  1.10386459105911
 1 -2.61302292869287 -3.21704682968297  1.16896724582458
 1 -3.03922374217422 -2.21490493489349  2.80905029372937
 1 -0.41267657245725 -2.90505927102710  0.15641265126513
 1 -2.01717010671067 -0.38768507200720 -0.93171727412741
 1  1.94861282268227 -0.26819827362736  4.37581968106811
 1  2.80220755365537 -0.96951884318432  3.35042997239724
 1  2.76095490939094 -2.61617320022002  0.30607366056606
 1 -1.93080570987099 -1.43007228122812  4.51004806660666
 1 -0.23336310431043 -0.15858006160616  4.70045640214022
 1 -1.70040935473547  0.34193664036404  3.69648841414141
 1 -5.83136392359236 -1.60458859005901  2.20434472747275
 1 -5.56007476817682 -3.03263736833683  1.68619146544654
 1 -6.84629200600060 -2.11377702110211  0.97441380308031
 1  2.61412755215522  1.27755769766977  1.97161477277728
 1  1.00434038553855  1.60364260856086  2.71312928662866
 1  0.38949720732073  0.35043941374137  0.04155212291229
 1  4.43102882208221 -1.50602366136614 -3.26178178007801
 1  4.01418224802480 -2.54875665486549 -1.98038514651465
 1 -5.64988712711271 -2.06742766736674 -3.04936840064006
 1  5.11140906220622 -0.97111759165917 -0.16310308660866
 1  5.80207164846485 -0.11111810791079 -1.39449393189319
 1  3.79662957445745  0.37122361446145 -4.17011524102410
 1  3.47302305390539  2.17226830553055 -3.22593492889289
 1  2.19797558685869  1.35437993589359 -4.47165031703170
 1  0.63810772077208  2.85801729822982 -2.82391328332833
 1 -6.88590767686769 -3.81591377527753 -0.92799182038204
 1 -7.61575984088409 -3.47842917341734 -2.66132918641864
 1  4.01442517001700  3.55450481148115  3.77203045724572
 1 -0.69436331513151  4.20725200470047 -3.11438933433343
 1 -4.19146773637364  4.37028361016102 -0.62575372687269
 1 -4.05900465016502  3.59811460506051  1.08716952835284
 1 -3.15235355155516  5.33125341644164  0.68277404730473
 1  8.26809250275028 -2.30148330253025 -0.88949958495850
 1 -1.99029195379538  6.29192965006501 -3.34704955715572
 1 -2.85461781468147  6.07683905970597 -1.59010491799180

