%nproc=4
%Mem=4GB
# td=(NStates=1) B3LYP/SVP 

TD

0 1
 8 -5.24013024302430 -0.02345690609061 -3.26202599229923
 8  3.06321632713271  2.94244149884988  3.08698477687769
 8  3.45501384998500  0.77714311331133  3.06761864696470
 8  1.71843948344834 -7.31144741484148  1.25803430973097
 8  0.45174006200620 -6.91792821642164 -0.58463644654465
 8  1.76134318241824  4.07396051885189  0.12507201460146
 7 -2.33278288938894 -1.03005143534353  0.77020403700370
 7 -4.34157903930393  0.58991665816582 -1.25493384818482
 7  1.74813520512051 -0.72031360436044 -0.40533901150115
 7  2.65018055995600  1.85559130463046 -0.41920866756676
 6 -4.80377676887689  1.09447094409441  0.03069886968697
 6 -4.45826321912191  0.23746391169117  1.32226958465847
 6 -3.00424552015202 -0.00553029632963  1.50255226822682
 6 -2.06264536123612  0.66912186938694  2.15159832943294
 6 -0.73555016531653  0.04317888238824  1.87462814041404
 6 -1.01797598539854 -0.94661772067207  0.90215203460346
 6 -6.27467982408241  1.26478426772677 -0.21218643404340
 6  0.59253786038604  0.21373204970497  2.54360338043804
 6 -6.64502501700170  0.79802905130513 -1.45892162086209
 6 -0.21036729282928 -2.03952268916892  0.31096317781778
 6  1.09545644184418 -1.89169871647165 -0.16714829702970
 6 -5.30452105240524  0.45687390209021 -2.15274258575858
 6  1.92206629182918 -2.89622016041604 -0.89046605590559
 6 -2.33103880478048  1.88563432033203  3.22038642884288
 6 -7.05879337253725  2.06435456465647  0.79732371827183
 6  3.04661099479948 -2.24424437563756 -1.37961920702070
 6  1.11652768006801  1.67364585798580  2.50161379727973
 6  2.93398147344734 -0.91627025262526 -1.07923191139114
 6  1.54700847104710 -4.35563152755276 -0.91070278717872
 6 -7.92605851185119  0.71410304790479 -2.04434282208221
 6  1.84951251685168 -5.14984591919192  0.37337333283328
 6  4.28474408340834 -2.96763523232323 -1.99236846814681
 6  3.90539140974097  0.18148755225523 -1.37826250865086
 6  2.65702632383238  1.71556914511451  2.92284818471847
 6  3.76620099789979  1.49908532003200 -1.00346691399140
 6 -9.11912689608961  0.82029418971897 -1.43747856315632
 6  1.23899896459646 -6.57741439163916  0.34393305230523
 6  4.62521135573557  2.62751950685068 -1.45202228532853
 6  3.90397966636664  3.72427295099510 -1.05608690299030
 6  2.63434500530053  3.22931078217822 -0.31227999069907
 6  5.81632523782378  2.59223406400640 -2.27156911201120
 6  4.25002062186219  5.23098797459746 -1.17331934533453
 6  6.71476153375338  3.45847153195320 -2.55764024092409
 1 -4.25843032913291  2.15029610971097  0.21307434773477
 1 -5.23388804570457 -0.74572604870487  1.38049279347935
 1 -4.79754659455946  1.06167016671667  1.95160206990699
 1 -2.83123216311631 -1.65651304680468  0.00222330053005
 1 -3.33192418971897  0.58694061116112 -1.37111466236624
 1  0.54471890659066  0.01290160216022  3.54619416751675
 1  1.49205321472147 -0.28253292069207  2.27069220202020
 1 -0.78669733063306 -2.84872233723372 -0.00073507120712
 1 -3.36712685798580  1.87031829592959  3.49186917661766
 1 -1.78151936703670  1.70003936783678  4.18528691659166
 1 -1.95253163426343  2.82006582638264  2.61289871167117
 1 -6.37892134303430  2.88118692219222  1.16868910191019
 1 -7.42529229622962  1.44257406660666  1.64693170387039
 1 -7.85273121032103  2.55692177527753  0.42521100130013
 1  0.94589729812981  2.11656369296930  1.47763583088309
 1  0.32621573407341  2.15054187618762  3.08247407160716
 1  1.53310763716372  0.34068471347135 -0.49752511781178
 1  1.99602739493949 -4.98419224962496 -1.66225083478348
 1  0.43636543404340 -4.33716356385639 -1.16498498189819
 1 -7.95147620942094  0.36042627322732 -2.99365530373037
 1  1.46236842574257 -4.57622880258026  1.15718329492949
 1  2.89736600670067 -5.34387159165917  0.35320313521352
 1  4.19808487078708 -4.03915136733673 -2.32467592869287
 1  5.08606970537054 -2.84339318951895 -1.29330294789479
 1  4.74849628272827 -2.39160139273927 -2.81322039563956
 1  4.99459907940794 -0.24595669016902 -1.86606278197820
 1 -9.17281088158816  0.74786224172417 -0.23806649644964
 1 -10.04120225382538  0.51306272197220 -1.99872597259726
 1  4.02966765326533  2.88342172587259  3.20877564326433
 1  5.96504997319732  1.48906105530553 -2.67271608660866
 1  5.08963966376638  5.52155491969197 -0.43504212411241
 1  4.63974599709971  5.47483424912491 -2.20126267116712
 1  3.33190085968597  5.76540614701470 -0.70866260786079
 1  1.17276458455846 -8.24502565966597  1.32783883878388
 1  7.60747319171917  3.09998553845384 -3.14428170147015
 1  6.88694058155816  4.55007051925193 -1.96966931943194

