%nproc=4
%Mem=3GB
# td=(NStates=1) B3LYP/SVP 

TD

0 1
 8 -3.15489239943994 -1.32190724622462 -2.89570022432243
 8  3.01181163596360  3.18548020652065  3.22087635853585
 8  3.74338864706471  1.28158528682868  4.26667111071107
 8  7.50493909680968 -1.88063417761776 -0.61433219501950
 8  6.37695185158516 -3.12881367626763 -2.08291473957396
 8 -2.69724063056306  1.73472896199620  1.42480254075408
 7 -0.22500824702470 -2.37722403670367  0.93292813361336
 7 -2.66150818881888 -1.12250738573857 -0.54736688128813
 7  1.11763331273127  0.17806871657166 -0.68068300550055
 7 -1.00260940644064  1.58710411831183 -0.05212611051105
 6 -3.38117326702670 -1.26168373077308  0.69717669156916
 6 -2.64098272437244 -2.31848599479948  1.58035334213421
 6 -1.17648329002900 -2.07384519851985  1.87043503210321
 6 -0.53839364166417 -1.23015420712071  2.83035105560556
 6  0.80973208580858 -1.10616561756176  2.51888308290829
 6  1.02066475267527 -1.87269370407041  1.26936174017402
 6 -4.66096104270427 -1.94031968066807  0.22946983428343
 6  1.87746233763376 -0.37594792439244  3.24027618211821
 6 -4.69801616301630 -2.16503521192119 -1.11200154065407
 6  2.11853981038104 -1.81163935613561  0.31579385808581
 6  2.04586060796080 -0.89348126032603 -0.68520242174217
 6 -3.43697836773677 -1.51623358865887 -1.73000028342834
 6  2.99216027922792 -0.59012976127613 -1.77450134903490
 6 -1.26106467866787 -0.46800065706571  3.92725823412341
 6 -5.76669189328933 -2.42033851415141  1.21676268186819
 6  2.42973263016302  0.52928029622962 -2.46021063106311
 6  1.95548498089809  1.12208790079008  2.84853149474948
 6  1.38718208470847  0.99807645624562 -1.73003910991099
 6  4.15290063916392 -1.49189861896190 -2.13133276337634
 6 -5.68095243134313 -2.58531062146215 -2.00359380758076
 6  5.41103665466547 -1.15554729992999 -1.36716013291329
 6  3.09119921532153  1.19292769536954 -3.63150966016602
 6  0.48900132423242  2.01427657455746 -1.97443918901890
 6  2.97829646994699  1.93864344984498  3.51931727692769
 6 -0.53549738133813  2.43294792699270 -1.15701098899890
 6 -6.54361828832883 -3.50730449454946 -1.76142470117012
 6  6.46013558315832 -2.20296855195520 -1.42209289928993
 6 -1.46442509730973  3.59770200340034 -1.30444851955196
 6 -2.45952004140414  3.42866334533453 -0.32927083328333
 6 -2.06892916531653  2.21910284378438  0.51662059405941
 6 -1.30574055245525  4.58541480168017 -2.32503427142714
 6 -3.42078271477148  4.40779126202620  0.26205044474447
 6 -1.80393428462846  5.81284670287029 -2.36613034583458
 1 -3.51979047224723 -0.25937142704270  1.06696090069007
 1 -2.96257788418842 -3.44965009000900  1.18573892299230
 1 -3.08956877667767 -2.58081152555256  2.62429181788179
 1 -0.62830813561356 -2.59146791189119 -0.02067505750575
 1 -2.12111050075007 -0.31671797529753 -0.46152025442544
 1  1.56769473087309 -0.16809826362636  4.26630872997300
 1  2.83719105200520 -0.89135102640264  3.07772270167017
 1  2.89985879977998 -2.72517410031003  0.32277533073307
 1 -2.22807543684368 -0.89528880288029  4.44262132393239
 1 -0.54007377537754 -0.11069527312731  4.63122947944795
 1 -1.79016833063306  0.31646409310931  3.40234900020002
 1 -5.74354514171417 -1.95409354055406  2.33142743574357
 1 -5.24066282698270 -3.54273837843784  1.57156000230023
 1 -6.58804618141814 -2.42319796319632  0.79607596929693
 1  2.34550068946895  1.18568851075107  1.73221083238324
 1  0.99863981548155  1.65183742804280  2.82189016271627
 1  0.27387564516452  0.47701207100710  0.05905387308731
 1  4.47995371457146 -1.33952701170117 -3.21414701660166
 1  3.96175700550055 -2.44940671987199 -1.95398250625063
 1 -5.32060419881988 -2.25368629322932 -2.91639510331033
 1  5.08283620492049 -1.15744622452245 -0.35630240654065
 1  6.01852329362936 -0.10195719181918 -1.56633111561156
 1  3.70909082058206  0.34901139323932 -4.02475070457046
 1  3.66904265586559  2.11101217991799 -3.25107744314431
 1  2.17850363966397  1.69681417931793 -4.33482663466347
 1  0.70649455945595  2.89341083758376 -2.75378627062706
 1 -6.88932801890189 -4.15736792069207 -0.79609863106311
 1 -7.26768503340334 -3.93668499899990 -2.54050710421042
 1  3.89294302180218  3.42230159115912  3.52377563176318
 1 -0.61701558035804  4.45467674717472 -3.03353124852485
 1 -4.08364695429543  4.58008459025903 -0.49134028552855
 1 -3.93159190889089  4.02630742434243  1.12692350375038
 1 -2.98632694889489  5.31040133123312  0.68503427332733
 1  8.10527622112211 -2.55706886108611 -0.57346798179818
 1 -1.61162408700870  6.71073153025303 -3.02546739893989
 1 -2.50017237013701  6.25173654945495 -1.61625753325333

