%nproc=4
%Mem=3GB
# td=(NStates=1) B3LYP/SVP 

TD

0 1
 8 -3.16658356855686 -1.26902195769577 -2.87985864016402
 8  3.22184263906391  3.06892855135514  3.23836810771077
 8  3.77202151035104  1.29093622192219  4.38943338693869
 8  7.70896949984999 -1.51880799499950 -0.77969873167317
 8  6.70129428582858 -3.00586138103810 -2.09870631873187
 8 -2.58652955945595  1.61820730983098  1.44238429892989
 7 -0.31730747694769 -2.28156447074707  0.87209205000500
 7 -2.69979201720172 -1.13484861986199 -0.54913705830583
 7  1.11678322772277  0.09284019371937 -0.70128506570657
 7 -1.05125427092709  1.36652206010601 -0.21701259915992
 6 -3.39149429912991 -1.31261882428243  0.66725369926993
 6 -2.66526515261526 -2.26186033223322  1.68056336313631
 6 -1.25917155885589 -1.93987180118012  1.84387237583758
 6 -0.59331913421342 -1.17595878757876  2.91429945044504
 6  0.75462657525753 -1.06626162716272  2.52811400600060
 6  0.88552123832383 -1.86553298799880  1.27827263126313
 6 -4.80511545814581 -1.86650229892989  0.26759364666467
 6  1.80267485888589 -0.30631096069607  3.24631678617862
 6 -4.77709407080708 -1.96744545294529 -1.11213155365537
 6  2.04156211261126 -1.83516170837084  0.41789406810681
 6  2.08297431933193 -0.76184809700970 -0.64717861936194
 6 -3.46817148704871 -1.43797576287629 -1.68075535893589
 6  3.08074913811381 -0.69913066136614 -1.78051195009501
 6 -1.32377094929493 -0.50817467446745  4.03343885218522
 6 -5.77644286838684 -2.28963544384438  1.25936694229423
 6  2.59488914581458  0.44107147534753 -2.46469107910791
 6  2.02563199559956  1.12810850285029  2.90793743534353
 6  1.31865523202320  0.91153780238024 -1.84870097609761
 6  4.13342869196920 -1.53779320842084 -1.94461409150915
 6 -5.73844818091809 -2.39855194559456 -2.02587603580358
 6  5.45514106510651 -1.03243498869887 -1.25292870977098
 6  2.94553464886489  0.95808421102110 -3.82846935613561
 6  0.44808723282328  1.89152429932993 -2.11376312141214
 6  3.04289292959296  1.77136672217222  3.57408275347535
 6 -0.61262509410941  2.18331296349635 -1.17524281218122
 6 -6.76888081458146 -3.27326109020902 -1.92382094079408
 6  6.67984755435544 -1.95241349644964 -1.46136682668267
 6 -1.44454310911091  3.49019125232523 -1.24094216891689
 6 -2.33515760516052  3.31652213121312 -0.17746565276528
 6 -2.00390266266627  2.12173310681068  0.46825575757576
 6 -1.35296527492749  4.41240750095009 -2.30831259925993
 6 -3.54160479697970  4.19381986488649  0.20437467716772
 6 -1.75771966316632  5.82563798199820 -2.28878261106111
 1 -3.42453094629463 -0.42966845674567  1.17786199079908
 1 -2.84713634003400 -3.31454657965797  1.43283363246325
 1 -3.26215603540354 -2.03889733413341  2.48566795549555
 1 -0.65178048284828 -2.63419218431843 -0.02411540154015
 1 -1.82243063276328 -0.54416071957196 -0.52504660706071
 1  1.58903686508651 -0.68276973077308  4.15038713781378
 1  2.82622995589559 -0.72518440974097  2.86363129252925
 1  2.77502631653165 -2.55273685658566  0.44471752495250
 1 -2.08107073637364 -1.18899817381738  4.40350741254125
 1 -0.73900366836684 -0.06925112871287  4.81924828132813
 1 -1.65649496329633  0.56843929062906  3.73149191449145
 1 -5.89875066226623 -1.63941207240724  2.05858015101510
 1 -5.40008876957696 -3.29660376497650  1.70846369266927
 1 -6.69639701650165 -2.42043768716872  0.66329269096910
 1  2.08465460486049  1.15968591049105  1.78098570987099
 1  0.92933288478848  1.60572281658166  3.22087006070607
 1  0.22532078967897  0.34729909970997 -0.06773880618062
 1  4.45859157835784 -1.81295435443544 -3.09677527942794
 1  4.13705453525352 -2.78050983018302 -1.58423553155316
 1 -5.57613975237524 -1.89448037263726 -3.02763622742274
 1  5.31584950625063 -0.72603308320832 -0.10544732103210
 1  5.56507794909491 -0.25205220132013 -1.94400888338834
 1  3.89349926142614  0.60151664376438 -4.18187641714171
 1  3.33879963156316  2.02521360006001 -3.59677201260126
 1  2.08668445774577  0.84510900880088 -4.55564871687169
 1  0.55761967196720  2.63787528402840 -2.87081797379738
 1 -6.82031111721172 -3.77065924982498 -0.97907692889289
 1 -7.52601086598660 -3.56480781128113 -2.79657271077108
 1  4.06062979047905  3.32282164316432  3.73742699689969
 1 -0.98499237803780  3.95884716421642 -3.50934883028303
 1 -4.12697128672867  4.60990757255726 -0.79403055455546
 1 -4.52316106580658  3.48806359996000  0.77498831023102
 1 -3.22099041524152  5.16803709480948  0.75585135503550
 1  8.60032572607261 -2.08532168636864 -0.72259289428943
 1 -1.69476240084008  6.21586204330433 -3.38077292949295
 1 -2.17289964286429  6.41360273607361 -1.29033494099410

