%nproc=4
%Mem=4GB
# td=(NStates=1) B3LYP/SVP 

TD

0 1
 8 -5.22967919791979  0.16667210681068 -3.24091388108811
 8  3.04151415691569  2.88070532523252  3.32517859625963
 8  3.41210955955596  0.72611801080108  2.85388727382738
 8  1.65187282678268 -7.03838010811081  1.52713121942194
 8  0.57057194519452 -7.00298672227223 -0.48875685858586
 8  1.75766281438144  3.86531965476548 -0.11941243384338
 7 -2.34552416351635 -0.93950238043804  0.68438545514551
 7 -4.32848773017302  0.57526519301930 -1.12696105090509
 7  1.88901929352935 -0.67668924192419 -0.31244972257226
 7  2.65143068496850  1.85022076757676 -0.48659540624062
 6 -4.76053244444444  1.13470496749675  0.05356115591559
 6 -4.45730312311231  0.24342450775077  1.26474383208321
 6 -3.03040813641364  0.08165842254225  1.35015702870287
 6 -2.07836693339334  0.54540949814982  2.29410257985799
 6 -0.76866347664766  0.07359192369237  1.83745442304230
 6 -0.98309249704970 -0.86559961886189  0.80357217661766
 6 -6.25221757785779  1.36651444074407 -0.22961817721772
 6  0.63228183478348  0.14587526402640  2.55057407750775
 6 -6.61414192869287  0.79225847424743 -1.39356508520852
 6 -0.19909616571657 -1.81184992189219  0.09504158565857
 6  1.13263015921592 -1.74439398599860 -0.34108569076908
 6 -5.42043264356436  0.45584379907991 -2.05239255075508
 6  1.85944002920292 -2.86378691709171 -0.97794480378038
 6 -2.32790849174918  1.68003376027603  3.20594498469847
 6 -7.18503599679968  1.95705383458346  0.81286527242724
 6  3.06406273997400 -2.33561351255126 -1.43397464256426
 6  1.16652267956796  1.53954244764476  2.67054068996900
 6  2.99949802510251 -0.86217484308431 -1.14579856805681
 6  1.44765853605361 -4.31194715911591 -1.04146586348635
 6 -7.94380028602860  0.58518015561556 -1.93048143594359
 6  1.60318788438844 -4.92928386298630  0.26896289178918
 6  4.27515312431243 -2.84533300210021 -2.07123635493549
 6  3.90607147774777  0.04507391089109 -1.41538622102210
 6  2.55596621782178  1.65069265746575  3.01252715261526
 6  3.70022440024002  1.51466687818782 -1.06946351365136
 6 -9.12289727312731  0.52430459075908 -1.32304712001200
 6  1.17179224392439 -6.37988463866387  0.35626428542854
 6  4.68467730233023  2.63907066196620 -1.33945102820282
 6  3.95444471287129  3.76690721442144 -1.01973326762676
 6  2.69824139493949  3.29068691979198 -0.58075683838384
 6  6.01285489078908  2.39037387798780 -2.08181013611361
 6  4.33076869666967  5.23151802760276 -1.29984199759976
 6  6.86021607920792  3.44013969876988 -2.37432190909091
 1 -4.44013849995000  2.22279335943594  0.30475351565157
 1 -4.85744040094009 -0.73578505460546  1.02877762196220
 1 -4.77642448234823  0.53619761946195  2.27943485318532
 1 -2.76278531843184 -1.36725412091209 -0.47289421122112
 1 -3.29263026032603  0.66120803790379 -1.54692224312431
 1  0.60185462016202 -0.22098178617862  3.49146869496950
 1  1.33557756715672 -0.39912457985799  2.05932106490649
 1 -0.79656831773177 -2.63474093909391 -0.15817081478148
 1 -3.41820196549655  1.62813407750775  3.28247823752375
 1 -1.59747096219622  1.38716808070807  4.04426281418142
 1 -2.04551093219322  2.57396121592159  2.63428084988499
 1 -6.94905835673567  2.92313111661166  1.33717595059506
 1 -7.50001976897690  1.11126093529353  1.37588459915992
 1 -8.13834977217722  2.31820790389039  0.23756223642364
 1  1.10350305870587  2.05391742834283  1.61897996529653
 1  0.79292240474047  2.37548437043704  3.54619044324432
 1  1.66692101850185  0.30269091409141  0.00085472017202
 1  2.16932472467247 -4.80798462886289 -1.69469407910791
 1  0.49310110761076 -4.43938378587859 -1.21385986938694
 1 -7.97296835863586  0.39222945354535 -3.22057799599960
 1  1.25134732363236 -4.49793097279728  1.14276185278528
 1  2.72532880298030 -5.04199140364036  0.66617443234323
 1  4.40838590089009 -4.08785623782378 -1.83940740184018
 1  5.26775787418742 -2.39389824002400 -1.61874549214921
 1  4.00237167026703 -2.53981621422142 -3.24018309190919
 1  4.97695731523152 -0.33863595809581 -1.77696387208721
 1 -9.24689829032903  0.40196765226523 -0.34249693949395
 1 -10.18921705530553  0.69095051075108 -1.78907500750075
 1  3.93271795829583  3.01313469716972  3.64637940364036
 1  6.07827129532953  1.40836298549855 -2.49926874187419
 1  5.11368206800680  5.23079584378438 -0.32319093899390
 1  4.86617864036404  5.37505427112711 -2.42758530343034
 1  3.43722139173917  5.84403400980098 -1.03824556615662
 1  1.41719902800280 -7.97804896199620  1.53839989488949
 1  7.61201364576458  3.27624316421642 -3.08468574187419
 1  6.49166105360536  4.38629414161416 -2.20414276677668

