%nproc=4
%Mem=3GB
# td=(NStates=1) B3LYP/SVP 

TD

0 1
 8 -3.24209111931193 -1.51217627312731 -2.92080273457346
 8  3.17883833863386  3.10359201770177  3.23263753465347
 8  3.87366167436744  1.20794792309231  4.27528197179718
 8  7.65820442334233 -1.50853696789679 -0.67486824862486
 8  6.69309346574657 -3.15316611151115 -1.84731117921792
 8 -2.65264617111711  1.72296778587859  1.43976403690369
 7 -0.30420616681668 -2.27506382068207  0.82849769056906
 7 -2.67622966096610 -1.23465860086009 -0.66686883148315
 7  1.19316086548655  0.13879478917892 -0.70776571377138
 7 -1.01716086158616  1.49135454335434 -0.21450234813481
 6 -3.41868701840184 -1.30923848624862  0.65693266716672
 6 -2.71277990409041 -2.28701284748475  1.69012431923192
 6 -1.27639328102810 -1.96738455245525  1.80298828742874
 6 -0.49263906620662 -1.24667585928593  2.85820384088409
 6  0.76127724032403 -1.21737673867387  2.44362555715572
 6  0.89151183738374 -1.81110754545455  1.16587139113911
 6 -4.78681362796280 -1.86188183688369  0.25322220952095
 6  1.91260585198520 -0.39389971957196  3.13050520502050
 6 -4.80924728612861 -2.08201691009101 -1.06954729522952
 6  2.03667162356236 -1.85820401260126  0.30765304400440
 6  2.09648567046705 -0.88318023022302 -0.69075297679768
 6 -3.51460613051305 -1.60086205150515 -1.74750203360336
 6  3.04060512371237 -0.59212996129613 -1.81888578747875
 6 -1.26777534973497 -0.59971382838284  3.86429193749375
 6 -5.81027625172517 -1.98243472377238  1.23626463206321
 6  2.60919057595760  0.56179354755476 -2.42055666566657
 6  1.89498893129313  1.07470316231623  2.77480412201220
 6  1.45122848934894  1.08898554715472 -1.74813091909191
 6  4.23070841994199 -1.39834926402640 -2.12738236833683
 6 -5.84738907500750 -2.69291138153815 -1.94886833503350
 6  5.41622717371737 -1.12557430263026 -1.15978939583958
 6  3.16052614801480  1.12153055565557 -3.61220772997300
 6  0.57006943104310  2.16981212811281 -2.02195394049405
 6  3.07592623292329  1.79074866036604  3.54285963116312
 6 -0.60877470907091  2.29287391959196 -1.25142042994299
 6 -6.91404533103310 -3.38855261936194 -1.57694625332533
 6  6.61482105170517 -2.07978623372337 -1.38517920792079
 6 -1.48320697549755  3.54881711491149 -1.24330240494049
 6 -2.30856494589459  3.47257773677368 -0.22068997519752
 6 -2.06547882028203  2.13630456395640  0.35989492149215
 6 -1.31943192159216  4.60558681888189 -2.22499426742674
 6 -3.48355899239924  4.28069855275528  0.25369960966097
 6 -1.98049194039404  5.69049446764677 -2.29844357715772
 1 -3.45212370557056 -0.36544203410341  1.05873007760776
 1 -2.69402102850285 -3.32477760276028  1.31037138623862
 1 -3.38125794559456 -2.13601704610461  2.61943133183318
 1 -0.53109841464147 -2.68584734983498 -0.13855684568457
 1 -2.05308369806981 -0.47695399889989 -0.66120022242224
 1  1.91834979637964 -0.27613906770677  4.29420151925192
 1  2.79880721362136 -0.77372926422642  2.73582851225122
 1  2.77393620752075 -2.71527311021102  0.30835388858886
 1 -1.91309393869387 -1.42263153715371  4.36024308610861
 1 -0.72663243124312 -0.32495669926993  4.91260761726173
 1 -1.99207852165217  0.20992343904390  3.57131589688969
 1 -5.73148393559356 -1.16620475167517  2.10395468846885
 1 -5.79779854055406 -2.92202630723072  1.84733758005801
 1 -6.84476185298530 -1.80938658205821  0.95144150585059
 1  2.06865300470047  1.34810475237524  1.59598721002100
 1  0.87273722522252  1.66102834713471  3.32597057075708
 1  0.24357261486149  0.28715308510851 -0.00838287058706
 1  4.65028074727473 -1.32097515651565 -3.16614221612161
 1  4.08481931173117 -2.45628740794079 -2.09062617061706
 1 -5.67220935933593 -2.59908083268327 -3.06275973977398
 1  5.31741966326633 -1.34784526442644 -0.02820959725973
 1  5.97364880618062 -0.14372136823682 -1.44710919341934
 1  4.02236214771477  0.57547403950395 -4.07443567306731
 1  3.50951670327033  2.12137321602160 -3.56933926932693
 1  2.45312110141014  0.85303980188019 -4.41676482848285
 1  0.78029193919392  2.70457195369537 -2.98772966496650
 1 -7.24608369446945 -3.57875005890589 -0.48162718391839
 1 -7.64614287918792 -3.68306963746375 -2.35776883038304
 1  3.87616134363436  3.51548090909091  3.69619287348735
 1 -0.60507438623862  4.18677995749575 -2.98317621302130
 1 -4.10497908750875  4.47910449224922 -0.64560571207121
 1 -4.28842759245925  3.61179597319732  0.77083789518952
 1 -3.34895321152115  5.12258254935494  0.90184595449545
 1  8.46396208970897 -2.04247740194019 -0.80971160616062
 1 -1.69032195679568  6.49507996509651 -2.96680153235324
 1 -2.67947029992999  6.07578895469547 -1.45856176367637

