%nproc=4
%Mem=4GB
# td=(NStates=1) B3LYP/SVP 

TD

0 1
 8 -5.42016824682468  0.32315775537554 -3.38772856255626
 8  3.12877288278828  2.95545279998000  3.10897697609761
 8  3.36274462306231  0.66431183018302  3.07309919501950
 8  1.55162280178018 -7.03532980308031  1.74947345364536
 8  1.14374926292629 -7.30600702430243 -0.65091307420742
 8  1.70865791389139  3.86683980678068  0.13114262166217
 7 -2.34188379947995 -0.89589802000200  0.65925294189419
 7 -4.46844172557256  0.68474614111411 -1.24772312711271
 7  1.80082047364736 -0.65300687368737 -0.44539301690169
 7  2.53229877177718  1.83057880338034 -0.53048979567957
 6 -4.88497488868887  1.20827232423242  0.01106690649065
 6 -4.38907630043004  0.33703386868687  1.26043340104010
 6 -2.95301039663966 -0.04586432973297  1.39152116511651
 6 -1.96306540324032  0.58717367456746  2.12385555515552
 6 -0.66646325662566 -0.03420885638564  1.89190986858686
 6 -0.97001118891889 -0.95913897279728  0.79129094849485
 6 -6.36599895599560  1.34250203950395 -0.13378859425943
 6  0.54436304290429  0.22878355485549  2.60061908200820
 6 -6.68921943644364  0.84203345174517 -1.41157688638864
 6 -0.21034729082908 -1.98248698559856  0.13346542804280
 6  1.07381427762776 -1.88321786838684 -0.39888147034703
 6 -5.50564116441644  0.52962117681768 -2.19221653315332
 6  1.96750083528353 -2.88239877827783 -0.89740674997500
 6 -2.10913661456146  1.71009676657666  3.13610800100010
 6 -7.21746924012401  1.76071420062006  0.96739072497250
 6  3.14361069476948 -2.33693364456446 -1.31978322342234
 6  1.19376540384038  1.69455794919492  2.53062669856986
 6  2.97772584788479 -0.94803342894289 -1.00168415661566
 6  1.54978874907491 -4.29361532593259 -0.93088480538054
 6 -7.98978488448845  0.75474711231123 -2.04264265206521
 6  1.66824439003900 -4.98235917051705  0.40904690019002
 6  4.27657326632663 -2.87289575837584 -2.00610984228423
 6  3.89884075467547  0.09942934643464 -1.30622530493049
 6  2.74788540974097  1.65581316951695  2.83709960986099
 6  3.70451482928293  1.46814222572257 -1.12745931323132
 6 -9.24907989138914  0.95442760306031 -1.47110192549255
 6  1.38464352905291 -6.51030768096810  0.36262492149215
 6  4.64248308290829  2.65626238113811 -1.37998508160816
 6  3.90060932933293  3.67643816751675 -0.93473476777678
 6  2.63796536733673  3.21796964806481 -0.43824258695870
 6  5.83943754905491  2.41870671127113 -2.07677963306331
 6  4.24659027882788  5.15921079687969 -1.02508452185219
 6  6.63852390999100  3.45983166796680 -2.70892536943694
 1 -4.43288777487749  2.28529961006101  0.08142118241824
 1 -4.61302595949595 -0.62925440154015  1.17189193339334
 1 -4.78244508440844  0.87656165586559  2.12526943664366
 1 -2.85744478437844 -1.30722811831183 -0.07521444324432
 1 -3.74001499879988  0.77472939003900 -1.72194974587459
 1  0.18263269796980 -0.09719940794079  3.72528207630763
 1  1.22011602100210 -0.52884755215522  2.18664379717972
 1 -0.68894755565557 -2.95268273327333  0.05746074837484
 1 -3.23744388968897  1.84732599669967  3.24120411011101
 1 -1.49333054815482  1.29233859775978  4.00167855575558
 1 -1.77743412451245  2.60179399919992  2.67447486928693
 1 -6.47213066396640  2.27392619611961  1.90121235423542
 1 -7.72572233923392  0.92732254145415  1.53135014571457
 1 -7.87748368556856  2.67968405150515  0.82060054025403
 1  1.07501020942094  2.10701273787379  1.48412647994799
 1  0.54514762726273  2.44358118011801  3.13687951215122
 1  1.44544887128713  0.24833547854785 -0.35264062936294
 1  2.25411320352035 -4.81216504690469 -1.61709631933193
 1  0.69597139463946 -4.70451029852985 -1.32059054245425
 1 -7.79362042384238  0.36246647724772 -3.09717565576558
 1  1.26461865076508 -4.41512269196920  1.23099067566757
 1  2.79577584768477 -5.14007121162116  0.79175699059906
 1  3.94908997129713 -3.91336878907891 -2.47609107020702
 1  5.09994109250925 -3.20103895409541 -1.24646826442644
 1  4.63279471257126 -2.27720995359536 -2.81884095769577
 1  4.92268188768877 -0.21393348784878 -1.73756993269327
 1 -9.17741134163416  1.27224467996800 -0.34886757655766
 1 -10.19642777637764  0.45843725942594 -2.00115621562156
 1  4.04308899539954  2.80819420312031  3.56482124782478
 1  6.30908437663766  1.50353250245025 -2.27345616061606
 1  5.24188488828883  5.37216998119812 -0.38571719161916
 1  4.60008203070307  5.48674544024402 -1.98186073097310
 1  3.45411308090809  5.78221782818282 -0.57588933053305
 1  1.28894620272027 -8.03121427852785  1.75645170007001
 1  7.51230367476748  3.02867840774077 -3.02842011531153
 1  6.57276916441644  4.49144465666567 -2.76602895539554

