%nproc=4
%Mem=3GB
# td=(NStates=1) B3LYP/SVP 

TD

0 1
 8 -3.35840275047505 -1.64248930443044 -2.87172782708271
 8  2.83069352415242  3.18541019951995  3.33339761066107
 8  3.50533484168417  1.38962609090909  4.47932237583758
 8  7.72658126102610 -1.53735985018502 -0.68920968276828
 8  6.62941709810981 -2.98421921682168 -2.02065851395139
 8 -2.56039694619462  1.53444893399340  1.51584164466447
 7 -0.27475322152215 -2.37368368266827  0.84173901470147
 7 -2.65276731473147 -1.19218435343534 -0.72377452205221
 7  1.18506005540554  0.05783669336934 -0.77564250145015
 7 -0.84791393689369  1.44914032193219 -0.13492439033903
 6 -3.34431958165817 -1.29846740914091  0.63970094399440
 6 -2.62450107620762 -2.40262440864086  1.55069037583758
 6 -1.21589723142314 -1.96644445844584  1.76646463506351
 6 -0.51044084638464 -1.19293048474847  2.76909492999300
 6  0.87029814241424 -1.14271927292729  2.41125231983198
 6  0.90728341454145 -1.84232066676668  1.21405620962096
 6 -4.79503445004501 -1.74728037673767  0.27615450275028
 6  1.85093968536854 -0.37037736733673  3.13780593509351
 6 -4.84575093649365 -2.02917162556256 -1.02197253775378
 6  2.03704166056606 -1.94387257945795  0.26734901360136
 6  2.03093911581158 -1.04923683588359 -0.71750565206521
 6 -3.56713138303830 -1.59617158245825 -1.77092437583758
 6  3.01813287648765 -0.73183393169317 -1.83893779267927
 6 -1.17528610081008 -0.49422327932793  3.83405891419142
 6 -5.68059328342834 -2.13605008530853  1.30287129272927
 6  2.58080773767377  0.52531990019002 -2.51084569456946
 6  1.81062049444944  1.18845453745375  2.81255789738974
 6  1.36622998949895  0.97382403100310 -1.88098420442044
 6  4.26207155625563 -1.56386581568157 -2.16293592369237
 6 -5.83811814791479 -2.54142623302330 -1.88848229642964
 6  5.43774932593259 -1.08603034823482 -1.30243366026603
 6  3.26390648604860  1.11733013561356 -3.82300881008101
 6  0.58077050115011  2.04264941184118 -2.03000474557456
 6  2.74494313461346  1.96291587708771  3.63856920212021
 6 -0.53536736833683  2.32949758195820 -1.16211149904990
 6 -7.04198812531253 -3.11911567566757 -1.58896745544554
 6  6.59605917551755 -2.00663891899190 -1.32001269126913
 6 -1.36234488928893  3.58602083528353 -1.19131720642064
 6 -2.26534062346235  3.35413589258926 -0.03843174937494
 6 -2.00058233063306  2.12598353185319  0.54229316131613
 6 -1.10779075747575  4.57347360756076 -2.14105587358736
 6 -3.34105474197420  4.32636311921192  0.33806804650465
 6 -1.94963885508551  5.65765118331833 -2.46328006080608
 1 -3.16071456465647 -0.39343483338334  1.23803800840084
 1 -2.69196082248225 -3.27555268026803  1.28794914401440
 1 -3.23299311911191 -2.29839328372837  2.63053244194419
 1 -0.59387469226923 -2.82308107320732  0.00236724672467
 1 -1.81197958765877 -0.59789609310931 -1.04238834123412
 1  1.64151211261126 -0.25516697049705  4.24875697479748
 1  3.05105243814381 -0.80639253055306  2.99139406880688
 1  2.81143995789579 -2.73195477837784  0.41800485368537
 1 -2.06617924722472 -0.85780505450545  4.37320438223822
 1 -0.37529729772977 -0.28948315191519  4.56969332583258
 1 -1.33191250505051  0.66999944664466  3.53414217951795
 1 -5.32497328452845 -1.94604273547355  2.48259255225523
 1 -5.90154891559156 -3.47166127072707  1.29950279657966
 1 -6.63565094189419 -1.74266991039104  1.10276663836384
 1  2.15513165256526  1.22458240014001  1.79082669396940
 1  0.66649660116012  1.56938918321832  2.84157213091309
 1  0.31909016661666  0.22291666146615 -0.11885391769177
 1  4.61852757195720 -1.52782584158416 -3.20789639153915
 1  4.09348017781778 -2.68964074327433 -1.89243635163516
 1 -5.68319045744575 -2.20963188778878 -2.98010147394739
 1  5.16109403070307 -0.87021750165016 -0.24770154645465
 1  5.71143258455846 -0.12684968106811 -1.79370385288529
 1  3.96812672417242  0.31357784988499 -4.28287651715172
 1  3.73750950255025  2.11920299899990 -3.88675101050105
 1  2.55864165346535  1.32429692759276 -4.49873302530253
 1  0.67244115411541  2.82469396589659 -2.95490638263826
 1 -7.26315540164016 -3.49843202710271 -0.59287830903090
 1 -7.87238550345034 -3.26954828532853 -2.26025907940794
 1  3.44702843034303  3.63590295129513  3.97015026922692
 1 -0.10353423222322  4.43079435893589 -2.67787568296830
 1 -4.25247383698370  4.46896347814782 -0.42715386688669
 1 -3.79666841654165  3.94169896349635  1.16508732013201
 1 -2.75885420162016  5.29518981008101  0.37238300820082
 1  8.52751844534454 -2.02480563476348 -1.20054068906891
 1 -1.48786171077108  6.32101255835584 -3.18871372357236
 1 -2.97903025592559  5.70512188798880 -2.08542444994499

