%nproc=4
%Mem=4GB
# td=(NStates=1) B3LYP/SVP 

TD

0 1
 8 -5.49474570457046  0.31236667626763 -3.28331812151215
 8  2.96290629612961  2.97610486518652  3.35035111351135
 8  3.31344969356936  0.77180257925793  3.03619550465046
 8  1.65972361186119 -7.23615988608861  1.48043654995500
 8  0.62322721072107 -7.03740016361636 -0.56044402730273
 8  1.87167421552155  3.93458658145815  0.22538204560456
 7 -2.34797440854085 -0.95187361756176  0.61703872047205
 7 -4.45777065846585  0.52845051155116 -1.26450480528053
 7  1.90605099669967 -0.71829340234023 -0.50547902550255
 7  2.60744628652865  1.91439718521852 -0.51313806050605
 6 -4.83479987118712  1.05050654765477  0.01634743454345
 6 -4.33108050085009  0.18554872017202  1.26801415911591
 6 -2.93020811641164 -0.07228697199720  1.35076708970897
 6 -1.95363446014601  0.63001795899590  2.02853602320232
 6 -0.66487309760976  0.06043060756076  1.75518619621962
 6 -0.93718790659066 -0.97282034093409  0.77535935533553
 6 -6.32955531163116  1.19520731003100 -0.09738495389539
 6  0.57785639223922  0.25762643914391  2.46413543364336
 6 -6.79902041654165  0.91355060346035 -1.37138286698670
 6 -0.20167642374237 -1.86595533243324  0.05940802230223
 6  1.14405130133013 -1.83703324992499 -0.32637421962196
 6 -5.59448004830483  0.56958517321732 -2.16395370687069
 6  2.07249133433343 -2.92656319471947 -0.87735474477448
 6 -2.20493619451945  1.74626038293829  3.05216960716072
 6 -7.10923841704170  1.82363049224923  1.02042602850285
 6  3.19243557725773 -2.35519547074707 -1.25473671877188
 6  1.05779180648065  1.66416490989099  2.56064970087009
 6  3.06993506880688 -0.96239486508651 -1.11895588378838
 6  1.60452422262226 -4.32388835323532 -0.87053877077708
 6 -8.05464137013701  0.91612324992499 -1.92528091589159
 6  1.86835440104010 -5.10503143774377  0.51635763126313
 6  4.38087369636964 -3.00468893769377 -1.84364359565957
 6  4.09487035763576  0.05894529802980 -1.41783646604660
 6  2.59566018721872  1.73127071527153  2.84892079197920
 6  3.72420679847985  1.39941535303530 -0.98227479477948
 6 -9.28658364176418  0.78787094739474 -1.48938375367537
 6  1.19778484318432 -6.51482813301330  0.35765442444244
 6  4.59164799939994  2.62928968386839 -1.48248533163316
 6  3.91807107550755  3.69442996669667 -0.99330062436244
 6  2.69717128792879  3.34926277737774 -0.31078984168417
 6  5.78459206450645  2.52831767236724 -2.21838379347935
 6  4.25044066386639  5.17887276307631 -1.23854586798680
 6  6.69171922952295  3.47423310811081 -2.55376985388539
 1 -4.10200468656866  1.95724680478048  0.02610565086509
 1 -4.95224988188819 -0.70324180028003  1.45401014521452
 1 -4.82668950885089  0.69695369506951  2.24808171787179
 1 -2.99282832273227 -1.44978237373737 -0.16911383318332
 1 -3.53239423672367  0.68124004110411 -1.65572312321232
 1  0.56766120082008 -0.17728741674167  3.56276582468247
 1  1.23752776217622 -0.26860152755276  1.97726285908591
 1 -0.89811847274727 -2.70570803580358 -0.48687368506851
 1 -3.23715386068607  1.81433269736974  3.18303829352935
 1 -1.67215843094309  1.59162852675268  3.95256364426443
 1 -1.86106248734873  2.77667148694869  2.71846926872687
 1 -6.42890634153415  2.82390119361936  1.24947718071807
 1 -7.14830459745975  1.21189099829983  1.84793180388039
 1 -8.08789472667267  2.17826390949095  0.61361984218422
 1  1.06098880728073  2.16000803740374  1.57347541484148
 1  0.41919503200320  2.31838866086609  3.16218204240424
 1  1.74147847424742  0.21307195219522 -0.24819018431843
 1  2.33178097029703 -5.00651448184818 -1.51873648334833
 1  0.56411820932093 -4.59376922442244 -0.98194667806781
 1 -7.84560562236224  0.93504373497350 -2.96807274547455
 1  1.18111029992999 -4.48165934563456  1.30438801540154
 1  2.72347861796180 -5.14162136663666  0.98198601350135
 1  4.09062412471247 -3.99502695489549 -2.13590705180518
 1  5.26282738113811 -2.83058190839084 -1.15510912851285
 1  4.85984741784178 -2.42326455905591 -2.68897797139714
 1  5.06729634913491 -0.02000409490949 -2.20190636633663
 1 -9.41196479697970  0.69030648614862 -0.32574526432643
 1 -10.09075720932093  0.81890330603060 -2.19343544354436
 1  4.00042472897290  2.90960434413441  3.34182894859486
 1  6.12929639783978  1.39394154335434 -2.48427724272427
 1  5.38953965376538  5.17291005520552 -0.64659327922792
 1  4.44642666516652  5.31823858955896 -2.19443198809881
 1  3.48171584118412  5.75039464586459 -0.84945668726873
 1  1.19660696879688 -8.03668482558256  1.45896195109511
 1  7.63886633103310  3.04993053295330 -3.22231950525052
 1  6.69078096559656  4.46167167936794 -2.31292364486449

