%nproc=4
%Mem=3GB
# td=(NStates=1) B3LYP/SVP 

TD

0 1
 8 -3.30458736893689 -1.65610066556656 -2.91130178447845
 8  3.07302775757576  3.07963962246225  3.35576984788479
 8  3.89181348954896  1.25531265956596  4.30123456705671
 8  7.67543614651465 -1.49278539273927 -0.68678944074407
 8  6.73794795119512 -3.03613440834083 -2.01799824792479
 8 -2.64729563606361  1.59669515861586  1.46606666716672
 7 -0.25487123332333 -2.34137045134513  0.80727556835684
 7 -2.65044708270827 -1.32989812481248 -0.74853699829983
 7  1.21754330373037  0.09467037673767 -0.66505144234423
 7 -1.03893303880388  1.43556896479648 -0.31645254315432
 6 -3.30619576927693 -1.35761332373237  0.55796277017702
 6 -2.57864649074908 -2.29899404560456  1.56732203900390
 6 -1.30796643834383 -1.91977979197920  1.70435842444244
 6 -0.61949175147515 -0.99849104080408  2.73418143864386
 6  0.81031214381438 -1.13577857885789  2.45806700130013
 6  0.94133681988199 -1.81148758345835  1.23248805280528
 6 -4.74201914851485 -1.90876652535254  0.28263515081508
 6  1.94479907130713 -0.34012434203420  3.23292544704470
 6 -4.82926928832883 -2.13321202960296 -1.04889523002300
 6  2.11523948034803 -1.86947513971397  0.36571885058506
 6  2.06265228712871 -0.96926883908391 -0.70493439493949
 6 -3.58468313821382 -1.58863082838284 -1.79178646204620
 6  2.92924398759876 -0.72794354265427 -1.78460235913591
 6 -1.31936050825083 -0.39214307130713  3.82459796809681
 6 -5.68633385748575 -2.06478295859586  1.36803780938094
 6  2.48377803470347  0.48648601680168 -2.44644925492549
 6  1.91744117651765  1.14542023402340  2.87210385198520
 6  1.40643400990099  0.92256890549055 -1.75445155115512
 6  4.29445479457946 -1.51909133823382 -2.08101773187319
 6 -5.96131046714671 -2.55652774317432 -2.07650109830983
 6  5.38885443644364 -1.03373511871187 -1.13663708060806
 6  3.09820991639164  1.13455185778578 -3.62658916811681
 6  0.46524894899490  1.99729487638764 -2.08536028112811
 6  3.07363600390039  1.81172075757576  3.65707105230523
 6 -0.57950178177818  2.31367599979998 -1.24133942184218
 6 -7.11485541204120 -3.21764552865287 -1.53369192789279
 6  6.60533010261026 -1.94729298439844 -1.34758544854485
 6 -1.36742539733973  3.51794402760276 -1.21269934463446
 6 -2.30974506390639  3.42433291229123 -0.24756266246625
 6 -2.11383365576558  2.02244317781778  0.33947287928793
 6 -1.29291927032703  4.59357561776178 -2.15639740774077
 6 -3.44455509200920  4.38497898079808  0.18047228692869
 6 -1.76256014721472  5.80781619981998 -2.16993072587259
 1 -3.31728022122212 -0.26646213611361  1.10095430003000
 1 -2.74962658905891 -3.52080720572057  1.34978532763276
 1 -3.12660248004800 -2.34437788218822  2.40408979767977
 1 -0.44739004380438 -2.77503626872687 -0.11057404740474
 1 -2.04863325302530 -0.54742104560456 -0.75415951835184
 1  1.94129209060906 -0.62765421922192  4.39250134923492
 1  2.97617495039504 -0.62264415571557  2.76614154355436
 1  2.83720253415342 -2.71325290819082  0.29991304450445
 1 -2.25143777307731 -1.02251152515252  4.03732079387939
 1 -0.62021178917892  0.12474827122712  4.45084144064406
 1 -1.79026834063406  0.36365881258126  3.47140590589059
 1 -5.64235502270227 -1.37552568376838  2.39505379837984
 1 -5.52605136583658 -3.17382148674867  1.78453129942994
 1 -6.83096047284728 -2.13833947734774  1.04367072877288
 1  2.11009714911491  1.16297623952395  1.73289090039004
 1  0.86242619411941  1.69414165846585  3.06506448014802
 1  0.20806906450645  0.31344571437144 -0.10836286858686
 1  4.59107482668267 -1.51841490049005 -3.05180078197820
 1  4.27279810961096 -2.61952373157316 -1.64732184018402
 1 -5.89682182058206 -2.41809273387339 -3.09125258905891
 1  5.01436935823582 -1.14506498639864 -0.15488226452645
 1  5.63175461676168  0.12292529642964 -1.28881336383638
 1  3.94364427592759  0.50885737783778 -4.02542077157716
 1  3.54097984958496  2.03184426312631 -3.31960429582958
 1  2.41295708500850  1.27321181908191 -4.56941009300930
 1  0.68798270827083  2.81005250175018 -2.92367325932593
 1 -7.20731981808181 -3.39178136203620 -0.47480650185019
 1 -7.95081334623462 -3.60699202970297 -2.33913696719672
 1  4.02399612711271  3.69250861186118  3.41533478767877
 1 -0.74331821062106  4.37962924242424 -2.95907380278028
 1 -4.14798338793879  4.78703528532853 -0.54057520902090
 1 -4.02654140384038  3.89838463206321  1.01845265666567
 1 -2.95892420862086  5.21228151925192  0.72319808970897
 1  8.44372006550655 -2.08994214841484 -0.69089972497250
 1 -1.53435636023602  6.32183264036404 -2.89750460266027
 1 -2.45834818771877  6.23769514531453 -1.22203811131113

