%nproc=4
%Mem=4GB
# td=(NStates=1) B3LYP/SVP 

TD

0 1
 8 -5.43838006800680  0.18924436403640 -3.29526931663166
 8  3.08732873837384  2.96318357305731  3.25231130953095
 8  3.54899324792479  0.73035843484348  2.48193007810781
 8  1.74693233273327 -7.34090036013601  1.43843234953495
 8  0.78653354135414 -7.13690011361136 -0.57747573047305
 8  1.56511355945595  3.91703482628263 -0.21706219881988
 7 -2.43960357145715 -0.98222665286529  0.54705172177218
 7 -4.48287316871687  0.60890855735574 -1.19450780558056
 7  1.88763915551555 -0.73095466846685 -0.35483396099610
 7  2.54826036793679  1.82393813931393 -0.51186793349335
 6 -4.82664905610561  1.25723722072207  0.01213701350135
 6 -4.48948634143414  0.38726889218922  1.29306666436644
 6 -3.05709080468047 -0.07262700600060  1.41216322932293
 6 -1.98315741244124  0.54674963216322  2.11515468506851
 6 -0.79495610591059  0.00314487898790  1.71388206580658
 6 -1.02736692449245 -0.93695675457546  0.74220604000400
 6 -6.28215057115712  1.34610239953995 -0.13255847124712
 6  0.56092469906991  0.19214989148915  2.45978499859986
 6 -6.69619013351335  0.97254650305030 -1.34099982868287
 6 -0.16993324942494 -1.92252098899890  0.12448452995300
 6  1.24654155035504 -1.86643619021902 -0.25127670987099
 6 -5.58002860316032  0.47039525422542 -2.13204051555156
 6  1.97504158935894 -2.98430896929693 -0.79221623092309
 6 -2.07492319321932  1.69720547744774  3.03302769296930
 6 -7.13463095629563  2.05329345854585  0.96319030493049
 6  3.21953828752875 -2.35646559775978 -1.14501574667467
 6  1.17760378767877  1.48920741414141  2.49061269716972
 6  3.10422849814982 -0.89170779637964 -0.86511049924992
 6  1.63747751795180 -4.39831579597960 -0.90726244314431
 6 -8.05601150715072  0.86318795639564 -1.93161154895490
 6  1.57670523612361 -5.02427336193619  0.48061405690569
 6  4.43850945994599 -2.90035850465047 -1.81529076037604
 6  4.03726459705971  0.11020042354235 -1.19184386678668
 6  2.73619424062406  1.67370495869587  2.74146004590459
 6  3.75422980078008  1.50271568306831 -1.07680424772477
 6 -9.25340032343234  0.90027218751875 -1.26663147844784
 6  1.35111017571757 -6.58115476567657  0.33161182018202
 6  4.56892572717272  2.57962471737174 -1.34721180428043
 6  3.77835710411041  3.71348187188719 -1.02158345264526
 6  2.56179775057506  3.29091694279428 -0.52256101880188
 6  5.93848745404540  2.54732957355736 -1.93882583768377
 6  4.10193581338134  5.20726560236024 -1.18752076547655
 6  6.79802986058606  3.53498918371837 -2.19044352125213
 1 -4.24740922702270  2.33371445154515  0.12874591489149
 1 -5.13035769266927 -0.55228670477048  0.89911465566557
 1 -4.97239407930793  0.57773177287729  2.21316822652265
 1 -2.81534057395740 -1.57929532503250 -0.27826474827483
 1 -3.65217621492149  0.77093901100110 -1.65147269816982
 1  0.60930536523652 -0.11593128112811  3.48791833993399
 1  1.19616362576258 -0.39202386978698  1.94055918871887
 1 -0.61636029692969 -2.90370783578358 -0.28573357105711
 1 -3.30796094139414  1.98480974507451  3.02703269296930
 1 -1.72548376347635  1.39616898079808  4.14806319421942
 1 -1.54082046314631  2.52753657345735  2.52355977777778
 1 -6.44013746464646  3.03629243274327  1.46380861386139
 1 -7.56406617361736  1.33307311651165  1.63441045174517
 1 -7.85610154735473  2.51476755985599  0.43485196539654
 1  0.86824953335334  2.12726476307631  1.53021108840884
 1  0.89178229072907  2.36490331233123  3.09439526372637
 1  1.47974230063006  0.19775042004200 -0.22342770807081
 1  2.35529332153215 -5.17959178957896 -1.60089469916992
 1  0.64219601710171 -4.65221506900690 -1.50203868726873
 1 -8.01446250805080  0.72148237883788 -3.01131706990699
 1  0.84460664956496 -4.58770995069507  1.22982055865587
 1  2.47177344744475 -5.05248245274528  1.22528034293429
 1  4.46926198849885 -3.99946739893989 -1.80900436153615
 1  5.30587168556856 -2.70379923012301 -1.27850146774677
 1  4.76407784088409 -2.47325955855586 -2.95409448304830
 1  5.09811943144314 -0.32499459395940 -1.56165234093409
 1 -9.44382798329833  1.20197765326533 -0.27796048584858
 1 -10.32302043564357  0.73184460016002 -1.68332443244324
 1  4.12513720022002  2.87092047574758  3.04141890759076
 1  6.36814028222822  1.46840899009901 -1.94567338233823
 1  5.00482118191819  5.46210897509751 -0.80683930383038
 1  4.04044606710671  5.69433619931993 -2.22153469836984
 1  3.34701237083708  5.75817542394239 -0.76639838143814
 1  1.47893520162016 -8.26308746584658  1.29409546444644
 1  8.01466391079108  3.51054659455946 -2.27491476477648
 1  6.35270715821582  4.48042355455546 -1.92314466696670

