%nproc=4
%Mem=4GB
# td=(NStates=1) B3LYP/SVP 

TD

0 1
 8 -5.52304853485349 -0.12581714211421 -3.27154694439444
 8  3.26536654215422  2.87613486818682  3.30628670707071
 8  3.44321266986699  0.62220761976198  3.00750263536354
 8  1.69403704320432 -7.14190046014601  1.40136864316432
 8  0.56585147314731 -6.97820424402440 -0.57438542144214
 8  1.77239428752875  4.11126424922492  0.01383089048905
 7 -2.35631524262426 -0.87892632283228  0.59732674927493
 7 -4.48659354075408  0.50705837233723 -1.24644299909991
 7  1.80464085568557 -0.66476804980498 -0.37062554015402
 7  2.59827536943694  1.91739748524852 -0.61527827452745
 6 -4.85769216041604  1.13946544354435 -0.03457765796580
 6 -4.39733712651265  0.50112027732773  1.27909526722672
 6 -2.87700279587959  0.19470972767277  1.35276728972897
 6 -1.79991908860886  0.67301225842584  2.04902807240724
 6 -0.57550416071607  0.02760732523252  1.70270094769477
 6 -0.98180236803680 -0.95312837173717  0.79903172257226
 6 -6.43601595769577  1.31033882318232 -0.13851906730673
 6  0.65195380198020  0.23124380088009  2.59033805390539
 6 -6.86505702020202  0.79259850825082 -1.41228695739574
 6 -0.23083934003400 -1.91109984688469  0.21780386188619
 6  1.01658855505551 -1.80003955055506 -0.38580016221622
 6 -5.58298889918992  0.31619983468347 -2.16858416991699
 6  1.89458354355436 -2.88759929832983 -0.89288629792979
 6 -2.13156885778578  1.81502725962596  3.11004539473947
 6 -7.27899539273927  1.86265439463946  0.90136412231223
 6  3.16046237993799 -2.29775972717272 -1.26787803290329
 6  1.28350437773777  1.66004449784979  2.53905754165417
 6  2.98165624092409 -0.87369599519952 -1.16577056525653
 6  1.51139490969097 -4.29650561496150 -0.94212592949295
 6 -8.08332423842384  0.56697833543354 -2.06271465926593
 6  1.61009857545755 -5.02020295489549  0.42745874137414
 6  4.24232984198420 -2.96392486128613 -1.91430066136614
 6  3.92347321792179  0.07870727422742 -1.54968965136514
 6  2.74490511171117  1.63413100130013  2.96195209510951
 6  3.71701607940794  1.47558296979698 -1.06459302660266
 6 -9.26901188458846  0.60286244654465 -1.37360217551755
 6  1.19555462016202 -6.49625627582758  0.33757241624162
 6  4.66367520212021  2.60446720162016 -1.34583166626663
 6  3.98354762316232  3.80503102680268 -0.92215350965097
 6  2.69812138293829  3.39410726182618 -0.50065882858286
 6  5.99231283658366  2.46068090869087 -1.92152410751075
 6  4.46494211401140  5.23970884668467 -0.99420143354335
 6  6.83705376297630  3.39245493029303 -2.35235971287129
 1 -4.44465895199520  2.09576065616562 -0.20296725642564
 1 -4.87326198309831 -0.63793526962696  1.40349509370937
 1 -4.68193503340334  1.09091309100910  2.07877478717872
 1 -2.85887492739274 -1.38573596909691 -0.17689461126113
 1 -3.48250924822482  0.63514543164316 -1.56886443734373
 1  0.27689212391239  0.08455876787679  3.59617916601660
 1  1.39342335173517 -0.55155982338234  2.33881901470147
 1 -0.60435909680968 -2.88555602060206 -0.04706970467047
 1 -3.25250539583958  1.69599086318632  3.49707969766977
 1 -1.64060527562756  1.84707407130713  4.10786917481748
 1 -1.83375975707571  2.67552137193719  2.88173559535954
 1 -6.68938238913891  2.66299510301030  1.21163339633963
 1 -7.53855362236224  1.03009281848185  1.73521053175318
 1 -8.28680461766177  2.42976906000600  0.55770425062506
 1  1.28942165056506  2.07268930553055  1.53707177447745
 1  0.89528264076408  2.58740556255626  2.95919174337434
 1  1.48698302470247  0.24783542854285 -0.38318368366837
 1  2.20648844104410 -4.86210004040404 -1.47714232393239
 1  0.50120191769177 -4.33664351185119 -1.44433291669167
 1 -7.88593965576558  0.18207843844384 -3.12838877707771
 1  0.95220740964096 -4.45719689938994  1.25548312491249
 1  2.77270354045404 -5.13562076657666  0.55393320822082
 1  4.03748881118112 -4.24055150735073 -2.11763522462246
 1  5.16521762016202 -2.70106895709571 -1.32465608320832
 1  4.42379381248125 -2.70637286988699 -3.13071214481448
 1  4.91274089358936 -0.12895498999900 -2.00657683338334
 1 -9.04432803330333  0.81266872237224 -0.21971466126613
 1 -10.22293042664266  0.30137155285529 -1.88714481448145
 1  4.26355104160416  2.65382876657666  3.45813057875788
 1  6.36366983518352  1.54867701690169 -2.26494530953095
 1  5.32265296509651  5.42175493969397 -0.36926554645465
 1  4.49700172267227  5.70319708540854 -2.00707325222522
 1  3.60668833843384  5.77397700410041 -0.67235897749775
 1  1.47056436453645 -8.12866402350235  1.36712276717672
 1  7.75428787318732  3.17484302420242 -2.90128740204020
 1  6.64340622812281  4.42291780398040 -2.25009736223622

