%nproc=4
%Mem=4GB
# td=(NStates=1) B3LYP/SVP 

TD

0 1
 8 -5.39087531753175  0.09107454705471 -3.30253004270427
 8  2.98876888238824  2.86021327602760  2.97339341774177
 8  3.26640498909891  0.64714011301130  3.35776766186619
 8  1.40366800630063 -7.05622189228923  1.59350785708571
 8  0.75077996599660 -7.01701812541254 -0.65878386128613
 8  1.77534458255826  3.93068619141914  0.02949245664566
 7 -2.31150076117612 -0.94519294949495  0.53037005360536
 7 -4.46319120052005  0.57038470497050 -1.31718007280728
 7  1.87773816541654 -0.62759433243324 -0.39688816641664
 7  2.71922746464647  1.91648739423942 -0.55012175887589
 6 -4.71702809400940  1.16550804780478 -0.02000620082008
 6 -4.33680107290729  0.29222938823882  1.14824218191819
 6 -2.84929002460246 -0.01875161846185  1.33965597859786
 6 -1.98619771647165  0.64462942014201  2.14933810341034
 6 -0.69678628892889  0.05003956845685  1.83989466706671
 6 -0.91825601340134 -0.87438049694970  0.81044286368637
 6 -6.26463881998200  1.28480626992699 -0.12470768616862
 6  0.64018262486249  0.24322499899990  2.53416243634363
 6 -6.70522103660366  0.83213246164616 -1.34756048474847
 6 -0.11994825092509 -1.86927566446645  0.21799388088809
 6  1.18180507670767 -1.79383893049305 -0.27577916011601
 6 -5.57285788608861  0.43775198989899 -2.09255656715672
 6  1.95722980818082 -2.92019255765577 -0.97745475477548
 6 -2.17306300720072  1.63991974887489  3.24332872307231
 6 -7.10962845604560  1.86867499669967  0.93881786768677
 6  3.07987432113211 -2.35234518571857 -1.38747999309931
 6  1.10297632493249  1.67015550895090  2.63361699759976
 6  3.03483155845585 -0.86081470707071 -1.11110509870987
 6  1.62160593079308 -4.26390235463546 -0.90169188608861
 6 -7.98717462346235  0.81281291889189 -1.93938232603260
 6  1.65808337393739 -5.03493442804280  0.41902789828983
 6  4.18944455345535 -3.06249471827183 -2.09361859315932
 6  3.99961083168317  0.07257666116612 -1.34095877827783
 6  2.58205882708271  1.61110869906991  3.00897679757976
 6  3.79344372217222  1.52076748824882 -1.11418798609861
 6 -9.19886486988699  0.68671083138314 -1.33799861516152
 6  1.22142720742074 -6.50866751695169  0.35349400840084
 6  4.58238707330733  2.60388714361436 -1.42587967106711
 6  3.89325859425943  3.71038156185619 -1.04884617891789
 6  2.61884345514551  3.28098594969497 -0.45680444314431
 6  5.87668127342734  2.55026986758676 -2.11817377247725
 6  4.21239685948595  5.22754763056306 -1.21388340174017
 6  6.80905096269627  3.44891057585759 -2.45402987988799
 1 -3.94480896699670  2.14344542464246 -0.00135709540954
 1 -4.70752540944094 -0.71317279337934  1.07443218741874
 1 -4.74235107500750  0.64756875657566  1.99758666836684
 1 -2.71173021292129 -1.60831822732273 -0.31370829262926
 1 -3.55508650595059  0.49835175227523 -1.68341589248925
 1  0.53486792149215  0.02504281628163  3.55274482258226
 1  1.49164317371737 -0.26345101250125  2.17500263306331
 1 -0.46951561246125 -3.04994245924592  0.30661566386639
 1 -3.16775692099210  1.79740100420042  3.24734472417242
 1 -1.83892510761076  1.55172453635364  4.36763515141514
 1 -1.81886826792679  2.61400522032203  3.02199962176218
 1 -6.52489594049405  2.34696349984998  1.75255748874888
 1 -7.43680344734473  1.10089989918992  1.48819583028303
 1 -7.93898983618362  2.36574265736574  0.54228270847085
 1  0.76727943634363  2.23205524212421  1.76670473777378
 1  0.49786289878988  2.36799362136214  3.33592941714171
 1  1.62617694409441  0.26559720472047 -0.13002836813681
 1  2.19226701890189 -4.58478230863086 -1.77342195189519
 1  0.47726952445245 -4.37216706420642 -1.26973545694569
 1 -7.94128519031903  0.67797802840284 -3.12758869706971
 1  0.99735192409241 -4.16398757845785  1.28006558315832
 1  2.68992526262626 -5.15741294579458  0.91896971187119
 1  4.19907496979698 -4.05205265746575 -2.13522698379838
 1  5.20766186458646 -2.94376322652265 -1.31733535113511
 1  4.50384181728173 -2.63603583618362 -3.06570564416442
 1  4.85848546804680 -0.29435152965297 -1.82178835453545
 1 -9.45039864036404  0.44166162166217 -0.31946463626363
 1 -10.10587872147215  0.68329974567457 -1.94205030503050
 1  4.05848053455346  2.97086046974698  3.06336110181018
 1  6.38373184138414  1.54883703290329 -2.52191100610061
 1  5.16541724152415  5.61341410561056 -0.67386600650065
 1  4.25493751625162  5.59162592829283 -2.16540908580858
 1  3.50357802740274  5.91012061846185 -0.73581532313231
 1  0.94205151325133 -7.87349850695069  1.49242529742974
 1  7.65064750915092  3.07774331423142 -3.04766203950395
 1  6.89059094659466  4.59794530673067 -2.10854320682068

