%nproc=4
%Mem=3GB
# td=(NStates=1) B3LYP/SVP 

TD

0 1
 8 -3.28733564376438 -1.36413146864686 -2.83623427772777
 8  3.03651410621062  3.16863852235224  2.97628189908991
 8  3.52002631083108  1.41950907920792  4.57017146074607
 8  7.80162876577658 -1.60220633483348 -0.59781054285429
 8  6.59540369676968 -3.20394118901890 -1.75274172227223
 8 -2.65481638813881  1.56130161926193  1.34356441694169
 7 -0.26348209440944 -2.27283359765977  0.76449128992899
 7 -2.72239427742774 -1.16956209120912 -0.57903004760476
 7  1.18765031443144  0.07360827052705 -0.86829176637664
 7 -0.94529367486749  1.40081548944895 -0.26718761666167
 6 -3.35159030873087 -1.35337289968997  0.71430840474047
 6 -2.66223484958496 -2.42246639283928  1.68144345114511
 6 -1.19354499619962 -2.07202501650165  1.74544253285329
 6 -0.53505330763076 -1.29051024272427  2.76142416291629
 6  0.90316142874287 -1.18949395039504  2.48020921552155
 6  0.98765145134513 -1.93270970567057  1.18600340434043
 6 -4.78760370697070 -1.90155580428043  0.29300618791879
 6  1.89165375677568 -0.41275160476048  3.16188834333433
 6 -4.77584394579458 -2.06157486588659 -1.06883722422242
 6  2.06269422582258 -1.82551074327433  0.22091437013701
 6  2.13082910481048 -0.81315322752275 -0.73607750925093
 6 -3.54196886678668 -1.51886385168517 -1.69582686608661
 6  3.12982404560456 -0.58744949324932 -1.86062996189619
 6 -1.28756732893289 -0.60360421742174  3.89328483678368
 6 -5.92145736983698 -2.05943242354235  1.28762976857686
 6  2.63962361926193  0.52346971517152 -2.60005461546155
 6  1.93103253565357  1.01148684068407  2.73775041664166
 6  1.37616098259826  0.98658530713071 -1.81465757175718
 6  4.28655400450045 -1.35643507260726 -2.08232786288629
 6 -5.82103643974397 -2.40296238663866 -1.90902435063506
 6  5.51924747574757 -1.08528027322732 -1.25304872177218
 6  3.29872996839684  1.17579598219822 -3.78187469666967
 6  0.59339176327633  2.07788293519352 -2.13247499259926
 6  2.89204784508451  1.93455304080408  3.55361070627063
 6 -0.61242507410741  2.31123575577558 -1.26173146104610
 6 -6.96952087858786 -3.13566733083308 -1.46300485918592
 6  6.63556312591259 -2.07592584768477 -1.24660535053505
 6 -1.50766942174217  3.48491072427243 -1.20654872957296
 6 -2.25363945334533  3.39067954695470 -0.16214412061206
 6 -1.94270654305430  2.04674560806081  0.46440537253725
 6 -1.31466144454445  4.63828008820882 -2.15158692669267
 6 -3.31129176567657  4.27560804370437  0.38858309800980
 6 -2.20679457065707  5.71929734793479 -2.33904763756376
 1 -3.21990048324832 -0.44412990289029  1.18232243684368
 1 -2.81423304970497 -3.47510263526353  1.31910225932593
 1 -3.12763258305831 -2.44964840924092  2.75928531723172
 1 -0.51703700850085 -2.86472523762376  0.02459946994699
 1 -1.97473586328633 -0.45791209470947 -0.87674177657766
 1  1.99352731413141 -0.52075352915292  4.32712481158116
 1  2.79758709160916 -0.75033692499250  2.84497942734273
 1  2.53314212811281 -2.91614319721972  0.13179623282328
 1 -1.94980761006101 -1.51001027502750  4.38490555235524
 1 -0.61194096209621 -0.24204840844084  4.55672202870287
 1 -2.12508182198220  0.12540498719872  3.36094485978598
 1 -5.68549933713371 -1.50316844804480  2.15159945294529
 1 -5.77719648034803 -3.07560166476648  1.75699854615462
 1 -6.90390776757676 -1.90291593499350  0.85875223692369
 1  1.98687482688269  0.88119806170617  1.56904451575158
 1  0.95907585908591  1.49256150045004  2.88947692139214
 1  0.43777203480348  0.27413178297830 -0.17674970727073
 1  4.56074179337934 -1.44586764576458 -3.26147174907491
 1  4.01779260906091 -2.55897767696770 -2.12098920692069
 1 -5.67307944634463 -2.27357828242824 -3.04943840764076
 1  5.27506542784278 -0.92802328222822 -0.28087486378638
 1  5.79638107940794  0.09193219711971 -1.57101158365837
 1  4.11370128162816  0.71407789988999 -4.16416464596460
 1  3.67891364296430  2.13981506020602 -3.33531586698670
 1  2.42766855615562  1.62535703360336 -4.54663781578158
 1  0.95377928792879  2.99102059855986 -2.72607349934993
 1 -7.39218830493049 -3.63378556245625 -0.49883890509051
 1 -7.85913417831783 -3.37282861336134 -2.16735978947895
 1  3.51973570107011  3.48600796179618  3.66766002020202
 1 -0.62398627742774  4.42600387988799 -2.77052494789479
 1 -4.16881547114711  4.23130971277128 -0.24759591109111
 1 -3.82495124482448  3.85402019561956  1.43477428882888
 1 -3.02307062326233  5.25037532863286  0.63419918981898
 1  8.28564425792579 -2.64183733793379 -0.77456809180918
 1 -1.98285120972097  6.26186664376438 -3.29184403660366
 1 -3.10974332723272  6.12752412821282 -1.80577648514851

