%nproc=4
%Mem=3GB
# td=(NStates=1) B3LYP/SVP 

TD

0 1
 8 -3.14594150435043 -1.33233828932893 -2.75304595889589
 8  2.80655110991099  3.12587424592459  3.27389166006601
 8  4.09470377857786  1.24317144544454  3.96229067266727
 8  7.73180178307831 -1.63253936813681 -0.62305306710671
 8  6.52123628002800 -2.98815961086109 -1.97374382248225
 8 -2.64800570707071  1.64348983808381  1.39464952545255
 7 -0.27728347454745 -2.33944025832583  0.97002184298430
 7 -2.60261229922992 -1.23726886188619 -0.57373951855186
 7  1.08676022542254  0.11365227492749 -0.77013195039504
 7 -1.03489263476348  1.46715212311231 -0.27009790769077
 6 -3.34566971667167 -1.48366592899290  0.66500347424742
 6 -2.62687131323132 -2.54385853205321  1.60314562136214
 6 -1.34038968066807 -1.99700751475148  1.88470645924592
 6 -0.58847865016502 -1.21854304600460  2.89086710721072
 6  0.72159327192719 -1.11622662366237  2.50808200280028
 6  0.95420810701070 -1.81034746944694  1.30154495849585
 6 -4.63147809440944 -2.04105975467547  0.27881476877688
 6  1.92689728112811 -0.42286261586159  3.12031418591859
 6 -4.65159152055205 -2.05543425182518 -1.13261360186019
 6  2.07156511291129 -1.80199839203920  0.30785306400640
 6  2.01511753365337 -0.86086799899990 -0.63058696019602
 6 -3.37929259915992 -1.50465243054305 -1.67223450685068
 6  3.00505156835684 -0.59261000930093 -1.77678157705771
 6 -1.36390496269627 -0.56186004300430  3.90863637193719
 6 -5.69069429352935 -2.20046652695269  1.23898490409041
 6  2.47498715561556  0.45785315351535 -2.46129073907391
 6  1.74032346474647  1.11446713871387  2.91960860246025
 6  1.31928529502950  1.01812846144614 -1.85036114211421
 6  4.27263261236124 -1.36840626972697 -2.03596322642264
 6 -5.83031736783678 -2.47179927032703 -1.96830027822782
 6  5.53355890689069 -1.12408415361536 -1.04321773867387
 6  3.22924301970197  0.99874827742774 -3.77796430563056
 6  0.34914733883388  1.95166031293129 -2.13782552765277
 6  3.00339898019802  1.76811639713971  3.47301264646465
 6 -0.64445827742774  2.25233986618662 -1.36633192109211
 6 -6.96890081658166 -3.04311807590759 -1.68676723542354
 6  6.60929049864987 -1.93032128722872 -1.36972766276628
 6 -1.45253390819082  3.55708794199420 -1.32310038473847
 6 -2.33410750015002  3.42285276427643 -0.25329323552355
 6 -2.04127640004000  2.06829776327633  0.37266619861986
 6 -1.29640961936194  4.60694695489549 -2.25513728172817
 6 -3.23904454095410  4.41184166706671  0.41277551725173
 6 -1.94454834603460  5.75802122032203 -2.36478021082108
 1 -3.32559105230523 -0.52873836373637  1.18732293689369
 1 -2.67248887528753 -3.38413353835383  0.90611096019602
 1 -3.25498531833183 -2.66104954935494  2.53502289098910
 1 -0.46162146694669 -2.91860062516252  0.11551856185619
 1 -2.14594298399840 -0.44231053455346 -0.58623272567257
 1  1.80658862026203 -0.50497195099510  4.23054515361536
 1  2.80374770767077 -1.02043393469347  2.91487641704170
 1  2.83992280618062 -2.57317890079008  0.39713276647665
 1 -1.97813044234423 -1.18117739173917  4.27263432523252
 1 -0.64108387638764 -0.28811301490149  4.60600695719572
 1 -1.95199451325133  0.37545999269927  3.57381614691469
 1 -5.52407319451945 -1.72208033923392  2.31662595559556
 1 -5.99362812351235 -3.27676178077808  1.70469331563156
 1 -6.80869824662466 -2.00289593299330  0.77568393009301
 1  1.80579671907191  1.39442938483848  1.85910352165216
 1  0.91014096559656  1.75062730703070  3.49386736043604
 1  0.25786404400440  0.40304467426743 -0.21598363066307
 1  4.77551327052705 -1.20987404640464 -2.96596219811981
 1  4.10928175797580 -2.42541432063206 -2.04530163816382
 1 -5.33748588698870 -2.15744666926693 -2.89494295809581
 1  5.19977789908991 -1.41922240214021  0.01731495519552
 1  5.63833527482748  0.01333433733373 -1.03170765326533
 1  3.88766867836784  0.10801729382938 -4.04848307780778
 1  3.69998575017502  1.94762584128413 -3.37795013041304
 1  2.30534632393239  1.00656515441544 -4.40555370737074
 1  0.66085999599960  2.74682617911791 -2.81743263526353
 1 -7.46667575367537 -3.11802398629863 -0.55630465166517
 1 -7.73165143004300 -2.98998032853285 -2.58332138563856
 1  3.56617034453445  3.37172653365337  3.87211046524652
 1 -0.72335621442144  4.27681896139614 -3.14909280468047
 1 -4.05712430203020  4.68586516831683 -0.29572072357236
 1 -3.68064681438144  3.94741953555356  1.14085489688969
 1 -2.80869918611861  5.50561085218522  0.98960473037304
 1  8.50272596609661 -2.22461561576158 -0.83642427742774
 1 -1.65547847244724  6.39224968206821 -3.21605645784578
 1 -2.69652200510051  6.10477185298530 -1.66796270377038

