%nproc=4
%Mem=4GB
# td=(NStates=1) B3LYP/SVP 

TD

0 1
 8 -5.50413664366437  0.17015245484548 -3.36480627032703
 8  3.10148015351535  2.72358961366137  3.21577765616562
 8  3.44280262886289  0.56377177617762  2.93204508960896
 8  1.66799443894389 -7.00925719581958  1.66122462876288
 8  0.94388927692769 -7.20985740934093 -0.48815679857986
 8  1.79691673977398  3.86982010481048  0.30371987938794
 7 -2.37979759085909 -0.95050348054805  0.61311832843284
 7 -4.46470135153515  0.54969263576358 -1.30295865066507
 7  1.73679407100710 -0.60584215721572 -0.45107358495850
 7  2.61109665156516  1.89373511901190 -0.47263401010101
 6 -4.79621601280128  1.14156565356536 -0.01988618881888
 6 -4.40066745954595  0.40807097239724  1.23953131083108
 6 -2.88312340794079  0.08647890459046  1.41946395939594
 6 -1.92052114881488  0.60454541174117  2.16088925852585
 6 -0.76334294459446 -0.05667110261026  1.85097577517752
 6 -1.04159834763476 -0.99339239813981  0.91155297469747
 6 -6.32610496659666  1.31449923922392 -0.20826604200420
 6  0.66983559015902  0.11004168066807  2.55093411351135
 6 -6.67418793329333  0.98200744914491 -1.45736146484648
 6 -0.19961621772177 -1.95046378327833  0.27550963246325
 6  1.04502139833983 -1.85272481908191 -0.39205078727873
 6 -5.49573017331733  0.41448966366637 -2.22947025852585
 6  1.94034812001200 -2.88323886228623 -0.92597960726073
 6 -2.24586028692869  1.64427018391839  3.20537492769277
 6 -7.02625011821182  2.00573870307031  0.86511049694969
 6  3.09073540724072 -2.24998494969497 -1.40589183428343
 6  1.24183021032103  1.57171566496650  2.57826146204620
 6  2.97138521382138 -0.88671729732973 -1.05589957815782
 6  1.49593336353635 -4.31344730913091 -0.87613933083308
 6 -7.93711961796180  0.85188682628263 -2.11027941574157
 6  1.75040260586059 -5.07359829442944  0.40713670917092
 6  4.20276588558856 -2.94631310011001 -1.97819705100510
 6  3.93669454005401  0.12985238873887 -1.28442312471247
 6  2.69040966216622  1.48670625882588  2.93310921082108
 6  3.71074545234523  1.44541995349535 -1.12824939223922
 6 -9.22315729912991  0.88767092739274 -1.51822663796380
 6  1.39510457515752 -6.53507015721572  0.50295895489549
 6  4.58682751735174  2.74539129402940 -1.45246232933293
 6  3.89694896329633  3.78562908660866 -0.97085838013801
 6  2.65358692949295  3.30675852695270 -0.36556531923192
 6  5.82006561186119  2.55853069366937 -2.20773272837284
 6  4.21818743854385  5.22740761656166 -1.14959697309731
 6  6.56579663726373  3.59978566336634 -2.71679615651565
 1 -4.38009249534953  2.17174825492549  0.18417145744574
 1 -4.92298695559556 -0.56876835293529  1.24834957915792
 1 -4.71955879577958  0.86529052875288  2.11003791349135
 1 -2.80483952385238 -1.49906730223022  0.00565364356436
 1 -3.52647364466447  0.68185010211021 -1.77763531443144
 1  0.59483391809181 -0.08401808980898  3.66639618771877
 1  1.46849085848585 -0.53275794319432  1.92997813061306
 1 -0.39700836173617 -3.26270373537354  0.25566056835684
 1 -3.34301444674467  1.61893315741574  3.50066005570557
 1 -1.50715193029303  1.41353071697170  4.18852724062406
 1 -2.08159454055405  2.66943076287629  2.83245066686669
 1 -6.24727817871787  2.75357416091609  0.99837207020702
 1 -7.03129289628963  1.33589339853985  1.78695570627063
 1 -8.29611554875487  2.43572965606561  0.46592507270727
 1  1.16329903830383  2.25673771037104  1.62803087038704
 1  0.61982509500950  2.13757057905791  3.46586241044104
 1  1.59292361876188  0.56785743074307 -0.26720208550855
 1  2.07742553475348 -4.94736856725673 -1.74116872657266
 1  0.49017081458146 -4.46427627512751 -1.23585206860686
 1 -7.66297735953595  0.78310854145415 -3.14657059525953
 1  1.28043023192319 -4.64311549124912  1.38407598419842
 1  2.90507677777778 -4.81784898939894  0.66007382228223
 1  4.04204926722672 -4.11275872807281 -1.98380184128413
 1  5.14088518691869 -2.96857570777078 -1.19442305990599
 1  4.43619505260526 -2.44383661626163 -2.95376445004500
 1  4.73117273677368 -0.32566466096610 -1.82792896859686
 1 -9.53162676317632  0.80752820832083 -0.45404809460946
 1 -10.16450458405841  0.89198061376138 -1.85235133513351
 1  4.02813750025002  2.70623400710071  3.39749451515151
 1  6.25998946714671  1.54416656585659 -2.52097091209121
 1  5.34852555235523  5.31389415361536 -1.10551917181718
 1  4.16033805630563  5.45576234193419 -2.24399694459446
 1  3.56291396099610  5.69474908130813 -0.63272501410141
 1  1.58816612471247 -8.10332148924893  1.77493354825483
 1  7.50550299469947  3.39062460236024 -3.20696797009701
 1  6.18161004850485  4.67498301050105 -2.60081243374337

