%nproc=4
%Mem=4GB
# td=(NStates=1) B3LYP/SVP 

TD

0 1
 8 -4.96648287828783  0.47878331793179 -3.33519330903090
 8  3.10960096559656  2.91552880758076  3.14876095449545
 8  3.44716306490649  0.76035143414341  2.79296118121812
 8  1.96446408590859 -7.22529879998000  1.32386089238924
 8  0.81354624262426 -7.14893131673167 -0.51473945684568
 8  1.66336338443844  3.85002812561256  0.22058156555656
 7 -2.38729834093409 -0.85773420362036  0.63915093169317
 7 -4.20126500790079  0.77824549104910 -1.17906626142614
 7  1.62475286688669 -0.78793036603660 -0.49070754835484
 7  2.41703724562456  1.88217396289629 -0.46140288698870
 6 -4.75886227742774  1.21609310631063  0.09156495629563
 6 -4.36214360716072  0.31486165146515  1.31565892359236
 6 -3.02129722532253  0.07343760046005  1.44255626862686
 6 -1.93368246494649  0.73676863406341  2.18611178077808
 6 -0.69764637493749  0.07428199269927  1.85931660926093
 6 -1.02866705450545 -1.05202826172617  0.96301812121212
 6 -6.18878123422342  1.33766155545555 -0.16157137253725
 6  0.60180878747875  0.27503818031803  2.57752677277728
 6 -6.51052156665667  0.90641989038904 -1.44851057975798
 6 -0.25275153125313 -2.04458319521952  0.33558564006401
 6  0.99748664486449 -1.97094664126413 -0.20040162236224
 6 -5.25052565286529  0.60851906660666 -2.12578989048905
 6  1.88361244644464 -2.95103564196420 -0.78126513581358
 6 -2.22844854575458  1.73076883378338  3.19553394359436
 6 -7.06714420762076  1.74930305950595  0.90553453935394
 6  3.01501783548355 -2.41162111331133 -1.24288553365337
 6  1.18648467576758  1.73077157055706  2.69168280418042
 6  2.91559963526353 -0.94072269786979 -1.07879186738674
 6  1.53445721592159 -4.36582254665467 -0.91007272417242
 6 -7.76871277727773  0.76807844544454 -2.14385277307731
 6  1.93154071967197 -5.15391632623262  0.38820481598160
 6  4.16626223522352 -3.10985945474547 -1.86569580088009
 6  3.69271014161416  0.09910931443144 -1.39015369776978
 6  2.63251387258726  1.70805839403940  2.86042194209421
 6  3.53389776757676  1.44188960046005 -1.11304787208721
 6 -9.10072505590559  0.91203336363636 -1.59492430773077
 6  1.41920698539854 -6.57942459265927  0.33154181318132
 6  4.45210404500450  2.55581233613361 -1.61325840894089
 6  3.69200846924692  3.73330385408541 -1.17462875717572
 6  2.43185475627563  3.27255510661066 -0.38662742544254
 6  5.77871147644764  2.47156199679968 -2.18164011911191
 6  4.01952757255726  5.15508038383838 -1.20858287168717
 6  6.63556361396140  3.49156484128413 -2.40256473337334
 1 -4.12803728982898  2.19726080618062  0.40281332163216
 1 -4.95973062996300 -0.56823829992999  1.13943868806881
 1 -4.66045288518852  0.89355335503550  2.23458036773677
 1 -2.92780182008201 -1.50854825032503 -0.05836275807581
 1 -3.45117611491149  0.78568048514851 -1.73006055695570
 1  0.39627406210621 -0.14383407140714  3.64773432153215
 1  1.32628663806381 -0.45464013141314  2.26539167196720
 1 -1.00507916881688 -2.92328979397940  0.15168017031703
 1 -3.32254239953995  1.83654491859186  3.30439042874287
 1 -1.70621183628363  1.56546591049105  4.07432582048205
 1 -1.95342172327233  2.86029984978498  2.91465888768877
 1 -6.58414186508651  2.30202900640064  1.74459669266927
 1 -7.64271403840384  0.91005081428143  1.44518152885289
 1 -7.95083102030203  2.47755383848385  0.46669514971497
 1  1.02565527392739  2.15935797239724  1.82002006930693
 1  0.58609172167217  2.39789661166117  3.49280510471047
 1  1.32282660906091  0.24958560356036 -0.25681104640464
 1  1.95773356555656 -4.79890372077208 -1.83149775947595
 1  0.44238603610361 -4.64839468696870 -1.08640712411241
 1 -7.75628669046905  0.42201243184318 -3.29647558575858
 1  1.55249743864386 -4.72830401010101  1.28471604820482
 1  3.01284755485549 -5.28422562706271  0.47637545244524
 1  3.99684474677468 -4.13307075927593 -1.82455591669167
 1  4.97419851825183 -2.70034888508851 -1.29014263186319
 1  4.44535596869687 -2.90095232783278 -2.89948902250225
 1  4.51291091059106 -0.07402949744975 -1.94402057775778
 1 -9.16714031453145  1.16015347084708 -0.54910760056006
 1 -9.97716585018502  0.89465088078808 -2.27423352335233
 1  4.13055774227423  2.66839022272227  3.19286405210521
 1  6.26367983618362  1.54726687588759 -2.38298711371137
 1  4.92821352115211  5.50676344054405 -0.72191081098110
 1  4.23954597709771  5.48747551325132 -2.39863240814081
 1  3.08917658725873  5.79485909230923 -0.84856659825983
 1  1.65369267736774 -8.31564272137214  1.14957101200120
 1  7.67647009140914  2.94563010291029 -2.77115438873887
 1  6.42805469296930  4.63918943114311 -2.35779813231323

