%nproc=4
%Mem=3GB
# td=(NStates=1) B3LYP/SVP 

TD

0 1
 8 -3.35722263246325 -1.33769882538254 -2.88784943924392
 8  3.04310476527653  3.19990164866487  3.44097836873687
 8  3.70139444764476  1.39828695699570  4.64821926552655
 8  7.80028863176318 -1.62417853205321 -0.91199196099610
 8  6.77804196059606 -3.00542133703370 -2.17224367246725
 8 -2.55277618411841  1.69249473857386  1.46284634513451
 7 -0.25104085028503 -2.31880819511951  0.90498533933393
 7 -2.78672071007101 -1.21968710371037 -0.64177632223222
 7  1.08869041844184  0.03216412611261 -0.79971490869087
 7 -1.08219736523652  1.39299470737074 -0.28795969386939
 6 -3.48486363606361 -1.34958252065207  0.68247522142214
 6 -2.62570119621962 -2.34358850505050  1.53868917571757
 6 -1.17414305600560 -1.96771458545855  1.73704169276928
 6 -0.59377918021802 -1.19070026172617  2.76374439493949
 6  0.71198231083108 -1.10941594259426  2.55081627622762
 6  0.96816950315032 -1.83237967266727  1.28627343134313
 6 -4.72724767136714 -1.96985263396340  0.31429831713171
 6  1.80530512191219 -0.40289061866187  3.29943209770977
 6 -4.88040440184018 -2.13294200260026 -1.06394673517352
 6  2.20595855225523 -1.79300749294929  0.36384866356636
 6  2.09163518541854 -0.90009192139214 -0.69057295879588
 6 -3.60651532143214 -1.56613857915792 -1.73650093349335
 6  3.06929799299930 -0.67465821412141 -1.79800369926993
 6 -1.41447001920192 -0.50714457145715  3.75344085238524
 6 -5.84952017611761 -2.16757323762376  1.31787279287929
 6  2.58056771367137  0.50006737493749 -2.52145675567557
 6  2.02322175457546  1.16258195019502  2.82507914951495
 6  1.36199956645665  0.91233788238824 -1.88806491249125
 6  4.20402575167517 -1.45621505060506 -2.03043267336734
 6 -5.96794113021302 -2.52095418581858 -1.96903035123512
 6  5.48317386838684 -1.13011475667567 -1.14202761966197
 6  3.26173626902690  1.25483388598860 -3.63217972717272
 6  0.59241166526653  2.04908005490549 -2.05139688478848
 6  3.02058069836984  1.85856544204420  3.75137048224823
 6 -0.58048187978798  2.35124975717572 -1.23300858875888
 6 -7.01115504200420 -3.36199996409641 -1.56398495719572
 6  6.59958952855286 -2.05009326442644 -1.54608529852985
 6 -1.41190984578458  3.41864409760976 -1.25537361206121
 6 -2.26914100350035  3.44420489948995 -0.20878878507851
 6 -2.04214648704870  2.04811574507451  0.41013994599460
 6 -1.17356733513351  4.47505376557656 -2.24395616361636
 6 -3.34291492799280  4.36241672457246  0.23487772747275
 6 -1.85796968816882  5.59771518971897 -2.46742047484749
 1 -3.48054654785479 -0.29616510641064  1.14500870547055
 1 -2.81473309970997 -3.44011913691369  1.05751610071007
 1 -3.12599241904190 -2.22457590199020  2.55382477117712
 1 -0.33009831463146 -2.85698446354635 -0.02827581758176
 1 -2.31724011371137 -0.21926823032303 -0.48599270167017
 1  1.65387334873487 -0.37140859465947  4.32337443654365
 1  2.87446477937794 -0.82115400670067  3.25586051545154
 1  2.88402721662166 -2.72291387428743  0.23543659685969
 1 -2.16032866216622 -1.09418869286929  4.05297235903590
 1 -1.00537030503050  0.00412620902090  4.55314167066707
 1 -2.05456477027703  0.15014746144614  3.06990575587559
 1 -5.54989577677768 -1.48575670687069  1.98242253525353
 1 -5.61130989168917 -3.23514761936194  1.65573842014201
 1 -6.94827220402040 -1.91580722412241  0.96037239893989
 1  2.53291943134313  1.21549149104911  1.87307491879188
 1  1.07897784928493  1.61377362166217  2.82809078277828
 1  0.26606486408641  0.13450782058206 -0.07290932323232
 1  4.46135185438544 -1.27616067506751 -3.08638424032403
 1  3.96679750955095 -2.72819459865987 -1.87981508950895
 1 -5.84488662706271 -2.19254017861786 -2.94731819561956
 1  5.25547346864687 -1.30299077897790 -0.09660643694369
 1  5.90477191849185 -0.18768576467647 -1.27504198669867
 1  3.92062197369737  0.52272876497650 -4.25775400490049
 1  3.89665541714171  2.09321039973997 -3.12593492889289
 1  2.34682047134713  1.79074357225723 -4.23295644764476
 1  0.77627153715372  2.72491398789879 -2.92123301530153
 1 -6.96669575567557 -3.82271445534553 -0.52152117331733
 1 -7.74409267416742 -3.53755508600860 -2.29580263376338
 1  3.89854358185819  3.58687804880488  4.22283553775378
 1 -0.54923880268027  4.20162144164416 -3.08428632403240
 1 -3.99730832043204  4.56169275107511 -0.54991614311431
 1 -3.77658640834083  3.83738853245325  1.09275008640864
 1 -3.04068238443844  5.40476076717672  0.23865963586359
 1  8.63768946244624 -2.16973012721272 -1.31060169516952
 1 -1.68295121972197  6.44470492759276 -3.22771762396240
 1 -2.88995134803480  5.75439681548155 -1.98826473397340

