%nproc=4
%Mem=3GB
# td=(NStates=1) B3LYP/SVP 

TD

0 1
 8 -3.48921583178318 -1.37869292479248 -2.94115476977698
 8  3.22465292009201  3.05114677317732  3.13787805870587
 8  3.87190149834983  1.20084721302130  4.36730117371737
 8  7.66378498139814 -1.40390650485049 -0.54821558335834
 8  6.74374853125313 -2.96364715961596 -1.89014546264626
 8 -2.83931483798380  1.51876736583658  1.34803486398640
 7 -0.21302704890489 -2.39182549684969  0.85381022182218
 7 -2.74119615761576 -1.19729486448645 -0.63818596319632
 7  1.19274082348235  0.15209611931193 -0.74050898809881
 7 -1.05307445294529  1.37757316521652 -0.21303220112011
 6 -3.43322847254725 -1.27385494789479  0.68007498139814
 6 -2.51317994409441 -2.27996214241424  1.64482978977898
 6 -1.13181882358236 -1.94231204520452  1.70063805240524
 6 -0.48279808210821 -1.24450564226423  2.84279229972997
 6  0.85854696729673 -1.20440544154415  2.45020621522152
 6  1.04752743894389 -1.83978041274127  1.19204400840084
 6 -4.76634158075808 -1.91567721642164  0.34570145744574
 6  1.98439303070307 -0.42358268786879  3.24224637913791
 6 -4.88847520892089 -2.03338204660466 -1.02567290779078
 6  2.08379633603360 -1.75814400660066  0.33688596729673
 6  2.18297431933193 -0.77533944614461 -0.64755865736574
 6 -3.58184285418542 -1.60206217151715 -1.69394667806781
 6  3.03938500170017 -0.65554630293029 -1.82699659855986
 6 -1.28072664486449 -0.52271612861286  3.85518102640264
 6 -5.77859308340834 -2.07016349664966  1.35557656325633
 6  2.56937659455946  0.43281064926493 -2.60343495349535
 6  2.07130656305631  1.02176786878688  2.76189283088309
 6  1.27170053655366  0.88587523612361 -1.83102920892089
 6  4.33565891499150 -1.48805823492349 -1.87743737383738
 6 -6.00383471957196 -2.37481957235724 -1.95731918011801
 6  5.44011956295630 -0.99280102530253 -1.10052346924692
 6  3.12510260566057  1.13105150775078 -3.83464997419742
 6  0.45693811791179  2.00695584248425 -1.96440818591859
 6  3.18413705400540  1.69035862136214  3.55961130633063
 6 -0.62147597919792  2.32239687188719 -1.23820910881088
 6 -7.14214814131413 -3.10704446854685 -1.75941450015001
 6  6.61217078667867 -1.90845910101010 -1.22255294529453
 6 -1.38364701950195  3.44102633583358 -1.25711378607861
 6 -2.44616870627063  3.28533901290129 -0.25796370257026
 6 -2.16168844124412  2.02389332283228  0.43951288328833
 6 -1.26641662006201  4.62386864706471 -2.25565733373337
 6 -3.53013364986499  4.21435191809181  0.14064830453045
 6 -1.81286517771777  5.71143656185619 -2.32406613941394
 1 -3.50923941714171 -0.13063855375538  1.03616782138214
 1 -2.59026065246525 -3.50961608660866  1.32464281338134
 1 -2.98078789858986 -2.39393283768377  2.66849623832383
 1 -0.43870917571757 -2.85735450055006 -0.08320131013101
 1 -2.14249263896390 -0.42684898839884 -0.82019612201220
 1  1.46014397579758 -0.03284473827383  4.35442754185418
 1  2.95456278917892 -0.79957184848485  3.02970790019002
 1  2.72693150705070 -2.71123270617062  0.26943999719972
 1 -1.88048067736774 -1.04481375537554  4.32271933373337
 1 -0.36015578357836 -0.14540874447445  4.44015037153715
 1 -1.86301561536154  0.27697014371437  3.32751151645165
 1 -5.86589737693769 -1.37475560676068  2.26676096909691
 1 -5.64402316301630 -3.13303740834083  1.57152999929993
 1 -6.60463784058406 -1.85740138353835  0.89077543924392
 1  2.23007914731473  1.04905484738474  1.71739935123512
 1  1.06406635813581  1.43244548884888  2.85534350805081
 1  0.40027828542854  0.30930530033003 -0.15880791309131
 1  4.75590130933093 -1.37065012401240 -2.81373697559756
 1  3.96199702950295 -2.42168394759476 -1.89276638463846
 1 -5.89272141054105 -2.06072699729973 -3.03861732553255
 1  5.48252617391739 -0.91239171907191  0.05362858655866
 1  5.74859630093009 -0.06812380848085 -1.42340682318232
 1  4.29054896639664  0.74817130923092 -3.98371660116012
 1  2.99121487308731  2.29801087978798 -3.69762209760976
 1  2.43692948224822  0.78854335223522 -4.80962411441144
 1  0.68367227722772  2.63777527402740 -2.98496938893889
 1 -7.57878696479648 -3.56257844174418 -0.85179420062006
 1 -7.73658192309231 -3.51592292279228 -2.64666772027203
 1  3.94047777527753  3.46181554255426  3.78255150935093
 1 -0.43415729452945  4.36783806330633 -2.89612750815081
 1 -4.02625121472147  4.49345592739274 -0.56771792329233
 1 -3.99380813051305  3.65454024762476  0.87126793819382
 1 -3.12026034223422  5.25187547864787  0.61328709860986
 1  8.20717641114111 -2.25538869306931 -0.63258389338934
 1 -1.68372129672967  6.32193265036504 -3.13650850305031
 1 -2.55686803970397  5.84842621842184 -1.80227613511351

