%nproc=4
%Mem=4GB
# td=(NStates=1) B3LYP/SVP 

TD

0 1
 8 -5.35510174017402  0.05744118371837 -3.24658444814481
 8  2.94643464896490  2.98640589528953  3.39077515591559
 8  3.31711005960596  0.79144454345435  3.23007489258926
 8  1.41768940844084 -7.06846311641164  1.57434594089409
 8  0.59923481148115 -7.08726515011501 -0.54956293919392
 8  1.78478552665267  4.03517664046405  0.05026453385339
 7 -2.35124473557356 -0.92600103030303  0.61671868846885
 7 -4.44018890029003  0.52394006050605 -1.32576093089309
 7  1.92885327692769 -0.58675024802480 -0.54146262386239
 7  2.63837937983798  1.82861860736074 -0.52720946764676
 6 -4.88006439763976  1.07767926492649  0.04660045984598
 6 -4.40863825662566  0.19782994829483  1.27486484418442
 6 -2.96920201580158 -0.04430417371737  1.39372138513851
 6 -1.99672876957696  0.59968492569257  2.11455462506251
 6 -0.65738234853485  0.20166473097310  1.65440611821182
 6 -0.94234842264226 -0.94704776367637  0.71432325172517
 6 -6.33048540464046  1.25736352565257 -0.13307852325233
 6  0.56986559315932  0.28967964446445  2.47057607770777
 6 -6.65701621612161  0.88200744914491 -1.41461719041904
 6 -0.19189544564456 -1.82113084998500  0.02005408690869
 6  1.10707760396040 -1.74481402800280 -0.37293887608761
 6 -5.44135473577358  0.39091730643064 -2.10747805930593
 6  1.96368045324532 -2.80586112451245 -0.98419542884288
 6 -2.15364106500650  1.66542229912991  3.20786517671767
 6 -7.18553604680468  1.67790591979198  1.04297828372837
 6  3.16247258095810 -2.28966891809181 -1.33920516561656
 6  1.22639866716672  1.67431592499250  2.62368600450045
 6  3.17965604090409 -0.90596922252225 -1.00611459965997
 6  1.54805857605761 -4.35605156955696 -0.99294101100110
 6 -7.96107201320132  0.81827346494649 -1.95835422322232
 6  1.65986355195520 -5.01096203080308  0.36147214271427
 6  4.32413802280228 -3.01578004680468 -1.85849508080808
 6  4.01662253285328  0.07810721422142 -1.36459114151415
 6  2.61603222442244  1.70326791499150  3.09308520842084
 6  3.79930430823082  1.43606901840184 -1.13536010331033
 6 -9.17505248864886  0.82189434973497 -1.29195401070107
 6  1.15960102480248 -6.49628627882788  0.33518217721772
 6  4.68965780038004  2.56133288818882 -1.50963804690469
 6  3.93395266366637  3.72911343504350 -1.09912120642064
 6  2.66250782158216  3.30799865096510 -0.43786254895490
 6  5.86408001330133  2.44631947254726 -2.28570052515252
 6  4.24847046684669  5.16311118691869 -1.19097111051105
 6  6.81095115271527  3.42415810061006 -2.49725420232023
 1 -4.45461994809481  2.05477655775578  0.10341338163816
 1 -4.75120977787779 -0.94930640674067  0.87322206640664
 1 -5.04670151005101  0.54416841654165  2.10721763146315
 1 -2.73159219911991 -1.35993338883888 -0.30875779757976
 1 -3.22298329562956  0.24862677977798 -1.68996654755476
 1  0.56615104980498 -0.35394508250825  3.44577412551255
 1  1.32422643204320 -0.41042570997100  1.97461259405941
 1 -0.60076873777378 -2.63672113711371 -0.32526752445245
 1 -3.20572071737174  1.77292855695570  3.53691368106811
 1 -1.74333554865487  1.08031739563956  4.14376276417642
 1 -1.80145652675268  2.54092791259126  2.85418284008401
 1 -6.91077452835284  2.67279608310831  1.56022825582558
 1 -7.52515228222822  0.73727353655366  1.66568357905791
 1 -8.10459639683968  2.25361144424443  0.76915539573957
 1  1.17323003140314  2.02396443304330  1.61904997229723
 1  0.80502361486149  2.32095891789179  3.11924774897490
 1  1.85868019441944  0.46937758275828 -0.14877024232423
 1  2.05777356955696 -4.69012284268427 -1.83687829752975
 1  0.65449724722472 -4.40071991949195 -1.40875935933593
 1 -7.96103716551655  0.77679791039104 -3.12217815601560
 1  1.03480566946695 -4.49592077177718  1.23894147074707
 1  2.73724999509951 -4.89378658315832  0.66008382328233
 1  4.09255431773177 -4.11882933513351 -2.51987544864486
 1  5.19531062946295 -3.30742959315932 -1.07086070367037
 1  5.05633706680668 -2.35450768336834 -2.67313638723872
 1  5.06909652915292 -0.01679377387739 -1.61409758545855
 1 -9.46363996449645  0.94049150465047 -0.37909059885989
 1 -9.87757589118912  0.72604402010201 -1.79268536853685
 1  3.86389107560756  2.91664504820482  3.67066183188319
 1  5.91231469966997  1.34635678487849 -2.71738055305531
 1  5.10102080188019  5.65954871907191 -0.75604422432243
 1  4.27620964346435  5.44684144984499 -2.41137368226823
 1  3.41221889148915  5.73594320072007 -0.58198994059406
 1  0.91875918401840 -7.94128528562856  1.45596165106511
 1  7.62101454585459  3.20549608950895 -3.09255652895290
 1  6.62780466796680  4.48373388558856 -2.07851020352035

