%nproc=4
%Mem=3GB
# td=(NStates=1) B3LYP/SVP 

TD

0 1
 8 -3.41253816401640 -1.26951200670067 -2.90855150945095
 8  3.15202565736574  3.13001465996600  3.13235750665066
 8  3.77782209040904  1.32441957025703  4.30886533013301
 8  7.79078768166817 -1.60403651785179 -0.52628339013901
 8  6.75221937833783 -3.01501229612961 -1.96089253735374
 8 -2.75857676417642  1.62503799289929  1.46378643914391
 7 -0.25348109430943 -2.48636495079508  0.88626346714671
 7 -2.73932597059706 -1.21487662266227 -0.67769991459146
 7  1.21400294969497  0.09114002370237 -0.67360229742974
 7 -1.05126427192719  1.43819922782278 -0.09666056395640
 6 -3.45234038373837 -1.30507807020702  0.65673264716472
 6 -2.71173980008001 -2.22289643584358  1.64787009380938
 6 -1.24127976967697 -1.90225803980398  1.70135812441244
 6 -0.53572337463746 -1.07091828352835  2.70460848134813
 6  0.87008812141214 -1.23757875887589  2.43518471307131
 6  0.96450913711371 -1.97477391209121  1.25249005300530
 6 -4.74491943854385 -1.90523617231723  0.25698258555856
 6  1.91529612101210 -0.40647097669767  3.11425357985799
 6 -4.85465182658266 -1.98958766716672 -1.12508284878488
 6  2.06335429182918 -1.94612280448045  0.33032531123112
 6  2.10036605850585 -0.88090000220022 -0.66516041754175
 6 -3.62473714361436 -1.45897786308631 -1.66508379177918
 6  3.03286434963496 -0.63008375667567 -1.77441134003400
 6 -1.29412798499850 -0.43693755075508  3.76154166246625
 6 -5.77138236233623 -2.17571405170517  1.33198420402040
 6  2.57796745364536  0.47137450565057 -2.44760937093709
 6  1.96114554695470  1.10753644564456  2.61703834543454
 6  1.36739010551055  0.87590423902390 -1.78245435143514
 6  4.29762511161116 -1.50549997909791 -2.10406003610361
 6 -5.91210554665467 -2.50839292969297 -1.90550399859986
 6  5.54148969997000 -1.03943568876888 -1.16284970187019
 6  3.12465256065607  1.20713911651165 -3.67237374657466
 6  0.50572299639964  1.96024117101710 -1.95334707980798
 6  3.07865650595059  1.85424501000100  3.44836018121812
 6 -0.63172700430043  2.27521215341534 -1.15174046194619
 6 -6.94299822632263 -3.35811957605761 -1.77128568726873
 6  6.68910848044804 -1.97840609570957 -1.35999668966897
 6 -1.41808046284628  3.45409764296430 -1.23062113681368
 6 -2.37635172457246  3.38904938393839 -0.12851075727573
 6 -2.10480275267527  2.04419535303530  0.54903383538354
 6 -1.27450742914291  4.59287554775478 -2.17703947194719
 6 -3.42367300380038  4.35664614751475  0.26179041874187
 6 -1.96454034523452  5.67484290249025 -2.45952968576858
 1 -3.47466595979598 -0.38653414331433  1.17218142274227
 1 -2.82414404080408 -3.32559768476848  1.35313566266627
 1 -3.48512833263326 -2.12334577897790  2.64610399909991
 1 -0.33037834263426 -3.24274303940394 -0.02143513351335
 1 -2.10062845254525 -0.36641294479448 -0.80970507290729
 1  1.75553351475148 -0.45467692149215  4.13016511561156
 1  2.84165149804980 -0.86707859915992  3.18661359075908
 1  2.92340115401540 -2.74053563646365  0.29744279747975
 1 -1.70901353065307 -1.16914618861886  4.30538760056006
 1 -0.72866263426343  0.04320011641164  4.55285164166417
 1 -1.93155246904691  0.23753620032003  3.10691945724572
 1 -5.89772055925593 -1.30318845004500  2.01466575957596
 1 -5.39178793949395 -3.19676378097810  1.92580542684268
 1 -6.76980435723572 -2.41864750815082  0.76691305300530
 1  2.32168830823082  1.05845578747875  1.57299491079108
 1  1.03788373987399  1.57621986628663  2.85023299699970
 1  0.45262351995200  0.09393376317632  0.14696266396640
 1  4.45865158435844 -1.19923298229823 -3.25139074097410
 1  4.01511234103410 -2.58936071527153 -1.75511261926193
 1 -5.83581571997200 -2.22755367996800 -2.98154161796180
 1  5.52003992529253 -1.09527000690069 -0.23396017231723
 1  5.87763920522052 -0.03828082418242 -1.29534401690169
 1  3.77267717921792  0.55278177027703 -4.30317854735474
 1  3.79700545214522  2.07931901060106 -3.14776711211121
 1  2.46583237253725  1.58243274117412 -4.24407755975597
 1  0.35013892389239  2.67720921742174 -2.77923881588159
 1 -7.10023911001100 -3.64003618751875 -0.71802082328233
 1 -7.82296056095610 -3.54424575507551 -2.61793484698470
 1  3.73964769226923  3.53791315231523  3.77581083528353
 1 -0.50729460826083  4.20580185968597 -2.82934082948295
 1 -4.50873946354635  4.40300688248825 -0.47499865136514
 1 -3.76550530023002  4.05875066866687  1.29767057845785
 1 -2.98069638583858  5.37498778987899  0.36845261516152
 1  8.43377907140714 -2.23337649184918 -0.75307594259426
 1 -1.63682660726073  6.45679613671367 -3.03059791199120
 1 -2.98099045194519  6.00850222602260 -1.80025593309331

