%nproc=4
%Mem=4GB
# td=(NStates=1) B3LYP/SVP 

TD

0 1
 8 -5.36848307830783 -0.14263882428243 -3.16630642034203
 8  3.26022602810281  2.74458171287129  3.10974705310531
 8  3.50007835643564  0.57281268026803  2.82652453755376
 8  1.57112475197520 -7.21362763286329  1.53554206050605
 8  0.95989087708771 -7.21032745634563 -0.61913989688969
 8  1.53172022012201  4.00235335813581  0.04370387778778
 7 -2.30702031313131 -0.80337876807681  0.57168418501850
 7 -4.32398728012801  0.66878454495450 -1.26098445324532
 7  1.81770216181618 -0.71422299529953 -0.26665514311431
 7  2.47925346724672  1.88633437893789 -0.41461820852085
 6 -4.75654204540454  1.30792228922892 -0.08608280848085
 6 -4.32282967576758  0.56535670097010  1.19155651335134
 6 -2.85541063666367  0.12608286498650  1.31956396939694
 6 -1.90815991269127  0.64827978517852  2.12761593119312
 6 -0.66830344064406  0.03810837533753  1.81239191679168
 6 -0.96151033883388 -0.95042810171017  0.77729954935494
 6 -6.25636799289929  1.41680947024702 -0.24833004840484
 6  0.60392899949995  0.18606928342834  2.53035205530553
 6 -6.64102461696170  0.86010525892589 -1.39141487018702
 6 -0.27275353145315 -1.99601833873387  0.18230031153115
 6  1.04454135033503 -1.86044559115912 -0.27875945814581
 6 -5.43511411171117  0.27573578827883 -2.08854616611661
 6  1.96763084828483 -2.83398393679368 -0.79698670797080
 6 -2.01700740164016  1.75518127502750  3.17253164336434
 6 -7.11969946314631  1.95711384058406  0.82638662456246
 6  3.04499083278328 -2.25467541874187 -1.24644588968897
 6  1.29450547784778  1.55578407180718  2.55059869576958
 6  3.00394847014701 -0.81562018761876 -0.93466745494549
 6  1.47960173037304 -4.36130209460946 -0.93465518241824
 6 -7.95679158515852  0.65916755435544 -2.00493888168817
 6  1.70663822942294 -5.16474740934093  0.44685068056806
 6  4.19108471747175 -2.99496796559656 -1.98889812111211
 6  3.94265513611361  0.14071347484748 -1.36006068846885
 6  2.81983260446045  1.51256884508451  2.84408030793079
 6  3.65442982078208  1.44665007650765 -1.03964053135314
 6 -9.19195417881788  0.95480764106411 -1.52909772507251
 6  1.28683374807481 -6.58517516771677  0.41774043304330
 6  4.47741657625763  2.69021577647765 -1.34924200730073
 6  3.77742701110111  3.81319184288429 -0.95245653995400
 6  2.50095166596660  3.32431028212821 -0.36383514621462
 6  5.76938054335434  2.48177301790179 -2.14804675977598
 6  4.09045466526653  5.22469734553455 -0.99422143554355
 6  6.54410446804680  3.56143182798280 -2.50160463736374
 1 -4.14734922102210  2.34267534763476 -0.20438739843984
 1 -4.86677133403340 -0.34442591869187  1.07692243644364
 1 -4.67581442134213  1.41029502920292  1.89710662036204
 1 -2.63225226512651 -1.25970336583658 -0.18612553435344
 1 -3.31095209250925  0.76186810391039 -1.92616016691669
 1  0.38141257595760 -0.37682737073707  3.52458200630063
 1  1.31737574697470 -0.54857952535254  2.23744887768777
 1 -0.98275693659366 -2.88848631363136 -0.34543954165417
 1 -3.01997214251425  2.00516178027803  3.50993098279828
 1 -1.59553076817682  1.55780514441444  4.13650203810381
 1 -1.49408578967897  2.82460628042804  2.73180060186019
 1 -6.66411986288629  2.60117892139214  1.45487772077208
 1 -7.33172293929393  1.33669347854785  1.53212022272227
 1 -8.02374831203120  2.55387147024702  0.42062054225423
 1  1.27519022742274  2.08183021962196  1.52388045534553
 1  0.86532964546455  2.34301112311231  3.08885470967097
 1  1.43384771117112  0.21845249024902  0.13393802850285
 1  1.94500229242924 -5.09230306070607 -1.74236884658466
 1  0.31017281478148 -4.29337918541854 -1.29821830523052
 1 -7.96462752455245  0.03704393499350 -2.94068000620062
 1  1.39540172907291 -4.58386956665666  1.16926450305031
 1  2.71741801190119 -5.11426863136314  0.82155997089709
 1  3.85547060936094 -4.06926437863786 -1.99361282238224
 1  5.11959305770577 -2.77402625282528 -1.40960457805781
 1  4.43092452555256 -2.59010124272427 -2.97012608620862
 1  4.98449806930693 -0.19321141564156 -1.71696787248725
 1 -9.62940654115412  1.23765122062206 -0.54854754455446
 1 -10.08635676927693  0.75053646934694 -2.30321642164216
 1  4.25666035253525  2.74679806350635  3.15965073077308
 1  6.19458292649265  1.51579372857286 -2.33739255425543
 1  4.93014371417142  5.54622738693869 -0.36746536643664
 1  4.33658568106811  5.71480824652465 -1.83683622852285
 1  3.09691736133613  5.80390999739974 -0.69366110771077
 1  1.13497080518052 -8.20764192129213  1.46201225612561
 1  7.51399384378438  3.58150369026903 -2.83058033133313
 1  6.50001188868887  4.67340285248525 -2.37423977647765

