%nproc=4
%Mem=4GB
# td=(NStates=1) B3LYP/SVP 

TD

0 1
 8 -5.21034726472647  0.15429086868687 -3.29183897359736
 8  3.06957696319632  2.77299455415542  3.28924500290029
 8  3.47572592119212  0.60543594259426  2.89927181228123
 8  1.51761940144014 -7.09021529162916  1.64700320662066
 8  0.54650953895390 -7.00515693929393 -0.41541952485249
 8  1.63509055715572  4.10612373517352 -0.04707520012001
 7 -2.27700731183118 -0.98071650185018  0.63700071667167
 7 -4.37830271167117  0.47994566106611 -1.20269862466247
 7  1.73231362296230 -0.59500107310731 -0.44902337993799
 7  2.59269481138114  1.92337808330833 -0.48667541424142
 6 -4.79628601980198  1.08353985098510  0.03610941074107
 6 -4.39719711251125  0.19732989828983  1.32422978067807
 6 -2.89504460006001  0.00222047874787  1.45589760276028
 6 -1.95649474617462  0.57809276647665  2.14496766636664
 6 -0.71412802310231  0.00769533403340  1.89644032163216
 6 -0.95520970877088 -0.92316537543754  0.82671449084908
 6 -6.36198855495550  1.31360915021502 -0.21012622802280
 6  0.62542114871487  0.16410708720872  2.62591161126113
 6 -6.60330084458446  0.86778602700270 -1.46652238093809
 6 -0.08767502360236 -1.88396713361336  0.18840092159216
 6  1.14081097729773 -1.77695724232423 -0.29887146934693
 6 -5.36562716301630  0.45405362006201 -2.08249556105611
 6  1.88243232843284 -2.83323386178618 -0.93421043034303
 6 -2.18305400630063  1.61309706660666  3.17197158735874
 6 -7.12964045724573  1.95656378557856  0.89405339123912
 6  3.03806013971397 -2.27044699589959 -1.39824106920692
 6  1.20906693399340  1.55616410981098  2.60100373627363
 6  2.92762083738374 -0.86801542714271 -1.05375936413641
 6  1.51350512071207 -4.32272823722372 -1.01218293519352
 6 -7.85337124312431  0.79661129872987 -2.10593898169817
 6  1.71075864146415 -5.06553748834884  0.29581557705771
 6  4.23644925392539 -2.88513698249825 -2.02583181448145
 6  3.94355522612261  0.13386278977898 -1.25699038143814
 6  2.66633725492549  1.50873846204620  2.83636953685369
 6  3.68189256705671  1.50735614711471 -1.09205577287729
 6 -9.02511749514952  0.64742690299030 -1.47126194149415
 6  1.23796886158616 -6.46601325152515  0.42070072907291
 6  4.55923475807581  2.64118087298730 -1.49975705880588
 6  3.91871113951395  3.76783730743074 -1.05420671497150
 6  2.50477204800480  3.36925477657766 -0.56148491119112
 6  5.84016762206221  2.47174201480148 -2.21086304140414
 6  4.26902252205221  5.23484836063606 -1.07452946634663
 6  6.73464352195220  3.47460314511451 -2.48282275917592
 1 -4.37651213731373  2.01461254135414  0.15358839913991
 1 -5.03727838473847 -0.57646912301230  1.41001574577458
 1 -4.61381822172217  1.09117311701170  2.16463337303730
 1 -2.72219125902590 -1.59921731723172 -0.03464038583858
 1 -3.41852284958496  0.62542445954595 -1.62217976887689
 1  0.35705013971397  0.02273258525853  3.69915946404641
 1  1.25610962036204 -0.61159582698270  2.06483161596160
 1 -0.62107076797680 -2.84420188518852 -0.06430142784278
 1 -3.13555370067007  1.93730499459946  3.16361635133513
 1 -1.75732694779478  1.36698606250625  4.15671405930593
 1 -1.67848422952295  2.54902872267227  2.86762418421842
 1 -6.30666411731173  2.67302610611061  1.53421565456546
 1 -7.39019878687869  1.11613142234223  1.84939194989499
 1 -8.11660759795980  2.29763584668467  0.57017549774977
 1  1.11866457485749  2.04122615921592  1.58794686198620
 1  0.94689780228023  2.30437725972597  3.37308313251325
 1  1.49617394379438  0.40320096509651 -0.16952231753175
 1  2.04164195639564 -4.81279510991099 -1.93328793849385
 1  0.44674647214721 -4.41490133763376 -1.22715119851985
 1 -7.92675373717372  1.03920415101510 -3.13544948314832
 1  1.28593078197820 -4.42530371007101  1.24989256585659
 1  2.93002927302730 -5.13896110061006  0.52587040194019
 1  4.23622868516852 -4.05737318951895 -1.98336179727973
 1  5.21143224162416 -2.60682953315332 -1.27046066366637
 1  4.49212064516452 -2.62538477107711 -3.03365243884389
 1  4.88704832433243 -0.18103019751975 -1.71056723242324
 1 -9.10695429592959  0.48130558605861 -0.47741043084308
 1 -10.07308544214421  0.94618603430343 -2.15165126512651
 1  3.93733842034203  2.90615399909991  3.44724949064907
 1  6.12267573577358  1.47145929512951 -2.56721553655365
 1  5.11400210001000  5.69985274947495 -0.59817843774377
 1  4.41647366986699  5.43632039773977 -2.25483802870287
 1  3.47425509510951  5.65915552195219 -0.72263400500050
 1  0.95344265236524 -8.12751390849085  1.50867692259226
 1  7.52809525392539  3.32252779267927 -2.98367564086409
 1  6.51955384288429  4.68156366856686 -2.09387173967397

