%nproc=4
%Mem=4GB
# td=(NStates=1) B3LYP/SVP 

TD

0 1
 8 -5.25602183218322  0.15273071267127 -3.31906169586959
 8  2.84764476997700  2.96420367506751  3.39971605000500
 8  3.37396574517452  0.83604900390039  2.92331421652165
 8  1.80595823532353 -7.23307957805781  1.55873437973797
 8  0.71845673367337 -7.09141556515651 -0.39348733163316
 8  1.55491253935394  4.03415653845385 -0.01760225282528
 7 -2.30165977707771 -1.05997442764276  0.55475249184918
 7 -4.20707558895890  0.74364203070307 -1.27052540734073
 7  1.72529292089209 -0.76628820182018 -0.53298177577758
 7  2.49076461836184  1.93883962946295 -0.49739648634863
 6 -4.63436982818282  1.26980847784778  0.04027982778278
 6 -4.30035742854285  0.23514367966797  1.22031938963896
 6 -2.88075317091709 -0.05597534083408  1.38271028402840
 6 -1.84794389108911  0.51782673987399  2.11091426102610
 6 -0.67126373667367 -0.11114655015502  1.84616529412941
 6 -0.93065725352535 -1.11235429432943  0.79085090449045
 6 -6.15320767686769  1.52676046534653 -0.21546676207621
 6  0.59465807240724  0.08681935843584  2.58334735483548
 6 -6.55637615211521  1.00316956535654 -1.36682241094109
 6 -0.26809306540654 -2.10038877577758  0.12018409990999
 6  1.06816371257126 -1.90188973557356 -0.43838542074207
 6 -5.25613621392139  0.59409762446245 -2.13743105460546
 6  1.84052813801380 -2.85230576897690 -0.97489449874987
 6 -2.09373507440744  1.56861261816182  3.18801319151915
 6 -7.01748924212421  2.03810193939394  0.94995898179818
 6  3.08647498119812 -2.38799875107511 -1.40699194429443
 6  1.09133516081608  1.54528302170217  2.74556819271927
 6  3.09047712301230 -0.94783340894089 -1.15113910211021
 6  1.58619238943894 -4.46311227562756 -0.95124684158416
 6 -7.87258316431643  0.80044168176818 -1.97535592339234
 6  1.67339490509051 -5.07975891049105  0.52433842934293
 6  4.28227383638364 -2.99034750355036 -1.96939617091709
 6  3.88444931553155  0.12773217671767 -1.42423710611061
 6  2.51383200440044  1.71889947814781  2.99352525242524
 6  3.55946032383238  1.56547195869587 -1.03043961126113
 6 -9.07574255765577  0.95294745504550 -1.39507432273227
 6  1.34065913061306 -6.61989864006401  0.46799545854585
 6  4.44781361596160  2.64233098799880 -1.54436151925193
 6  3.78821809020902  3.78638916261626 -1.11570286458646
 6  2.48619018981898  3.41502935403540 -0.50317908060806
 6  5.69152275757576  2.48934377497750 -2.09173112821282
 6  4.21597721752175  5.20360523632363 -1.27134914831483
 6  6.63033309090909  3.44625030983098 -2.40780525742574
 1 -3.99282376847685  2.05435651575158  0.15873891419142
 1 -4.92333699059906 -0.55762723882388  1.04695944014401
 1 -4.68614545444545  0.90704470417042  2.07877478717872
 1 -2.75119415931593 -1.87019441494149 -0.05202212401240
 1 -3.26342734003400  0.74394631173117 -1.55009256015602
 1  0.27131156585659 -0.18957864586459  3.40323987208721
 1  1.42724673407341 -0.58565323272327  2.11215634843484
 1 -0.74150281118112 -3.16813427842784 -0.10143514121412
 1 -3.21774191949195  1.69156042014201  3.52476246594659
 1 -1.59890110521052  1.15613497739774  4.06629501740174
 1 -1.67771415251525  2.67203102290229  3.13040046184618
 1 -6.41997544844484  2.50333913741374  1.82067430043004
 1 -7.73610337733773  1.32956276547655  1.75610262096210
 1 -7.61505744294429  2.83871995509551  0.54801328152815
 1  1.07995070347035  1.89895193179318  1.57338540584058
 1  0.38992210471047  2.06759358135814  3.45425124932493
 1  1.39063338973897  0.11512215721572 -0.31325669096910
 1  2.24320211241124 -4.96181001140114 -1.60003461316132
 1  0.48087988548855 -4.64899474697470 -1.42496097949795
 1 -7.83586464826483  0.65243547414741 -3.02692863106311
 1  0.96741893079308 -4.47606878657866  1.31730930753075
 1  2.78727499759976 -5.02581978647865  0.91193900880088
 1  4.45198026032603 -4.14423187538754 -1.81056451755176
 1  5.18836993539354 -2.68324717491749 -1.31725534313431
 1  4.32635406850685 -2.75778801140114 -3.09989906350635
 1  4.81915153465347 -0.12001409590959 -1.97825400110011
 1 -9.24867846834684  1.07294474997500 -0.37176986678668
 1 -9.87481561516152  0.91589300500050 -2.08240434043404
 1  3.79249393589359  2.82743612731273  3.33764853055306
 1  5.83891735993599  1.47291944114411 -2.56446526152615
 1  5.03426412621262  5.61047381158116 -0.60272889278928
 1  4.61480350285029  5.61931869756976 -2.24882742764276
 1  3.34119178877888  5.95924553095309 -0.65362710431043
 1  1.57005431353135 -8.15259641674167  1.50696675157516
 1  7.57991043544354  3.22467800770077 -2.89285655895590
 1  6.29565145264526  4.61182669486949 -2.28936128862886

