%nproc=4
%Mem=3GB
# td=(NStates=1) B3LYP/SVP 

TD

0 1
 8 -3.29319622982298 -1.24525958145815 -2.81451210551055
 8  3.20100055485549  3.15901756025603  2.96336060696070
 8  3.71949625782578  1.28553568186819  4.24364880848085
 8  7.79826842974297 -1.60210632483248 -0.76624738653865
 8  6.66402055845585 -2.99120991589159 -2.13932038013801
 8 -2.68637954445445  1.63881937103710  1.33651371187119
 7 -0.33013876007601 -2.42815913021302  0.92031687248725
 7 -2.68727076507651 -1.17155229022902 -0.63830597519752
 7  1.10214176357636  0.02196310601060 -0.62153709090909
 7 -1.02010115561556  1.51585699359936 -0.23629452735274
 6 -3.36898204790479 -1.38834639703970  0.60676765066507
 6 -2.67477610371037 -2.33221736793679  1.69024433123312
 6 -1.28243388508851 -2.00351816581658  1.85182317091709
 6 -0.62203200550055 -1.21498268996900  2.83925194569457
 6  0.82528364096410 -1.14774977597760  2.53546474107411
 6  0.92167485368537 -1.92697913261326  1.22821762576258
 6 -4.76051099769977 -1.92976862556256  0.21618850615062
 6  1.86674126552655 -0.32613294289429  3.15679783428343
 6 -4.78906526792679 -2.08576728512851 -1.09591993249325
 6  2.11065902230223 -1.89377756995700  0.29085136383638
 6  2.12099812171217 -0.94189610181018 -0.55363926542654
 6 -3.51761643154315 -1.51713367866787 -1.64640192359236
 6  3.10418148134813 -0.62763351165117 -1.68259215811581
 6 -1.34922349454946 -0.47983184018402  3.92152766106611
 6 -5.84386961106111 -2.23322980328033  1.24317532313231
 6  2.54153381028103  0.43782115031503 -2.36235084508451
 6  1.95219465186519  1.10339603160316  2.65378201980198
 6  1.36424979147915  0.91330797939794 -1.65981208720872
 6  4.29581493059306 -1.48278770787079 -2.05307493759376
 6 -5.73089742584258 -2.66184827522752 -2.08905235343534
 6  5.43171872287229 -1.11294303950395 -1.13406682358236
 6  3.19545964136414  1.19979838243824 -3.53434994419442
 6  0.51447387148715  2.07888303520352 -1.87560930603060
 6  2.95170381068107  1.82501208670867  3.43311865706571
 6 -0.59770360196020  2.29660429262926 -1.19089437733773
 6 -7.03604753125312 -3.11030479457946 -1.66084464316432
 6  6.65487505710571 -2.01894014911491 -1.40012070207021
 6 -1.41352000680068  3.51079331253125 -1.24286236093609
 6 -2.25876996639664  3.37055753475348 -0.20792869906991
 6 -2.04552682508251  2.17077801130113  0.47735666766677
 6 -1.24611458985899  4.60871713191319 -2.20975274327433
 6 -3.44783542004200  4.28254873777378  0.25043928362836
 6 -2.06806069726973  5.69625504370437 -2.36286001880188
 1 -3.42810130333033 -0.51675716561656  1.23388759335934
 1 -2.84716634303430 -3.39731485648565  1.34632498159816
 1 -3.34539435923592 -2.40855429982998  2.57078646734674
 1 -0.28069337413741 -2.90293905900590  0.11141815181518
 1 -1.97408579827983 -0.21652795629563 -0.75494959735974
 1  1.60511847324732 -0.36788824262426  4.23442554165417
 1  2.84161149404941 -0.85642753405340  3.22174710411041
 1  2.99093790769077 -2.56159774267427  0.50947400060006
 1 -1.91924455375538 -1.28525779977998  4.67077413921392
 1 -0.58566833483348  0.04450024642464  4.61599795629563
 1 -2.19250856465646  0.16678912561256  3.58298706400640
 1 -5.91275206240624 -1.51615974717472  1.91677597059706
 1 -5.82388114881488 -3.29581368596860  1.53691653795380
 1 -6.94608198499850 -1.97174281768177  0.67332369406941
 1  2.34725086448645  1.05329527142714  1.46695430673067
 1  1.12927287878788  1.69429167346735  2.85840381408141
 1  0.32956121372137  0.31211558135814  0.00866883458346
 1  4.55594131333133 -1.49900295929593 -3.02125772767277
 1  4.18985981578158 -2.45149692889289 -1.65009211721172
 1 -5.34853699209921 -2.76176710131013 -3.11101456525653
 1  5.42561048234823 -1.45792627252725 -0.04386116241624
 1  5.56060750205021 -0.10654765086509 -1.08437291979198
 1  3.92224213571357  0.53146963906391 -4.02850107960796
 1  3.73614936653665  2.15294637333733 -3.46136847224722
 1  2.40409619891989  1.27925242314231 -4.18668182018202
 1  0.68069197919792  2.78881037753775 -2.56260715271527
 1 -7.14852393849385 -3.25387757165717 -0.57965698689869
 1 -7.66348461336134 -3.33525485598560 -2.51539459295930
 1  3.75950967846785  3.54092345334533  3.77205045924592
 1 -0.29522340114011  4.75503678317832 -2.95042293769377
 1 -4.37808639823982  4.27078366016602 -0.50306145764576
 1 -3.76697544724472  3.79492428602860  1.15868668006801
 1 -3.15613392959296  5.41588187928793  0.20232600250025
 1  8.44928062156216 -2.33027618181818 -1.09251988698870
 1 -1.62869579417942  6.43260371747175 -3.07395224742474
 1 -2.89661201410141  5.97692906870687 -1.92224813231323

