%nproc=4
%Mem=4GB
# td=(NStates=1) B3LYP/SVP 

TD

0 1
 8 -5.17237346734673 -0.02396695709571 -3.11446123582358
 8  2.94381438693869  3.02157941264126  3.06018209660966
 8  3.08832718131813  0.78167356635664  3.33146503160316
 8  1.39797743724372 -7.19731600170017  1.32947145344534
 8  0.55153004100410 -6.94488091169117 -0.66832481538154
 8  1.91006805490549  4.03289641244124  0.11568107550755
 7 -2.36381599269927 -0.93597202740274  0.61232824942494
 7 -4.26653153455346  0.66860452695270 -1.12221057585759
 7  1.91970236183618 -0.64401597459746 -0.47744622222222
 7  2.77411295319532  1.85138088358836 -0.24139088578858
 6 -4.83401979317932  1.21721321832183  0.08350415021502
 6 -4.45786317911791  0.17522768806881  1.36934429212921
 6 -2.96069116471647  0.00261051775178  1.44802681568157
 6 -2.03243233993399  0.71257621482148  2.18362153175317
 6 -0.76624323462346  0.00975554005401  1.80842151975198
 6 -1.03556774457446 -0.93363642254225  0.82683450285029
 6 -6.27198955505551  1.31982977227723 -0.13852906830683
 6  0.52540114671467  0.27696837333733  2.56709572967297
 6 -6.59660017451745  0.73862311071107 -1.31596732543254
 6 -0.14812106820682 -1.89598833573357  0.11562364386439
 6  1.14795169136914 -1.71293083968397 -0.29995157735774
 6 -5.34607520782078  0.40145836053605 -2.05525283678368
 6  1.96432051725173 -2.85055559395940 -0.94551156045605
 6 -2.29029473037304  1.67211296819682  3.31567595779578
 6 -7.25399289248925  1.76205433463346  0.92206619251925
 6  3.22115844954495 -2.33923387458746 -1.38800004510451
 6  1.00622664996500  1.75176366976698  2.57229086498650
 6  3.18127620292029 -0.86371499709971 -1.06504049224922
 6  1.53990776097610 -4.30162612701270 -1.00260197709771
 6 -7.81350725672567  0.56828846644664 -1.98517690549055
 6  1.63672123772377 -5.10756169076908  0.32262825832583
 6  4.19419502850285 -3.11165963476348 -2.06222545384538
 6  4.17085795639564  0.05686509000900 -1.33598828122812
 6  2.46946756795680  1.77469505770577  3.01620752065207
 6  3.83247762556256  1.46591200270027 -0.96147271457146
 6 -9.08090307370737  0.67409957025703 -1.57017183248325
 6  1.10220528522852 -6.51269791999200  0.26766542554255
 6  4.67943677827783  2.66815357025703 -1.49265634873487
 6  3.98186745514551  3.76105662936294 -1.14912620692069
 6  2.78861043184318  3.37738558965897 -0.32934169686969
 6  5.88443204850485  2.49991483208321 -2.19477143224322
 6  4.33553917371737  5.14924980078008 -1.41659367276728
 6  6.61815187278728  3.45226091089109 -2.83787826472647
 1 -4.37735222132213  2.20291137123712  0.16673971427143
 1 -4.99684434133413 -0.68920039613961  1.41983672787279
 1 -4.85241208110811  0.76062006170617  2.25211212091209
 1 -2.79657869776978 -1.36664405990599 -0.21826874867487
 1 -3.38136913421342  0.80816273337334 -1.53875142604260
 1  0.20307474217422  0.13153346534654  3.50175972407241
 1  1.26710071947195 -0.31245591299130  2.32143727652765
 1 -0.60090875177518 -2.87620508550855 -0.40928592629263
 1 -3.26238638393839  2.10663192729273  3.37349733943394
 1 -2.02627384248425  1.24309367326733  4.37671605950595
 1 -1.72862924402440  2.83036685648565  3.30626804860486
 1 -6.94938838973897  2.35927473097310  1.75342757575758
 1 -7.72067183418342  1.00772058125813  1.47702471317132
 1 -7.97347328452845  2.58822490559056  0.52865134533453
 1  1.06422913131313  2.04232626922692  1.39032710001000
 1  0.52074518701870  2.49313613561356  3.22837866206621
 1  1.84049837623762  0.41883252825283 -0.05830119541954
 1  2.12534032623262 -5.07936176657666 -1.57683229292929
 1  0.52296409390939 -4.40673052055206 -1.17133561696170
 1 -7.85013607540754  0.20189041964196 -3.05420135833583
 1  1.05655784468447 -4.71093227292729  1.13190076667667
 1  2.78362463256326 -5.19621682618262  0.69515733063306
 1  3.87146220852085 -4.25254270647065 -2.03685714681468
 1  5.15964706310631 -3.03285213541354 -1.62953657125713
 1  4.34316574967497 -2.80593282588259 -3.15213428702870
 1  5.05439505900590 -0.23781587608761 -1.60683685938594
 1 -9.27889148964896  1.00129758525853 -0.51262395219522
 1 -10.03818195179518  0.61894331003100 -2.22546864686469
 1  3.76544123062306  2.95696908060806  3.25686045174518
 1  6.15694916311631  1.39089123832383 -2.49525834083408
 1  5.15474617441744  5.54973773797380 -0.74831345124513
 1  4.34645666816682  5.30614738043804 -2.46710925582558
 1  3.59403707330733  5.84160376677668 -1.14615635723572
 1  0.95292260036004 -7.91195235233523  1.28933498839884
 1  7.61140358475848  3.18589412931293 -3.41869914321432
 1  6.55400728822882  4.63080859305931 -2.56063841634163

