%nproc=4
%Mem=4GB
# td=(NStates=1) B3LYP/SVP 

TD

0 1
 8 -5.27771400140014  0.15318075767577 -3.29835962566257
 8  3.07819782528253  2.81372862756276  3.47042312071207
 8  3.41277962656266  0.61379677867787  3.25721760686069
 8  1.61562920242024 -7.09117538763876  1.60295880218022
 8  0.73244813281328 -7.05523194679468 -0.46581456435644
 8  1.76595364346435  4.10811393419342  0.01705121252125
 7 -2.29814942604260 -0.91863029322932  0.56122313891389
 7 -4.43718860026003  0.66640430693069 -1.26477483228323
 7  1.80438082968297 -0.72247382038204 -0.38229670727073
 7  2.56937247914792  1.93250899639964 -0.50289703640364
 6 -4.83677006820682  1.12856435343534  0.05546134593459
 6 -4.43300069286929  0.37794796009601  1.17885524322432
 6 -2.89770486608661  0.08603886058606  1.26184819781978
 6 -2.00774987168717  0.69935489268927  2.05070824042404
 6 -0.73282989328933  0.02166673117312  1.83127380498050
 6 -1.01190537833783 -0.99634269316932  0.78950076947695
 6 -6.32021437753775  1.39020680998100 -0.11200641604160
 6  0.61580018661866  0.16424710121012  2.57970699079908
 6 -6.66656717121712  0.91528077647765 -1.35417114581458
 6 -0.16333258935894 -2.01586032293229  0.22729481098110
 6  1.07363425962596 -1.84438398499850 -0.30491207340734
 6 -5.48625922622262  0.55735395009501 -2.18006531803180
 6  1.91570565576558 -2.95454599299930 -1.00106711601160
 6 -2.19647534843484  1.69814557145715  3.24888927912791
 6 -7.12541003420342  1.87353548274828  0.93091707760776
 6  3.16164249794979 -2.39282923412341 -1.36436768186819
 6  1.21315734303430  1.62051054445445  2.62639627552755
 6  3.00446852215221 -0.89321794739474 -1.02234622282228
 6  1.59365313551355 -4.43591955635564 -0.94865658255826
 6 -7.94433033903390  0.72157379497950 -2.08885727352735
 6  1.81045861146115 -5.03154408900890  0.43563955945595
 6  4.20678628762876 -3.00930939973997 -2.26239547084708
 6  3.84858572917292  0.11379078257826 -1.39570425282528
 6  2.67336795799580  1.55113270147015  3.16125202510251
 6  3.69710408820882  1.53732914441444 -1.03162973027303
 6 -9.17967295069507  0.64704686498650 -1.50645546084608
 6  1.30864592929293 -6.42786943714371  0.46741540054005
 6  4.62032086668667  2.61487824272427 -1.54002108520852
 6  3.86599586798680  3.74501502520252 -1.11159245354535
 6  2.62529410021002  3.34785263636364 -0.44622338503850
 6  5.83687729302930  2.48527336793679 -2.24202615771577
 6  4.22507812761276  5.26454132993299 -1.12630464386439
 6  6.61519157675768  3.42799848464847 -2.73613809070907
 1 -4.31631611771177  2.02838391849185  0.09307234753475
 1 -4.84017867476748 -0.71143261936194  1.13728847304730
 1 -4.76607344724472  0.92280628032803  2.26318322802280
 1 -2.76465550545054 -1.45675307080708 -0.14609153095310
 1 -3.40550154745475  0.88450036713671 -1.66362391329133
 1  0.46458089278928 -0.20126981498150  3.67995754385439
 1  1.36406041544154 -0.53014768216822  1.95602073487349
 1 -0.52888154905491 -3.07061452645264  0.17224222652265
 1 -3.24754489978998  1.96826809090909  3.69031902160216
 1 -1.62963417851785  1.34263362726273  4.14852324022402
 1 -2.10334671577158  2.81198501830183  2.87250467226723
 1 -6.44939839073907  2.80520932443244  1.26348858185819
 1 -7.12172193919392  0.94667447664767  1.73856086678668
 1 -7.98092402960296  2.37340342344235  0.51122960316032
 1  1.41894460286029  2.09067110371037  1.49094716201620
 1  0.55640875337534  2.13233005500550  3.14416024022402
 1  1.65338966536654  0.35997664266427 -0.18195356065607
 1  2.21360915311531 -4.83423725412541 -1.78733334303430
 1  0.72908470597060 -4.64350419791979 -1.41535001840184
 1 -7.76673773557356  1.22226245684568 -3.30045598379838
 1  1.15846803570357 -4.37902908260826  1.14218179477948
 1  2.96071234133413 -4.98448565306531  0.64237205210521
 1  4.09298436073607 -4.11250870307031 -2.27460092119212
 1  5.24751584998500 -2.85691454165417 -1.86407002460246
 1  4.28576000910091 -2.50364259685969 -3.36076515011501
 1  4.66246586608661 -0.48596069056906 -2.04082025772577
 1 -9.27162076257626  0.25794324982498 -0.41254394419442
 1 -10.20371850545055  0.90354176987699 -2.15289138913891
 1  3.95743042954295  2.51993537723772  3.88963372907291
 1  6.38870233843384  1.70015216441644 -2.45925474047405
 1  5.12682338213821  5.22997576177618 -0.30462908280828
 1  4.49276129862986  5.58457522322232 -2.19773231813181
 1  3.50991866146615  5.96867647404740 -0.67160890249025
 1  1.32712002010201 -8.06666782388239  1.47824387928793
 1  7.63034547894789  3.25142068196820 -3.37279455275528
 1  6.45093698119812  4.55719123132313 -2.56169852235223

