%nproc=4
%Mem=4GB
# td=(NStates=1) B3LYP/SVP 

TD

0 1
 8 -5.24443067306731  0.34102954255426 -3.35402519221922
 8  2.95143514901490  2.93116037073707  3.14347042544254
 8  3.30068841744174  0.75535093409341  3.00575246034603
 8  1.26091373087309 -7.08432470257026  1.55883438973897
 8  1.01400628862886 -7.07060348394839 -0.81353933683368
 8  1.67336438453845  4.03665678847885 -0.26053654625463
 7 -2.40714032513251 -0.97233566376638  0.66659367596760
 7 -4.37060194159416  0.74104177067707 -1.12489084388439
 7  1.78164855645565 -0.60776234923492 -0.40425890349035
 7  2.59081462336234  1.94127987348735 -0.60908765546555
 6 -4.87553394459446  1.19785128212821  0.19439523932393
 6 -4.43777116991699  0.18148831413141  1.31930928862886
 6 -3.02209730533053 -0.06395613891389  1.45997801080108
 6 -2.04118321502150  0.53281823902390  2.16710988058806
 6 -0.75499210951095  0.00791535603560  1.82500317791779
 6 -1.03450763856386 -0.93304636353635  0.87647946734673
 6 -6.34905726182618  1.37464525382538 -0.02266748214821
 6  0.55570417701770  0.15837651415142  2.54678369846985
 6 -6.67961847634763  0.83725297369737 -1.33111884058406
 6 -0.18913516961696 -1.90814955185519  0.16610869236924
 6  1.08020491669167 -1.82642218881888 -0.27408899109911
 6 -5.35593619391939  0.68215643034303 -2.16882419391939
 6  1.99857394259426 -2.90363090149015 -0.84318132743274
 6 -2.26440214111411  1.54910066696670  3.26874126432643
 6 -7.25158265146515  1.79245737493749  1.10078406430643
 6  3.26393272697270 -2.27985793699370 -1.20137138223822
 6  1.12629865716572  1.57018551195120  2.49014265016502
 6  3.03352142744274 -0.83926255185519 -0.98505249344934
 6  1.68565233543354 -4.37242320672067 -0.95150686758676
 6 -7.94059996599660  0.73121475907591 -2.03610199799980
 6  1.78913647924792 -5.07738867346735  0.41719771527153
 6  4.44202981198120 -3.01447991679168 -1.82326155745575
 6  3.98681955255526  0.06336574007401 -1.26808149054905
 6  2.54742536373637  1.67498508670867  2.83088898879888
 6  3.73664804260426  1.46282169366937 -0.98721528882888
 6 -9.11477646104611  0.74454661496150 -1.42916773207321
 6  1.35276034073407 -6.51981863206321  0.29243790279028
 6  4.73393222782278  2.59592634753475 -1.43036011911191
 6  3.88057732613261  3.73379390309031 -1.22701399569957
 6  2.64254582538254  3.29117696879688 -0.60047881058106
 6  5.88649225452545  2.35470031063106 -2.13608556365637
 6  4.26410203000300  5.11089596539654 -1.29070108350835
 6  6.77606766436644  3.41396708150815 -2.43279775667567
 1 -4.38656314241424  2.16021710181018  0.40557359765977
 1 -4.89827448434843 -0.67912938903890  0.93701844604460
 1 -4.89040588048805  0.56480047974797  2.38245515521552
 1 -2.77373641354135 -1.47850524602460 -0.07342426422642
 1 -3.39491048834883  0.89832174927493 -1.42693024392439
 1  0.64390882558256 -0.24233392139214  3.48099764786479
 1  1.38515252465246 -0.34997966536654  2.03058819161916
 1 -0.66374503540354 -2.76847431243124 -0.09314431213121
 1 -3.41642178747875  1.67439870397040  3.59134912461246
 1 -1.72696391149115  1.46838620252025  4.16314470237024
 1 -2.11664804590459  2.58918273807381  2.87429485128513
 1 -6.72101555245524  2.40345914941494  1.82218445144514
 1 -7.62324209120912  1.15582539173917  1.74285129582958
 1 -8.10210614781478  2.51464754785479  0.50957943814381
 1  1.02067477587759  2.10838287488749  1.63650171747175
 1  0.63901701420142  2.38285510751075  3.06421224542454
 1  1.51528585498550  0.34535518051805 -0.17142250755075
 1  2.21922971517152 -4.94871870227023 -1.86471108080808
 1  0.72963476097610 -4.31700154765477 -1.18645712911291
 1 -7.89584064586459  0.61486171677168 -3.17894383258326
 1  1.01298348724872 -4.63216439613961  1.15592316891689
 1  2.84697096719672 -5.04095129962996  0.90404821972197
 1  4.32793785608561 -4.00235768796880 -2.01668512961296
 1  5.30119121752175 -3.01568041824182 -1.41398501610161
 1  4.54818625172517 -2.62851508410841 -2.86464553815382
 1  4.85362498199820 -0.14017611211121 -1.69733590929093
 1 -9.22180578107811  0.88438589408941 -0.51117380718072
 1 -9.88622675627563  0.73469488518852 -1.98049414941494
 1  3.96435112161216  2.80806419011901  3.41371613731373
 1  5.91359482768277  1.45659780898090 -2.30105892089209
 1  5.03124382418242  5.48135089928993 -0.63083170307031
 1  4.85468749124913  5.47555432113211 -2.42488503340334
 1  3.34000166976698  5.78296790319032 -0.93732547414741
 1  1.03289059715972 -8.08750990809081  1.53061911681168
 1  7.67599004340434  3.15887142704270 -3.18373564686469
 1  6.54216610411041  4.40657616981698 -2.22811516401640

