%nproc=4
%Mem=3GB
# td=(NStates=1) B3LYP/SVP 

TD

0 1
 8 -3.34106101630163 -1.23173822932293 -2.87555821012101
 8  2.99877033183318  3.19147080558056  3.03777804870487
 8  3.87182149034903  1.42068919721972  4.19947439103910
 8  7.61500010291029 -1.59518563276328 -0.68542930473047
 8  6.51414557095710 -3.22354314921492 -1.79052550065006
 8 -2.85673658015802  1.61622711181118  1.44516457695770
 7 -0.28857460366037 -2.35467178147815  0.90312515331533
 7 -2.71079311731173 -1.12544767976798 -0.59971211581158
 7  1.19702125152515  0.03742465216522 -0.75936087328733
 7 -1.10231937743774  1.45215062296230 -0.15259615751575
 6 -3.37618276797680 -1.33171073347335  0.58287526142614
 6 -2.58690731683168 -2.31216536273627  1.55932123892389
 6 -1.19833547524752 -2.03827164116412  1.72540052865287
 6 -0.50276007830783 -1.23203439513951  2.81758977947795
 6  0.87588870147015 -1.11443644464446  2.45139633423342
 6  1.04724741094109 -1.92249868456846  1.22981778577858
 6 -4.75842078867887 -1.95857150585059  0.29720660796080
 6  1.98529312071207 -0.41639196879688  3.22510466496650
 6 -4.78121448284829 -2.06566527492749 -1.07418775927593
 6  2.11257921432143 -1.88569676187619  0.21632391109111
 6  2.12721874377438 -0.91668358055806 -0.73568747024702
 6 -3.51214588448845 -1.48299026432643 -1.65386266966697
 6  3.05773683688369 -0.62587333563356 -1.78834273317332
 6 -1.28606717891789 -0.52461631863186  3.80926643494349
 6 -5.70140536463646 -2.13013949424942  1.30556156175618
 6  2.50566022292229  0.50484785298530 -2.42450706070607
 6  1.91876130853085  1.04464015601560  2.69047568916892
 6  1.40908427492749  0.98441509010901 -1.70109621562156
 6  4.28341369046905 -1.46317574667467 -2.02344197429743
 6 -5.83509784588459 -2.38957104750475 -2.02009545774577
 6  5.41992754375438 -1.13894563976398 -1.15691910881088
 6  3.09232932833283  1.25213361596160 -3.67651416061606
 6  0.57615003910391  2.06365151205121 -1.95537728282828
 6  2.98679732003200  1.84833441894189  3.40546589178918
 6 -0.62630646224622  2.31210584278428 -1.17031231913191
 6 -6.77114104060406 -3.36544030813081 -1.76681524022402
 6  6.55930550015001 -2.07940619571957 -1.22109279927993
 6 -1.43951260606061  3.51491372457246 -1.17518559325933
 6 -2.33342743214321  3.37370784978498 -0.13377128332833
 6 -2.12870514291429  2.10859179267927  0.49987891989199
 6 -1.25641561996200  4.58921518171817 -2.18289005700570
 6 -3.47909854635464  4.27275775867587  0.24729896959696
 6 -1.86726061726173  5.69117453565357 -2.31408514131413
 1 -3.38922741594159 -0.23457894779478  1.24164836943694
 1 -2.80533215961596 -3.27799292429243  1.07479782888289
 1 -3.11708152795280 -2.35487893229323  2.61053044174417
 1 -0.47491279607961 -2.81990075517552  0.00441745174517
 1 -1.93392178187819 -0.38547485098510 -0.88789289168917
 1  2.06472443384338 -0.42084353815382  4.29796189528953
 1  2.83141047394739 -0.79271116241624  2.84845977537754
 1  2.90914972887289 -2.70042162506251  0.31703475667567
 1 -1.99380200950095 -1.23782305630563  4.26568363016302
 1 -0.54788455645565  0.00409620602060  4.63304966146615
 1 -1.74872418621862  0.31702414911491  3.20117888318832
 1 -5.60201098829883 -1.62140027122712  2.26495078807881
 1 -5.64960372107211 -3.18822292689269  1.55503835013501
 1 -6.78418579537954 -2.18156379977998  1.06276263796380
 1  2.18722486188619  1.22988293019302  1.68943655495550
 1  0.88734868636864  1.37138938323832  2.96243421712171
 1  0.27441569916992  0.11593596339634 -0.10809284158416
 1  4.69018473767377 -1.25784884388439 -3.00543614551455
 1  4.20890171997200 -2.51069284848485 -1.96750385838584
 1 -5.88711084948495 -1.85782670727073 -2.96343980778078
 1  5.08884680598060 -1.08508898879888 -0.10426720302030
 1  5.99327076837684 -0.26501349744975 -1.31865634813481
 1  3.98944885638564  0.61941843394339 -4.08924715421542
 1  3.20542629422942  2.28913999269927 -3.57659999539954
 1  2.50139592889289  1.11992649054905 -4.63923707570757
 1  0.71828573857386  2.92468396489649 -2.78355924792479
 1 -6.88113719981998 -3.87443962786279 -0.74858387958796
 1 -7.60831909680968 -3.81134246474647 -2.38058111161116
 1  3.82994672217222  3.42595195619562  3.56700995519552
 1 -0.40503438223822  4.19380065956596 -2.96898479387939
 1 -4.17279586918692  4.44852143394339 -0.52743389488949
 1 -4.27815656535653  3.75881067466747  0.80750156155616
 1 -3.15012332853285  5.31977226832683  0.69948571847185
 1  8.55227092059206 -2.15613876807681 -0.91864249924992
 1 -1.71573449804981  6.42617307440744 -3.23253810601060
 1 -2.77509986288629  5.71389276507651 -1.58277418491849

