%nproc=4
%Mem=3GB
# td=(NStates=1) B3LYP/SVP 

TD

0 1
 8 -3.35942285248525 -1.43423847934793 -2.80099075337534
 8  3.11998245304530  3.08400005850585  3.41028529942994
 8  3.88398270647065  1.18199532783278  4.26371081468147
 8  7.77603620652065 -1.56954306850685 -0.76922768456846
 8  6.58868302470247 -3.13338413331333 -1.87714416251625
 8 -2.55425633213321  1.55733122222222  1.44104416491649
 7 -0.26064181038104 -2.32643895819582  0.80759560036004
 7 -2.73378541654165 -1.26600173517352 -0.63281542614261
 7  1.19146069546955  0.15404631433143 -0.70394533173317
 7 -0.99895904140414  1.45735114301430 -0.25767666556656
 6 -3.34520967066707 -1.29561712411241  0.63500047394739
 6 -2.69905853195320 -2.24324847104710  1.64918022482248
 6 -1.22327796949695 -1.93802161616162  1.75476346494649
 6 -0.53726352865287 -1.17362855455546  2.81819984048405
 6  0.76820793339334 -1.12743774477448  2.41827302190219
 6  0.92235492169217 -1.88722515721572  1.16052085608561
 6 -4.75432037863786 -1.85723137183718  0.28720560786079
 6  1.88205279667967 -0.41038136773677  3.11971412591259
 6 -4.78383474487449 -2.11364007240724 -1.06495683618362
 6  2.07853580998100 -1.89892808500850  0.24836711541154
 6  2.09844586648665 -0.81511342354235 -0.59834373587359
 6 -3.54681935183518 -1.54768673397340 -1.71241852525252
 6  3.05568663186319 -0.57028777707771 -1.75082898179818
 6 -1.25214378657866 -0.53878773577358  3.97903341164116
 6 -5.82788801290129 -1.92992947324732  1.30729173477348
 6  2.58562821972197  0.61583895209521 -2.45399000900090
 6  1.97161659405941  1.08713440544054  2.85478211981198
 6  1.35932929942994  1.07862451105111 -1.79266537253725
 6  4.17903325242524 -1.49032846194619 -1.96568619871987
 6 -5.87643197929793 -2.51291338173817 -1.98287173537354
 6  5.43981953295330 -1.08856060126013 -1.08864228112811
 6  3.10504059945995  1.16730513311331 -3.78622513171317
 6  0.45432785688569  2.10802594949495 -2.11128287338734
 6  3.02996163646365  1.73300288578858  3.64499984518452
 6 -0.63069690129013  2.29785441764176 -1.24066935483548
 6 -6.80577450395039 -3.51943570767077 -1.68923748244824
 6  6.63175274487449 -2.05297355245525 -1.36521721172117
 6 -1.42811146594659  3.54131636483648 -1.35174324902490
 6 -2.39781387078708  3.36642712171217 -0.37016492269227
 6 -2.05221749414941  2.06224715821582  0.42221115311531
 6 -1.21824180258026  4.77987424762476 -2.25842761076108
 6 -3.51731236773677  4.28745922882288  0.16430066976698
 6 -2.01387527872787  5.80873629182918 -2.33389712251225
 1 -3.42675116831683 -0.32724821472147  1.01430563516352
 1 -2.72454408080808 -3.45778090309031  1.29214956405641
 1 -3.12709252905291 -2.23326677107711  2.60024941364136
 1 -0.47987329212921 -2.85812457755776 -0.01396438643864
 1 -2.07637602730273 -0.56324262776278 -0.77819192159216
 1  1.73675163656366 -0.60510196399640  4.15635773487349
 1  2.91793912681268 -0.67228912021202  3.11849677907791
 1  2.86045485938594 -2.69254083698370  0.26012906610661
 1 -1.98412104140414 -1.09660893489349  4.32414947674767
 1 -0.66712648064807 -0.33001720532053  4.89957631413141
 1 -1.81210052385239  0.38604105080508  3.64522328762876
 1 -5.62437322452245 -1.19052718391839  1.95022931593159
 1 -5.70633939463946 -2.95300940554055  2.00221306760676
 1 -6.88132550935094 -1.82860850425042  0.94779114081408
 1  2.05112125152515  1.28036797869787  1.71995960726073
 1  0.88126807830783  1.57162940724072  3.07693566726673
 1  0.05677393499350  0.33918828862886 -0.25800783308331
 1  4.55856157535754 -1.18973203220322 -3.01605720762076
 1  3.99692052185218 -2.63392517171717 -1.71360846884688
 1 -5.78549068746875 -2.35281620622062 -2.96933039683968
 1  5.04302222352235 -1.19536001590159 -0.00658743504350
 1  5.68587002830283 -0.08082507860786 -1.37478196069607
 1  4.02942285378538  0.54307079917992 -4.21688991849185
 1  3.50481623322332  2.07056813551355 -3.43393572897290
 1  2.38651444074407  0.94860935883588 -4.60551370337034
 1  0.62518642864286  2.69160065656566 -3.03377426942694
 1 -7.00365945204520 -4.00153233713371 -0.73036205740574
 1 -7.30882914781478 -3.96034736523652 -2.53380643414341
 1  3.99272299979998  3.51700106110611  3.91719497369737
 1 -0.42754663346335  4.53494477397740 -2.94897279267927
 1 -4.26759534913491  4.49480606240624 -0.52313346484649
 1 -3.70910966066607  3.70779557315732  1.09722053345335
 1 -3.08917723392339  5.24393468456846  0.53754952485249
 1  8.41104679817982 -2.30912406660666 -0.77834846984698
 1 -1.85900882548255  6.48396885398540 -3.14790964316432
 1 -3.04738709160916  5.70688206400640 -1.88525443294329

