%nproc=4
%Mem=3GB
# td=(NStates=1) B3LYP/SVP 

TD

0 1
 8 -3.31913882408241 -1.07755281078108 -2.86048670297030
 8  3.23018347314731  3.10404206270627  2.97443171407141
 8  3.45492980118012  1.46876400470047  4.51251569516952
 8  7.73507211011101 -1.57708382258226 -0.74388515031503
 8  6.57229138553855 -3.12008280318032 -1.90624707280728
 8 -2.51462236873687  1.74359984908491  1.60753081358136
 7 -0.26874262046205 -2.42821913621362  0.89856469726973
 7 -2.71573361136114 -1.13264839983998 -0.61422356695670
 7  1.11313286268627 -0.05051414171417 -0.75915085228523
 7 -0.94713385888589  1.45152055995600 -0.11899279717972
 6 -3.34996014571457 -1.31983954635464  0.69042601650165
 6 -2.56530515661566 -2.38451259745975  1.63266857365737
 6 -1.19223486518652 -2.07494530853085  1.75493348194819
 6 -0.59624942724272 -1.19084027572757  2.75713373387339
 6  0.83132424502450 -1.18061306230623  2.44488568316832
 6  0.91638432463246 -1.82952938763876  1.22988779277928
 6 -4.70960590719072 -1.84987063576358  0.28512539983998
 6  1.92464705610561 -0.33127345694569  3.09936209070907
 6 -4.74605096649665 -1.95863457185719 -1.11615195569557
 6  2.12321027742774 -1.93070126232623  0.25642792149215
 6  2.11181720362036 -0.86600851305130 -0.70138403990399
 6 -3.55394006390639 -1.41844380968097 -1.67696497989799
 6  3.03224428762876 -0.61320206850685 -1.76939083798380
 6 -1.34971354355436 -0.65523938093809  3.93678918721872
 6 -5.63937916201620 -2.30399687998800  1.24294530013001
 6  2.54725438233823  0.43094046224622 -2.52842745274527
 6  1.99127856025603  1.08181387338734  2.63363000460046
 6  1.25405877237724  0.79194584318432 -1.80747685368537
 6  4.25032038113811 -1.42024145324532 -2.03659328942894
 6 -5.76169050515051 -2.53430552095210 -2.01785523372337
 6  5.46857240824082 -1.14531627682768 -1.05710912781278
 6  3.07953804920492  1.09985838843884 -3.70064657385739
 6  0.42804522862286  1.95589073597360 -2.06575832093209
 6  2.94573321362136  1.91176076157616  3.49027437263726
 6 -0.60453428502850  2.33609824202420 -1.16435172307231
 6 -6.79650357685769 -3.27205096919692 -1.77980653935394
 6  6.58098766836684 -2.09741799689969 -1.23058374837484
 6 -1.46647530233023  3.47529976317632 -1.21114918961896
 6 -2.26504059345935  3.48885936493649 -0.11419932613261
 6 -1.98413068546855  2.19270020352035  0.54466339833983
 6 -1.35726570497050  4.50419667986799 -2.28891065906591
 6 -3.51479211571157  4.24480496339634  0.23199743944394
 6 -1.97946183738374  5.77216263446345 -2.42121585438544
 1 -3.28867736093609 -0.40868635853585  1.42190639523952
 1 -2.74884651105110 -3.27249237423742  1.29695004410441
 1 -3.34742456225623 -2.19521296569657  2.54668405710571
 1 -0.59613491829183 -2.96913567866787  0.06897390739074
 1 -2.06769515921592 -0.31707801130113 -0.84679878227823
 1  1.59900786218622 -0.32593404720472  4.00110220932093
 1  2.94984231713171 -0.87668956025603  3.09293422282228
 1  2.90684949884989 -2.77470905380538  0.44172722592259
 1 -2.01135376467647 -1.63416269026903  4.28842590439044
 1 -0.70514028202820 -0.21540574417442  4.68024438093809
 1 -1.99436875067507  0.17153960066007  3.60973973927393
 1 -5.29794058125813 -2.02419055025503  2.44385867886789
 1 -5.76100486118612 -3.47949205380538  1.33162600890089
 1 -6.81394877167717 -1.85620126352635  0.99565592729273
 1  2.37520365976598  1.01146108800880  1.57810542184218
 1  0.94061401290129  1.45169741404140  2.75376335003500
 1  0.34350260786079  0.28867323712371 -0.12705473777378
 1  4.33797951715172 -1.17812087108711 -3.07310291219122
 1  4.06863769356936 -2.54474625382538 -2.28750585858586
 1 -5.56711885028503 -2.21947287188719 -3.04062752655266
 1  5.22289021032103 -1.25390587048705  0.02723594729473
 1  5.76493793509351 -0.16494349044905 -1.02761724422442
 1  3.68619853135314  0.50312680478048 -4.26595482498250
 1  3.43642939453945  2.10678175687569 -3.34567690309031
 1  2.28995478477848  1.27796229412941 -4.42096524852485
 1  0.66302021202120  2.50506200270027 -2.93070396239624
 1 -6.66055514161416 -3.73486567046705 -0.75933495469547
 1 -7.66351461636164 -3.44803613411341 -2.50418347184719
 1  3.76473020052005  3.62153151415142  3.61057431163116
 1 -0.70177405620562  4.34636591609161 -3.03548144354435
 1 -4.23448203780378  4.28353493529353 -0.69327047854785
 1 -4.04246299599960  3.66306109970997  1.06037684908491
 1 -3.15668398459846  5.36751704280428  0.72165793569357
 1  8.55779147264727 -2.02936609080908 -1.01483211821182
 1 -1.56096902150215  6.46998745584558 -2.99819467166717
 1 -2.64060641354135  5.98989036483648 -1.65379128662866

