%nproc=4
%Mem=4GB
# td=(NStates=1) B3LYP/SVP 

TD

0 1
 8 -5.32897912791279  0.14873031263126 -3.31428121782178
 8  3.09108911441144  2.95933318801880  2.89293537193719
 8  3.24035238383838  0.63004840384038  3.12375426052605
 8  1.80879851935194 -7.31878814891489  1.38247675397540
 8  0.54535942394239 -7.01370779437944 -0.40382836573657
 8  1.60616766486649  4.01476459925993  0.13683319071907
 7 -2.34495410651065 -0.88995742594259  0.65488250485048
 7 -4.27872275367537  0.64358202470247 -1.34521287608761
 7  1.74380477207721 -0.73002457545755 -0.47659613721372
 7  2.50291583348335  1.91807755325533 -0.48740548724872
 6 -4.61412780398040  1.10646214321432  0.01933773357336
 6 -4.40390778357836  0.21224138943894  1.25212256995700
 6 -2.94454955055506  0.09821007770777  1.37994000700070
 6 -1.94804390109011  0.63812877007701  2.19416258585859
 6 -0.75941255155516 -0.02367780328033  1.89400007760776
 6 -0.95257944574457 -1.02471553045305  0.98550036943694
 6 -6.18787114321432  1.37153494279428 -0.15611082648265
 6  0.59413802040204  0.22466314281428  2.53933295339534
 6 -6.56863737823782  0.93899314771477 -1.41257698639864
 6 -0.26927318341834 -2.04963370027003  0.24480656215622
 6  1.04014091029103 -1.83590313691369 -0.30677225942594
 6 -5.45047564786479  0.45645386008601 -2.18802611411141
 6  1.93784786998700 -2.93730426882688 -0.82703971327133
 6 -2.13392909380938  1.81051680858086  3.16548093829383
 6 -6.95353284648465  1.99320744994499  0.93042702860286
 6  3.08402473617362 -2.40811076227623 -1.30487173227323
 6  1.07110313761376  1.65012350575057  2.53915755165517
 6  2.95866394169417 -0.84128275387539 -1.12951693989399
 6  1.70435420562056 -4.47359332373237 -0.88689040594059
 6 -7.89995590159016  0.80533217081708 -2.03241162896290
 6  1.97710527612761 -5.19931086568657  0.36497249274928
 6  4.33047865686569 -3.00396886568657 -2.00141937323732
 6  3.95332620322032  0.14617402090209 -1.42102678507851
 6  2.61527214841484  1.61325891409141  2.93239913981398
 6  3.60938531633163  1.51489690119012 -1.04620118741874
 6 -9.06574155755576  0.90086224652465 -1.46032084738474
 6  1.31809687438744 -6.53810046024602  0.41318997799780
 6  4.53426226082608  2.67410416531653 -1.44936201930193
 6  3.84160342874287  3.79343986768677 -0.99809110341034
 6  2.48659022982298  3.36699455055506 -0.41648041074107
 6  5.69588319361936  2.44570941154115 -2.17419937503750
 6  4.19107472727273  5.18951382718272 -0.98560057345735
 6  6.57834789238924  3.43461914671467 -2.49868434533453
 1 -4.08572305840584  2.04609568966897  0.11840488078808
 1 -4.81617627452745 -0.81723319941994  1.19801454565457
 1 -4.86460330023002  1.02004600430043  2.14529143884388
 1 -2.85824486438644 -1.36840423592359 -0.23578049984999
 1 -3.45303630093009  0.63203512061206 -1.81791934283428
 1  0.49018345304530 -0.17910759875988  3.43566311441144
 1  1.44127813721372 -0.39484415181518  2.03358849164916
 1 -0.76637529842984 -2.94586205120512  0.19412441474147
 1 -3.25027517281728  2.00786205030503  3.40977096679668
 1 -1.69198041314131  1.61366072997300  4.04168255615562
 1 -1.55047142824283  2.66773059285929  2.61065848764876
 1 -6.31700515141514  2.59981878537854  1.68748098109811
 1 -7.70260002700270  1.37647745694570  1.58321533223322
 1 -7.71768770597060  2.74769085218522  0.35120360056006
 1  1.29077178557856  2.28738077467747  1.62793086038604
 1  0.55709882238224  2.35077189918992  3.33141896609661
 1  1.51832615901590  0.33221386638664 -0.19345471077108
 1  2.17443523572357 -4.81846567696770 -1.78981359105911
 1  0.57556935443544 -4.61673152065207 -1.24052253565357
 1 -7.93339440124012  0.53332356295630 -3.09415535373537
 1  1.76064825372537 -4.48598977867787  1.20911848844885
 1  2.94112038213821 -5.38490569506951  0.76985480038004
 1  3.95530059235924 -3.98594604680468 -2.42494595569557
 1  5.15530662906291 -2.95220407060706 -1.19720333793379
 1  4.60331176427643 -2.48633086568657 -2.89182825642564
 1  4.77958757825783 -0.10517261176118 -2.02564874057406
 1 -9.15229883038304  0.94585204070407 -0.34750744054405
 1 -10.03445157875788  0.74180559625963 -2.12577867786779
 1  4.12773746024603  2.76470985468547  2.95336010171017
 1  6.06720018821882  1.35540768996900 -2.51476029102910
 1  5.06978767856786  5.49616238043804 -0.50247886778678
 1  4.21646366886689  5.43114988068807 -2.17250979587959
 1  3.40325799539954  5.93887349374937 -0.48930067166717
 1  1.59046635473547 -8.34497565466547  1.30142619751975
 1  7.38716116051605  3.17968350825083 -2.83839111241124
 1  6.41013290079008  4.55103061526153 -2.05547790029003

