%nproc=4
%Mem=3GB
# td=(NStates=1) B3LYP/SVP 

TD

0 1
 8 -3.36559346954695 -1.44048910441044 -2.84436509080908
 8  3.19092954775478  3.10088174667467  3.06123039393939
 8  3.53186749494949  1.40937806610661  4.53221766536654
 8  7.66431503440344 -1.69400551475148 -0.49430019181918
 8  6.76986114251425 -2.81451224612461 -2.26503295139514
 8 -2.54815572207221  1.61195668476848  1.44936499699970
 7 -0.27830357655766 -2.41814812911291  0.89073391419142
 7 -2.69661169916992 -1.29502463746375 -0.65986813141314
 7  1.22833438283828  0.07659856955696 -0.76617155435544
 7 -1.03089223472347  1.43693910181018 -0.25477637553755
 6 -3.32596774647465 -1.29800736313631  0.64295126902690
 6 -2.73653227932793 -2.32431657785779  1.66929223602360
 6 -1.28134377607761 -2.02483029702970  1.82478046664666
 6 -0.51622142444244 -1.21844303600360  2.80396841734173
 6  0.77924903750375 -1.10593559455946  2.42796399099910
 6  0.94167685388539 -1.81919835453545  1.19784458845885
 6 -4.77639258585859 -1.90625627432743  0.35462234953495
 6  1.87428201960196 -0.36969729932993  3.17293944844484
 6 -4.88866522792279 -2.11091980038004 -1.01497183768377
 6  2.05098305470547 -1.87976616881688  0.29880215891589
 6  2.20556657855786 -0.98406031823182 -0.74905880738074
 6 -3.49889455935594 -1.60154211951195 -1.67217450085009
 6  3.10214127732773 -0.68312906120612 -1.74827872677268
 6 -1.29508808100810 -0.46270012701270  3.88281378967897
 6 -5.85287051115112 -2.05452193249325  1.29395040064006
 6  2.63383304020402  0.48784615281528 -2.45105971597160
 6  1.94510394279428  1.15828152015202  2.80749739133913
 6  1.38364173067307  0.90080672927293 -1.71829793579358
 6  4.26051140024002 -1.56333576267627 -2.09913954405441
 6 -5.83892822892289 -2.54920701110111 -2.01348479667967
 6  5.40576612761276 -1.07220896609661 -1.18745216211621
 6  3.14826492189219  1.13785218781878 -3.62926943614361
 6  0.60370279437944  2.06956210311031 -2.08889063416342
 6  2.99342798309831  1.86645623112311  3.61801714691469
 6 -0.63644747634763  2.25895052725273 -1.29608489638964
 6 -7.05547947444744 -3.23337710181018 -1.69237779647965
 6  6.68145771537154 -1.97613586868687 -1.41004169416942
 6 -1.45626428122812  3.47428966216622 -1.31906998169817
 6 -2.28236232563256  3.47168764776478 -0.17098500470047
 6 -2.10480275267527  2.04902583608361  0.45548448044804
 6 -1.34978495689569  4.52459872007201 -2.30777254525453
 6 -3.35031566806681  4.26214669756976  0.34731897159716
 6 -1.87376126732673  5.85544096229623 -2.29229296209621
 1 -3.29275776897690 -0.37719320922092  0.95215942054205
 1 -2.67515914231423 -3.43951907690769  1.21247159625963
 1 -3.15958577837784 -2.15275872027203  2.66572596129613
 1 -0.36154145894590 -3.02610137523752  0.05253226322632
 1 -1.95294368406841 -0.50042634613461 -0.86391049344934
 1  1.87415537693769 -0.68827028082808  4.22575467456746
 1  2.67148448134813 -0.90352224352435  2.96150107950795
 1  2.82253106700670 -2.68076965986599  0.46197925112511
 1 -1.91431406070607 -1.05577485148515  4.58423548534854
 1 -0.43659342734273  0.12144794119412  4.61467782428243
 1 -1.92331164496450  0.43851629832983  3.29142790809081
 1 -5.78769955715572 -1.47216534773477  2.17341163416342
 1 -6.05444420512051 -3.05032913751375  1.68089093539354
 1 -6.76310368716872 -1.89366500990099  0.56523288498850
 1  2.10588672807281  1.29105904780478  1.72342995429543
 1  1.04969492099210  1.56854909920992  2.95855382908291
 1  0.50552881048105  0.34338870867087 -0.16725875817582
 1  4.55187090629063 -1.39289234823482 -3.12599820172017
 1  4.04496532633263 -2.64336611581158 -1.79747685568557
 1 -5.61495363376338 -2.36756768136814 -3.08354181798180
 1  5.04279220052005 -0.80827130703070 -0.20212698899890
 1  5.74455589688969 -0.13223021912191 -1.33937842034203
 1  4.36564647614762  0.95288178027803 -3.95104333383338
 1  2.84603035463546  2.33253433213321 -3.47430976637664
 1  2.36577236653665  0.51144564246425 -4.57391054305431
 1  0.75750966096610  2.80681217771777 -2.82320321232123
 1 -7.29137822392239 -3.73025520942094 -0.75726474767477
 1 -7.75398366326633 -3.42971430193019 -2.44222727622762
 1  3.95027875537554  3.59958931993199  3.46349960416042
 1 -0.64382826162616  4.14255553505351 -3.13656155155516
 1 -4.04048263786379  4.78427500930093 -0.24917606910691
 1 -4.11097984768477  3.58018281188119  0.95949676107611
 1 -2.75912422862286  5.02126241734173  1.21134690459046
 1  8.45589128262826 -2.27106026022602 -0.83884451945195
 1 -1.68436136073607  6.63087354445445 -3.07451230343034
 1 -2.36459881278128  6.33806518231823 -1.26058196569657

