%nproc=4
%Mem=3GB
# td=(NStates=1) B3LYP/SVP 

TD

0 1
 8 -3.19163607380738 -1.38660371587159 -2.87249790409041
 8  2.95915637043704  3.08179983848385  3.04984925582558
 8  3.51721602980298  1.52365949424942  4.66890133373337
 8  7.74351295419542 -1.64215032923292 -1.00514127592759
 8  6.50032418881888 -3.28758955385539 -1.95084153225323
 8 -2.64394530103010  1.65656114521452  1.41728178867887
 7 -0.28947469366937 -2.32909922422242  0.97609245004500
 7 -2.63609564756476 -1.23298843384338 -0.67800994559456
 7  1.14268581798180  0.19620052975298 -0.70987592479248
 7 -0.99589873537354  1.49754516241624 -0.19895079297930
 6 -3.35500064976498 -1.26410397279728  0.56794376827683
 6 -2.70503913001300 -2.22428657485749  1.66238154495450
 6 -1.24699034073407 -1.92128994299430  1.88983697229723
 6 -0.45764556685669 -1.21032222392239  2.92407042754275
 6  0.83808492109211 -1.14189919091909  2.49129032363236
 6  0.92123480968097 -1.85545197989799  1.30225502950295
 6 -4.73650859745975 -1.86523217191719  0.22574946224622
 6  1.93088768016802 -0.51492182178218  3.14004615911591
 6 -4.77869423082308 -2.08873758215822 -1.06626696719672
 6  2.05643359975998 -1.84758295049505  0.33886616531653
 6  2.08595461736174 -0.88089000120012 -0.63213711521152
 6 -3.52095676557656 -1.53381534683468 -1.71107839123912
 6  3.06268733193319 -0.53109385768577 -1.82850674957496
 6 -1.16650522272227 -0.58137199419942  3.99601510981098
 6 -5.76151137523752 -2.12620910121012  1.23661466706671
 6  2.66019567646765  0.61586895509551 -2.35905051505150
 6  1.99466889928993  0.97206289828983  2.80329697129713
 6  1.41119448594859  1.05358200680068 -1.78178428442844
 6  4.19204455355536 -1.49481891099110 -2.02420205030503
 6 -5.80084442054205 -2.55056714711471 -1.94602805100510
 6  5.46729228022802 -1.08887063226323 -1.36387980488049
 6  3.22146224162416  1.14800320292029 -3.62415892509251
 6  0.64478690279028  2.11019616651665 -1.99165091019102
 6  2.89773841414141  1.86441602710271  3.63517886308631
 6 -0.59707353895390  2.31067569976998 -1.19280456835684
 6 -6.96394032053205 -3.23803756785679 -1.76488504720472
 6  6.63182275187519 -2.13195145024502 -1.52309299929993
 6 -1.48963761856186  3.46944917811781 -1.27389546424642
 6 -2.36230031943194  3.32300277927793 -0.24873277947795
 6 -2.06864913731373  2.05665659915992  0.40880981298130
 6 -1.25585556395640  4.53129939013901 -2.20193196119612
 6 -3.46464710121012  4.27181766466647  0.19705394509451
 6 -1.97720161136114  5.59666508470847 -2.32719645244524
 1 -3.31102959615962 -0.37206269616962  1.17239144374437
 1 -2.99268089448945 -3.25665079007901  1.23585393449345
 1 -3.20079989978998 -2.13038648304831  2.60885027372737
 1 -0.28951425622562 -2.81570033513351  0.09336634663466
 1 -1.94761315101510 -0.47761406490649 -0.62298640104010
 1  1.61027898929893 -0.44809626342634  4.26190828992899
 1  2.99993732663266 -0.99143103440344  3.10568549794979
 1  2.94971378527853 -2.60405198809881  0.32759581278128
 1 -1.76837946724673 -1.31346062006201  4.59841690349035
 1 -0.50446021402140  0.11761755815582  4.65583193969397
 1 -2.00811012481248  0.00853330003000  3.49405817111711
 1 -5.52943373057306 -1.69782791399140  2.17809210221022
 1 -5.75519428012801 -3.13703780838084  1.47994084038404
 1 -6.69506688348835 -1.96256189958996  0.67387374907491
 1  2.31113725312531  1.14089403130313  1.74127173847385
 1  0.96085603710371  1.35331757605761  2.72133010671067
 1  0.22281053865387  0.47088145794579 -0.03918595089509
 1  4.39503522272227 -1.31245430443044 -3.14716031793179
 1  3.75628645844584 -2.46787856705671 -1.91165827382738
 1 -5.66398853725372 -2.49190011461146 -3.08613207700770
 1  5.22498041934193 -1.03722420232023 -0.34442121842184
 1  5.80722216351635 -0.03270026612661 -1.74940942344234
 1  4.19722963446345  0.85260175227523 -4.11882011151115
 1  3.55421117271727  2.21260233893389 -3.30577291269127
 1  2.46001179047905  1.31334583248325 -4.35001815381538
 1  0.82037594759476  2.94823632013201 -2.66083697569757
 1 -7.29687877397740 -3.31707389128913 -0.62049107030703
 1 -7.56674493939394 -3.63516484698470 -2.56768982248225
 1  3.53667739523952  3.64510387138714  3.66688994319432
 1 -0.52009588838884  4.23051433093309 -3.07694558995900
 1 -4.18618720832083  4.59578616041604 -0.50618176967697
 1 -3.99149789948995  3.84102889648965  1.01889270067007
 1 -3.02885120132013  5.15025531663166  0.69699546944694
 1  8.55490118361836 -2.26631978617862 -1.16218685368537
 1 -1.95848877347735  6.33589404650465 -3.07030188238824
 1 -2.86186853975397  5.61664304010401 -1.87481338883888

