%nproc=4
%Mem=3GB
# td=(NStates=1) B3LYP/SVP 

TD

0 1
 8 -3.25530244044404 -1.33397845334533 -2.80713136743674
 8  3.09463991879188  2.99520117861786  2.83498776967697
 8  3.65785009320932  1.50353748204820  4.43389783338334
 8  7.63234183708371 -1.61061717591759 -0.61497225902590
 8  6.60738489488949 -3.02176297119712 -2.06195264336434
 8 -2.63940484698470  1.68744423352335  1.54012407290729
 7 -0.25901164736474 -2.35356167046705  0.93203804460446
 7 -2.59836187418742 -1.13696883188319 -0.50026217081708
 7  1.08303985338534  0.03134404410441 -0.79719465666567
 7 -1.03371251675168  1.46307171507151 -0.15017591549155
 6 -3.37922307200720 -1.22869043144314  0.64345131903190
 6 -2.71493011911191 -2.34824897109711  1.61212651945195
 6 -1.18442408410841 -2.05672348634863  1.83482147074707
 6 -0.55547534983498 -1.18347953965397  2.76654467496750
 6  0.78966007860786 -1.16159116011601  2.49767096169617
 6  0.89557224342434 -1.82256869156916  1.18967377137714
 6 -4.70327527412741 -1.97621327002700  0.21602849014901
 6  1.88679327072707 -0.41307163676368  3.21146330083008
 6 -4.75272163356336 -2.10380908930893 -1.11665200570057
 6  2.04154211061106 -1.93526171837184  0.32078435713571
 6  2.03501952385239 -0.92095400760076 -0.65727962946295
 6 -3.39145381528153 -1.49895186048605 -1.68577586098610
 6  2.96545760896090 -0.65647639593959 -1.81489538843884
 6 -1.32751132333233 -0.39809366636664  3.86479198749875
 6 -5.82579780388039 -2.31204768506851  1.20380138573857
 6  2.52717237413741  0.45025239343934 -2.48892350235023
 6  1.87501693409341  1.00374606660666  2.68523516511651
 6  1.36468983548355  0.87284393299330 -1.82713881988199
 6  4.18989433853385 -1.45429485858586 -2.10642027212721
 6 -5.74126846294629 -2.53900599099910 -1.99747319551955
 6  5.40571612261226 -1.06126787198720 -1.15831924882488
 6  3.12803289868987  1.19976837943794 -3.69655616481648
 6  0.43899632373237  2.00127527442744 -2.04869661476148
 6  3.00229887018702  1.82681226672667  3.47262260746075
 6 -0.57945177677768  2.23417805000500 -1.14568985688569
 6 -6.81650557705770 -3.46030979507951 -1.78501706040604
 6  6.60233980358036 -2.02561081618162 -1.29076976697670
 6 -1.42439109390939  3.62163439663966 -1.14167224192419
 6 -2.28176226562656  3.41925240424042 -0.13027093329333
 6 -2.03051532393239  2.15116605010501  0.52136106810681
 6 -1.29945992439244  4.56685294549455 -2.16461822982298
 6 -3.24444508100810  4.49669015191519  0.22794703440344
 6 -1.81853574477448  5.83431885008501 -2.20181391419142
 1 -3.61013950715071 -0.28390388028803  1.13516772137214
 1 -3.01160278667867 -3.44008913391339  1.22166251535154
 1 -3.21287110691069 -2.21311475587559  2.65958534723472
 1 -0.57273257805781 -3.00742950805081  0.22995000500050
 1 -1.99051744144414 -0.24446074957496 -0.73173727612761
 1  1.61186914831483 -0.55626708050805  4.40437253635363
 1  2.81804913781378 -1.03086497779778  2.97004193359336
 1  2.71060987488749 -2.63943552645264  0.23928698189819
 1 -2.06687931723172 -0.94142341634163  4.56483354515451
 1 -0.44127389538954  0.11572736913691  4.35392174867487
 1 -2.00382969676968  0.47201964866487  3.52093085838584
 1 -5.59374016121612 -1.79834796599660  2.11627592059206
 1 -5.76354511521152 -3.43207731233123  1.53277612391239
 1 -6.92375975277528 -2.27174281768177  1.01986834853485
 1  2.14484062346235  1.13615355725573  1.64665227652765
 1  0.95159511101110  1.64874711901190  2.69677765146515
 1  0.34104236183618  0.22153652345235 -0.22156418871887
 1  4.55562128132813 -1.34113717271727 -3.18102370427043
 1  3.94047487728773 -2.54501628082808 -1.90887799579958
 1 -5.66001814021402 -2.59904082868287 -3.20322378617862
 1  5.13578149944995 -1.15131561146115 -0.12611938823882
 1  5.58411985328533 -0.05778277437744 -1.38267274977498
 1  4.02294220572057  0.61192768486849 -4.12979120862086
 1  3.50188594019402  2.18486956565657 -3.31867420282028
 1  2.31324711401140  1.38825332323232 -4.44620777277728
 1  0.63776768676868  2.71106260276028 -2.84198509050905
 1 -6.91902098819882 -3.85521770567057 -0.68495751695170
 1 -7.64268253315332 -3.74342567306731 -2.35295834933493
 1  3.87311103860386  3.56392575357536  3.32105535973597
 1 -0.49537341614161  4.32790406990699 -2.95130302570257
 1 -4.04077266686669  4.52343892569257 -0.66739789128913
 1 -3.58708745844584  4.15768056165617  1.18349916131613
 1 -2.75165348154815  5.47862815391539  0.45253102300230
 1  8.35444113761376 -2.15548870307031 -0.55224585958596
 1 -1.56907983258326  6.22843330043004 -3.07188204040404
 1 -2.57618997189719  6.15567694349435 -1.51193710121012

