%nproc=4
%Mem=3GB
# td=(NStates=1) B3LYP/SVP 

TD

0 1
 8 -3.16724363456346 -1.40074513001300 -2.87292794709471
 8  3.41528198299830  3.09759141764176  3.24227849874987
 8  3.69629393759376  1.14106123442344  4.51677612121212
 8  7.76937554045405 -1.44976109030903 -0.87912867466747
 8  6.75440959735974 -3.01859265416542 -2.05208165626563
 8 -2.56283719021902  1.74806029512951  1.48610867136714
 7 -0.31001674787479 -2.36271258555856  0.98893373417342
 7 -2.67574961296130 -1.19972510751075 -0.61489363396340
 7  1.14308585798580 -0.00220931123112 -0.69183412061206
 7 -0.96436558205821  1.52322773067307 -0.18765966386639
 6 -3.37877302700270 -1.26261382378238  0.58660563446345
 6 -2.75392401850185 -2.26860100630063  1.71129643644364
 6 -1.32242788448845 -1.97620543454345  1.87445543414341
 6 -0.63732353465347 -1.14880607230723  2.83669168966897
 6  0.74292540514051 -1.09758475947595  2.45863705830583
 6  0.81157384358436 -1.74986142084208  1.19608441244124
 6 -4.75799074567457 -1.89509515821582  0.23744063136314
 6  1.76822141354135 -0.25208553815382  3.11957411191119
 6 -4.69891625302530 -2.06136484488449 -1.07794813531353
 6  2.02483043944394 -1.93792198439844  0.35829810851085
 6  2.19846586848685 -0.89353126532653 -0.56810071157116
 6 -3.42950762066207 -1.59164112941294 -1.66937422082208
 6  3.02670373357336 -0.69856060436044 -1.67858175707571
 6 -1.39918849104911 -0.46237009400940  3.90971647994799
 6 -5.93506873097310 -2.00912739303930  1.18030903650365
 6  2.50038969586959  0.32214958315832 -2.48755336533653
 6  1.81024045644564  1.19892558455846  2.81243788538854
 6  1.35905927242724  0.86907355595560 -1.79926603260326
 6  4.17263261236124 -1.53328275737574 -2.05618524862486
 6 -5.74292862896290 -2.57708979937994 -1.98827227542754
 6  5.47551310231023 -1.07908965416542 -1.37020043694369
 6  3.10010010541054  1.07370577317732 -3.62659916911691
 6  0.46138856295630  1.96635178207821 -2.09432117721772
 6  3.10338897919792  1.67174676017602  3.69673501870187
 6 -0.66523035463546  2.33915854805481 -1.24758004590459
 6 -6.78507243374337 -3.42186595069507 -1.81903046174617
 6  6.65067463706371 -1.92689094419442 -1.50555124512451
 6 -1.52430108490849  3.47111934513451 -1.27534560926093
 6 -2.38405249464947  3.39047952695270 -0.20663857005701
 6 -2.05223749614961  2.13894482798280  0.47131606360636
 6 -1.38545852425243  4.55352161236124 -2.28903067106711
 6 -3.34592522902290  4.27905838873887  0.34717895759576
 6 -2.02273616481648  5.75864128232823 -2.38351208400840
 1 -3.39288778197820 -0.24825031493149  1.13936814141414
 1 -2.94279590599060 -3.20702582758276  1.24644499359936
 1 -3.09483930373037 -2.08762220662066  2.62383177187719
 1 -0.50519582438244 -2.82978174327433  0.05636264626463
 1 -1.96957534723472 -0.54814111761176 -0.66752085448545
 1  1.67932589398940 -0.33235468926893  4.24513661276128
 1  2.82208954185419 -0.92934482578258  2.73988891829183
 1  2.74632344624462 -2.84278586148615  0.56603965716572
 1 -2.15016764606461 -0.87270654465447  4.48709577137714
 1 -0.66785655365537 -0.01254545814581  4.62480883738374
 1 -1.79638895269527  0.19044149084908  3.27763652895290
 1 -5.73406419361936 -1.25956408760876  2.17748204120412
 1 -6.06827558825883 -3.07169127372737  1.60376322262226
 1 -6.85576295309531 -1.93490913431343  0.62832919461946
 1  1.94268040744074  1.36236617851785  1.77205481678168
 1  1.01531148264826  1.66761900620062  3.08814678837884
 1  0.57142540014001  0.21450582038204  0.18319628732873
 1  4.39552527172717 -1.28117117611761 -3.16997259915992
 1  3.86910774057406 -2.56968874807481 -1.56867397539754
 1 -5.53384552295230 -2.28962988758876 -2.98127159095910
 1  5.41371929322932 -0.85288576847685 -0.08982575887589
 1  5.85084652595260 -0.15364236033603 -1.74190867336734
 1  3.83970388188819  0.33724021612161 -4.23446167566757
 1  3.68121387298730  1.94957603630363 -3.48732106750675
 1  2.40736652595260  1.53783828172817 -4.23049620162016
 1  0.64047795779578  2.73798529502950 -2.78597948994899
 1 -6.93119220532053 -4.09714189808981 -0.81300032123212
 1 -7.32377064196420 -3.62907423792379 -2.83320637413741
 1  4.24471819931993  3.13507286828683  3.99502275647565
 1 -0.70854473327333  4.47787906740674 -3.17731562696270
 1 -4.22271086068607  4.50074665646565 -0.38393954545455
 1 -3.64140288998900  3.91927672127213  1.34141495289529
 1 -2.81645996219622  5.32750304140414  0.37629339923992
 1  8.56855254875488 -1.98205135933593 -1.19754038903890
 1 -1.71248417301730  6.50452090919092 -3.33840869306931
 1 -2.73351570447045  6.15180655645565 -1.71625753325333

