%nproc=4
%Mem=4GB
# td=(NStates=1) B3LYP/SVP 

TD

0 1
 8 -5.44709093909391 -0.05043960436044 -3.23155294499450
 8  2.94875488098810  3.01640889558956  3.10304638303830
 8  3.24939328792879  0.79945534453445  3.06901878697870
 8  1.40803844334433 -7.08842511261126  1.53366187248725
 8  0.52527741574157 -6.91007743134313 -0.59122710561056
 8  1.79822687078708  3.96762988578858 -0.03798429102910
 7 -2.39712932403240 -1.04768319851985  0.63128014461446
 7 -4.47132201360136  0.54386205270527 -1.23886224102410
 7  1.88189858145815 -0.65686725972597 -0.40010848844884
 7  2.72211775367537  1.85255100060006 -0.47916466316632
 6 -4.82326871807181  1.24891638863886  0.04722052185219
 6 -4.38683607640764  0.38728889418942  1.24457181488149
 6 -2.96951204680468 -0.00173991729173  1.42048406140614
 6 -1.96240533723372  0.65253021022102  2.10272344194419
 6 -0.72413902420242 -0.00530596609661  1.69624030163016
 6 -0.99747393519352 -0.99045210411041  0.77715953535354
 6 -6.24447680378038  1.31749953925393 -0.10394560996100
 6  0.60489909650965  0.25351602810281  2.27949696979698
 6 -6.78779929442944  0.78701795019502 -1.25664139283928
 6 -0.25878213431343 -1.87358609550955  0.06717879937994
 6  1.13695059125913 -1.87785733233323 -0.35682726492649
 6 -5.48700930123012  0.39164737943794 -2.12664997649765
 6  2.05201928712871 -2.87235777417742 -0.87052406170617
 6 -2.14591029192919  1.70863662056206  3.13997838803880
 6 -7.13035052825283  1.94765289448945  1.01294528042804
 6  3.16606293999400 -2.30785073627363 -1.37767901300130
 6  1.13475950325032  1.73316180958096  2.55063869976998
 6  3.15514358965897 -0.93238186378638 -1.03915790399040
 6  1.54847861806181 -4.40304626902690 -1.02906462336234
 6 -8.07247315331533  0.50695233283328 -1.97659604740474
 6  1.72809037463746 -5.06494742934293  0.33120911641164
 6  4.31044665366537 -2.92425089388939 -2.15109434073407
 6  4.05865673627363  0.08642804630463 -1.31650633303330
 6  2.54584520572057  1.75148273647365  2.97096299619962
 6  3.86587096489649  1.47507291879188 -1.06300286758676
 6 -9.37557254065407  0.64953711401140 -1.30304511981198
 6  1.22894795949595 -6.46562321252125  0.33246190519052
 6  4.70040887548755  2.62592934783478 -1.44152123522352
 6  4.00624989338934  3.78196872057206 -1.00774206850685
 6  2.75910748154815  3.25921377247725 -0.46943570627063
 6  6.09405301060106  2.46140098069807 -1.90539249434944
 6  4.35890150995099  5.22758763456346 -1.02925493889389
 6  6.92339239683968  3.45356104090409 -2.45423990089009
 1 -4.25315980208021  2.18129921002100  0.20957399769977
 1 -4.84994965186519 -0.54063553965397  1.19561430563056
 1 -4.68919575947595  0.92320632033203  2.09544645434543
 1 -3.01733077297730 -1.68249564506451 -0.16497341914191
 1 -3.48565956325633  0.38616053315332 -1.52301985288529
 1  0.46316075077508 -0.19571925992599  3.31644119221922
 1  1.33254726412641 -0.22335700310031  1.74688982178218
 1 -0.86287494839484 -2.85737320232023 -0.07158215591559
 1 -3.26409655495550  2.05088635273527  3.36079606930693
 1 -1.89004021912191  1.69450881478148  4.30577896579658
 1 -1.63220960206021  2.72645646544654  2.83030045184518
 1 -6.72834628552855  2.83926272977298  1.55702793579358
 1 -7.52133190019002  1.04998480768077  1.77468447914792
 1 -8.10822675987599  2.50853693679368  0.54462294249425
 1  1.04954766316632  2.43857589418942  1.55513358065807
 1  0.35220833333333  2.16186300830083  3.31751757595760
 1  1.71230555695570  0.37473811881188 -0.42278764406441
 1  2.26956474867487 -4.67413124352435 -1.77513212291229
 1  0.43678547604760 -4.42563241074107 -1.51560004340434
 1 -7.98056911871187  0.14294452505251 -2.93403934213421
 1  1.13154534343434 -4.65103628332833  1.15115269186919
 1  2.94918118821882 -4.86686389088909  0.59374718961896
 1  3.98191325362536 -3.92506995919592 -2.44574803590359
 1  5.26863796219622 -3.17222607280728 -1.42231584918492
 1  4.56929836293629 -2.36456868946895 -3.14057313091309
 1  4.92067168666867 -0.19270136463646 -1.68236441214121
 1 -9.46713031353135  0.82890034553455 -0.19081177097710
 1 -10.17090522412241  0.57452886858686 -2.17789388938894
 1  3.94334902140214  2.87787117081708  3.25138990469047
 1  6.28804227242724  1.43672582178218 -1.87089590459046
 1  5.29717041684168  5.34139690389039 -0.42069068896890
 1  4.35051707420742  5.51185795149515 -2.01287383228323
 1  3.50694836443644  5.85348495489549 -0.58855059665967
 1  0.99655696379638 -7.93599475657566  1.56870292519252
 1  7.91979442384238  2.98717425732573 -2.69752702600260
 1  6.41915380288029  4.45958147034704 -2.36586893939394

