%nproc=4
%Mem=3GB
# td=(NStates=1) B3LYP/SVP 

TD

0 1
 8 -3.10597750795079 -1.44408946444644 -2.83542419671967
 8  3.31717217201720  2.93635529402940  3.11580585148515
 8  3.47439174737474  1.41164829312931  4.84143858745875
 8  7.74572317521752 -1.33755987018702 -0.98370913271327
 8  6.71371552795279 -3.01152194709471 -2.10373682178218
 8 -2.55651655815582  1.75394088318832  1.47650771127113
 7 -0.26993273947395 -2.37943425772577  0.96990183098310
 7 -2.60442248024802 -1.27365250025002 -0.57985012961296
 7  1.24674622402240  0.10545145484548 -0.73735867306731
 7 -1.06871601710171  1.40168557645765 -0.23305420332033
 6 -3.39764491419142 -1.31550911331133  0.62978995289529
 6 -2.73994262036204 -2.30434458065807  1.60395570237024
 6 -1.29368501020102 -2.00091790579058  1.78559654825483
 6 -0.52535233753375 -1.25501669336934  2.82801082158216
 6  0.74458557115712 -1.13061806280628  2.50766196079608
 6  1.00253293949395 -1.83218965366537  1.24469927392739
 6 -4.66276122272227 -1.77994364306431  0.26729361666167
 6  1.73070766216622 -0.38895922552255  3.35573772827283
 6 -4.78831519291929 -1.93953266166617 -1.06717705820582
 6  2.08624658105811 -1.90464865706571  0.30208248694869
 6  2.08158418031803 -0.97460937313731 -0.70625452695270
 6 -3.39663433333333 -1.52614457975798 -1.70292757615762
 6  3.01470253345335 -0.68249899819982 -1.74148804770477
 6 -1.30591916411641 -0.33555741274127  3.86157166546655
 6 -5.88758398249825 -2.02385886618662  1.22736374197420
 6  2.57201685858586  0.42321969016902 -2.55359996999700
 6  1.95094452685269  1.05904159615962  2.95650229182918
 6  1.35716908340834  0.86880352895290 -1.79316542254225
 6  4.22071742084208 -1.54275370447045 -2.02407203730373
 6 -5.87172150825082 -2.36746883728373 -1.96648009620962
 6  5.46979253025303 -1.09657140234023 -1.28373179007901
 6  3.19818991439144  1.05196359895990 -3.70124663386339
 6  0.46790921502150  1.98464361126113 -2.06595834093409
 6  3.06785542584258  1.77162674817482  3.68062340754075
 6 -0.61776560816082  2.24432906510651 -1.15952124002400
 6 -7.00373429992999 -3.14899866396640 -1.73675223392339
 6  6.67323689328933 -1.95600385548555 -1.55606629662966
 6 -1.42048070287029  3.48749098229823 -1.21207928262826
 6 -2.40178426782678  3.29074955395540 -0.31913982018202
 6 -2.02793506590659  2.06327726122612  0.46893582558256
 6 -1.27792777117712  4.50505676587659 -2.15621738973897
 6 -3.44889552605261  4.22611309420942  0.11694593429343
 6 -2.13455734693469  5.60332575077508 -2.40273400620062
 1 -3.53257175037504 -0.31595708560856  1.06062026662666
 1 -2.97073870027003 -3.32430755575558  1.22284263336334
 1 -3.28656847664766 -2.33795724012401  2.62965235393539
 1 -0.48130343514351 -2.79520828592859  0.08795580558056
 1 -1.90618900860086 -0.48357466096610 -0.72625672807281
 1  1.44521248264827 -0.34515596939694  4.47717981708171
 1  2.83787112001200 -0.81223311461146  3.09348427782778
 1  2.86506532043204 -2.84129571247125  0.14089714291429
 1 -1.82694532383238 -1.15083435743574  4.47812487428743
 1 -0.53188295629563  0.40680647704770  4.35113146964696
 1 -1.95524483828383  0.33404585128513  3.32278104340434
 1 -5.46005679287929 -1.46188431963196  2.02030632363236
 1 -5.82520128082808 -3.15958006260626  1.51886473277328
 1 -6.83206058285829 -1.79115475887589  0.79186554825483
 1  2.03271941134113  1.21002094399440  1.78457606890689
 1  1.09709966146615  1.81507375167517  3.20302827652765
 1  0.29003726132613  0.04732910271027 -0.25465749804981
 1  4.32526824602460 -1.65169822882288 -3.16383198509851
 1  4.00218104790479 -2.55227700690069 -1.66043315131513
 1 -5.69994213261326 -1.83818474307431 -2.91107457125713
 1  5.16254417571757 -1.05946642654265 -0.15214199049905
 1  5.68211965326533 -0.00274727082708 -1.60816529902990
 1  4.13519343084308  0.74255074717472 -4.00657888738874
 1  3.36236198779878  2.11996307500750 -3.24791712711271
 1  2.55753154245425  1.16041053895390 -4.53543669566957
 1  0.95810972097210  2.51672316881688 -2.76741763376338
 1 -7.12197128322832 -3.69005118901890 -0.73000202140214
 1 -7.74651291619162 -3.40715204570457 -2.43442649614962
 1  3.93787751525153  3.46085544654465  3.72864611881188
 1 -0.51987586638664  4.65384666416642 -2.97856575197520
 1 -4.29394798439844  4.11051763356336 -0.53336448794880
 1 -4.09717846754675  3.78818361196120  1.00908171957196
 1 -3.12078039423942  5.36503679477948  0.29209497939794
 1  8.56027172067207 -2.06885003920392 -1.38199883488349
 1 -1.87898082268227  6.13877433453345 -3.26891174337434
 1 -2.93441579447945  5.81520289608961 -1.62256816431643

