%nproc=4
%Mem=3GB
# td=(NStates=1) B3LYP/SVP 

TD

0 1
 8 -3.28182509270927 -1.18157321282128 -2.85281593589359
 8  3.12244269906991  3.09142080058006  3.07675194609461
 8  3.57832214041404  1.41387851615161  4.45183962756276
 8  7.70787939083908 -1.22790890509051 -0.83996475827583
 8  6.69566372277228 -3.11560235513551 -1.64107055515552
 8 -2.68045895239524  1.61858734783478  1.42904296479648
 7 -0.29794554075408 -2.43278959325933  0.94681952275228
 7 -2.64497653565357 -1.28535367036704 -0.59561170577058
 7  1.13246479587959  0.06310722042204 -0.79656459365937
 7 -1.00029917541754  1.44927033493349 -0.16948784668467
 6 -3.46324147384738 -1.43557111951195  0.65501247514751
 6 -2.69399802590259 -2.39258340454045  1.68356366316632
 6 -1.19282492419242 -2.10076789078908  1.83374136273627
 6 -0.46120592289229 -1.39212040374037  2.83970199069907
 6  0.83756486908691 -1.24522952395240  2.44102529712971
 6  0.98712139833983 -1.84423085778578  1.19180398439844
 6 -4.72476742334233 -1.92793844254425  0.33434032133213
 6  1.91584617601760 -0.36300663026303  3.22922507700770
 6 -4.78071443284328 -1.95919462786279 -1.08591893239324
 6  2.00079803620362 -1.91531972417242  0.25608788748875
 6  2.12446846874687 -0.93761567376738 -0.66162006350635
 6 -3.53764843474347 -1.38483044834483 -1.64688197159716
 6  2.99791085428543 -0.63982473077308 -1.80972487138714
 6 -1.17724629682968 -0.69988384538454  4.09299480778078
 6 -5.76497172127213 -2.17754423472347  1.31822282788279
 6  2.61942159905991  0.44178154635464 -2.56331094109411
 6  2.00895032743274  1.06387207920792  2.66727336893689
 6  1.38683204970497  0.92866951555155 -1.90069617561756
 6  4.23721907100710 -1.43598302740274 -2.13418304840484
 6 -5.95453979007901 -2.22739482988299 -1.95866931513151
 6  5.47319287028703 -1.00592233743374 -1.21315473237324
 6  3.13049314471447  1.09826822942294 -3.75404191339134
 6  0.47216964106411  2.02918806570657 -2.01255300040004
 6  2.94727336763676  1.85477506300630  3.50508585378538
 6 -0.59786361796180  2.26526115831583 -1.18157344524452
 6 -7.03049697619762 -3.01272503660366 -1.83803236193619
 6  6.61211078067807 -1.94966322142214 -1.26743743374337
 6 -1.37882653745375  3.44016624982498 -1.23551162586259
 6 -2.28274236363636  3.38397887688769 -0.17088499469947
 6 -2.06367864026403  2.02080301380138  0.45075400740074
 6 -1.20537051545155  4.45987224742474 -2.28616038403840
 6 -3.41190182668267  4.25269575247525  0.16123036273627
 6 -1.90961485268527  5.61720713891389 -2.49485321812181
 1 -3.56950544374437 -0.38247373727373  1.30058426302630
 1 -2.61554318071807 -3.47643276827683  1.50445079417942
 1 -3.11501132093209 -2.58033147754775  2.67655704440444
 1 -0.35385068986899 -2.97740650575057  0.10914792479248
 1 -1.92563095279528 -0.49975627912791 -0.42798690109011
 1  1.82989095049505 -0.62616407020702  4.37637973707371
 1  2.88881621452145 -0.78940083138314  3.01958688808881
 1  2.69827864176418 -2.70593217611761  0.36732978617862
 1 -1.88497112641264 -1.50377965196520  4.65149221102110
 1 -0.56138590659066 -0.31885608920892  4.75121147764777
 1 -1.90560987478748  0.05521796849685  3.60448921422142
 1 -5.59670045724572 -1.61310944214421  2.33791808480848
 1 -5.90554931563156 -3.28459256385639  1.42562540884088
 1 -6.97115449224922 -1.97787343074307  1.36474283598360
 1  2.10824696409641  0.96599654155415  1.50605821712171
 1  1.17593754525453  1.65752799709971  2.91258923262326
 1  0.33023128072807  0.34439880968097 -0.25432746504651
 1  4.47396311551155 -1.26674973397340 -3.14382998489849
 1  4.26717754755476 -2.58746052525253 -1.80265737373737
 1 -5.75699783818382 -1.94087501210121 -3.02687615141514
 1  5.12179010031003 -0.88072855275528 -0.16259303560356
 1  5.83812525382538  0.02606561046105 -1.54542902540254
 1  4.00898080958096  0.53479997209721 -4.02621085058506
 1  3.22823857545755  2.14042512121212 -3.38336067146715
 1  2.37044283358336  1.14634913281328 -4.52044519651965
 1  0.32854676467647  2.82621411791179 -3.04794568656866
 1 -7.28517760386039 -3.46200838473847 -0.91405042624262
 1 -7.85885415031503 -2.99907123762376 -2.42517557105711
 1  3.49653338083808  3.63783314431443  3.71095434963496
 1 -0.42029590839084  4.32285356485649 -2.98198609400940
 1 -4.11896048564857  4.34401098289829 -0.44712586408641
 1 -4.02820156985699  3.74464925852585  0.93499431083108
 1 -2.92214053025303  5.24020431153115  0.45247101700170
 1  8.46385207870787 -2.02117527172717 -0.93330396539654
 1 -1.55238816341634  6.50772122922292 -3.05993084528453
 1 -2.68146049894989  5.98500987678768 -1.96720262776278

