%nproc=4
%Mem=4GB
# td=(NStates=1) B3LYP/SVP 

TD

0 1
 8 -5.28803503350335  0.06228166776678 -3.28403819351935
 8  2.98005801130113  3.01501875657566  3.41863794219422
 8  3.32609095769577  0.86863226222622  3.01503338843884
 8  1.32053969346935 -7.10727699779978  1.54147265356536
 8  0.59161404940494 -7.05707213081308 -0.60003798669867
 8  1.76818386648665  3.91833495629563  0.06444595199520
 7 -2.31092070317032 -1.05324375457546  0.66160317691769
 7 -4.39559444084408  0.58489615611561 -1.23027138193819
 7  1.84532492409241 -0.67201877487749 -0.52350082768277
 7  2.59460500240024  1.87508325382538 -0.63320006670667
 6 -4.74614100530053  1.15064656165617 -0.02332653285329
 6 -4.28047544034403  0.29604977027703  1.18780613831383
 6 -2.89631472707271  0.02244250095009  1.34058607160716
 6 -1.87688678537854  0.66338129532953  2.03120629022902
 6 -0.69836644694469  0.03594815931593  1.70577125472547
 6 -0.90478466626663 -0.97749080798080  0.77882970237024
 6 -6.28139049514952  1.22414020332033 -0.07742295769577
 6  0.70391899849985  0.19039971647165  2.40914993509351
 6 -6.68751926642664  0.81293054145415 -1.32891862056206
 6 -0.12035829192919 -1.95824456135614  0.15458754025403
 6  1.11836873307331 -1.76999654625463 -0.32993457565757
 6 -5.47502810311031  0.36817503220322 -2.07285459695970
 6  1.92170625582558 -2.84203474187419 -0.81532854215422
 6 -2.12270797169717  1.80990674757476  3.04871926212621
 6 -7.18890638383838  1.79193732293229  0.96056004190419
 6  3.08564489818982 -2.35226517771777 -1.32206345144514
 6  1.16477250455045  1.70009850325033  2.61180481638164
 6  3.10357843314331 -0.91197982358236 -1.07380136833683
 6  1.56359012921292 -4.35999196359636 -0.99293101000100
 6 -7.99782568856886  0.67490912851285 -1.94664305210521
 6  1.72306987258726 -5.09155008960896  0.29433542904290
 6  4.23977958695870 -2.96595506430643 -1.88620785208521
 6  3.94567543814381  0.07626703020302 -1.48485316771677
 6  2.60686130733073  1.81942953115312  3.02476837673767
 6  3.69613399119912  1.44946035753575 -1.13096966426643
 6 -9.23484846824683  0.76940910121012 -1.38552336763676
 6  1.11391645634563 -6.47564421462146  0.33772243124312
 6  4.60302913751375  2.64661141604160 -1.42672975607561
 6  3.90658992739274  3.70751127482748 -0.98902019631963
 6  2.59816138693869  3.31422927402740 -0.50363912661266
 6  5.92162576787679  2.49807464806481 -2.11242319741974
 6  4.33306892669267  5.17874275007501 -1.07312932633263
 6  6.76096615421542  3.49687537233723 -2.42055653255326
 1 -4.27281176727673  2.12942402250225  0.31122416271627
 1 -4.91470612751275 -0.74652612871287  1.27426217041704
 1 -4.75090193009301  0.70317431713171  2.09467637733773
 1 -2.66151519141914 -1.68955635113511  0.16084916311631
 1 -3.39053005030503  0.48693061016102 -1.40921847274727
 1  0.81814624932493 -0.12815250325032  3.42883243134313
 1  1.53251726112611 -0.28660332773277  1.89028416121612
 1 -0.66390505140514 -2.93950141514151  0.05239024132413
 1 -3.16934708000800  1.51514277837784  3.45427541724172
 1 -1.63999521462146  1.57363672757276  4.13389177707771
 1 -1.73352973407341  2.80023384318432  2.63724114591459
 1 -6.62029548044804  2.61261006450645  1.47180941394139
 1 -7.29037880488049  0.98144795399540  1.77592460316032
 1 -8.13918985618562  2.23894997809781  0.62576105630563
 1  1.28062077047705  2.38368040464046  1.58511657895790
 1  0.61683479597960  2.29120594259426  3.34085991019102
 1  1.59853417981798  0.40686133113311 -0.37123248854885
 1  2.18422621482148 -4.80348417881788 -1.78211282098210
 1  0.48847064456446 -4.58288813631363 -1.12056053945395
 1 -7.93702476427643  0.63129335993599 -3.03795973417342
 1  1.27099928882888 -4.55043622332233  1.12383996059606
 1  2.84786105620562 -5.07074427892789  0.62098991389139
 1  3.98355341764176 -3.91355880808081 -2.20511397249725
 1  5.21890298869887 -2.95720457065707 -1.17560117771777
 1  4.68468990209021 -2.39143137573757 -2.80518959255926
 1  4.90027964746475 -0.47187928242824 -1.99859603530353
 1 -9.42295589608961  0.75565302080208 -0.23449613941394
 1 -10.16572470607061  1.06785820152015 -1.91924802480248
 1  3.96785147164716  2.98021140484048  3.74180894659466
 1  6.44081754995499  1.47732988218822 -2.41559037403740
 1  5.07091779157916  5.54295705990599 -0.17296591649165
 1  4.60408243074307  5.68365513121312 -2.08959150405040
 1  3.39367703730373  5.75397500390039 -0.62730447204721
 1  0.85762307040704 -8.23994515161516  1.55110116501650
 1  7.75175762016202  3.28564410431043 -3.10774804810481
 1  6.55415730323032  4.58767427962796 -2.03588594109411

