%nproc=4
%Mem=4GB
# td=(NStates=1) B3LYP/SVP 

TD

0 1
 8 -5.43366959695970  0.00067550715071 -3.24665445514551
 8  3.04598460396040  2.83358061276128  3.50227630603060
 8  3.33590193879388  0.70358575757576  2.96477836293629
 8  1.54305194469447 -7.02760903100310  1.58072657895790
 8  0.92951783978398 -7.04677110071007 -0.54032201510151
 8  1.67589463756376  3.98557167996800 -0.05841633423342
 7 -2.33878348944894 -0.95556398659866  0.56387340394039
 7 -4.46073095449545  0.65794346084608 -1.28101645644564
 7  1.77523791539154 -0.70103167616762 -0.49273775137514
 7  2.59473501540154  1.87902364786479 -0.63128987568757
 6 -4.82422881408141  1.28430992799280  0.01271707150715
 6 -4.36110350315032  0.37223738903890  1.29689704740474
 6 -2.89715481108111  0.04243450015001  1.33376538953895
 6 -1.90769986668667  0.60912586978698  2.06076924652465
 6 -0.67107371767177 -0.02018745424542  1.83012368996900
 6 -0.91594578237824 -1.01426448534853  0.85838765816582
 6 -6.25566792289229  1.45671346064606 -0.18498371377138
 6  0.63714232083208  0.19241991849185  2.45031405150515
 6 -6.72990350485048  0.94718396679668 -1.32875860456046
 6 -0.13427968406841 -1.96847558445845  0.19348142964296
 6  1.03746064226423 -1.92234178077808 -0.37298888108811
 6 -5.55970657095710  0.46250446514651 -2.16163347484748
 6  1.92410649584958 -2.97462800120012 -0.89447645694569
 6 -2.24552025292529  1.77017277417742  3.04761915211521
 6 -7.09452694589459  1.88241637083708  0.95801978787879
 6  3.11429776347635 -2.38451840304030 -1.43286453155316
 6  1.10099612691269  1.64366285968597  2.59583321922192
 6  3.00959903520352 -0.89152777837784 -1.00661464966497
 6  1.55813958415842 -4.37533349774978 -1.04661637853785
 6 -8.10021592759276  0.76726836443644 -1.93982237003700
 6  1.70478804440444 -4.96724765936594  0.34410040554055
 6  4.30099570857086 -3.05600406920692 -2.08678791009101
 6  3.95446631723172  0.05824522802280 -1.34073875627563
 6  2.58246886808681  1.68383597179718  3.03600950085009
 6  3.76345072287229  1.43233864536454 -1.04502106940694
 6 -9.28000298369837  0.69037119741974 -1.37588240354035
 6  1.31717678237824 -6.45252190239024  0.44700335933593
 6  4.62931176577658  2.60982773767377 -1.46059314241424
 6  3.90326959535954  3.81062158585859 -1.13840513481348
 6  2.61933350415042  3.31924977607761 -0.52905166786679
 6  5.89662326762676  2.49404424502450 -2.06123807890789
 6  4.30495611541154  5.24258913471347 -1.07332934633463
 6  6.87081713931393  3.39767545234523 -2.38099257615762
 1 -4.19826431253125  2.15155623572357  0.07356039633963
 1 -4.75985064196420 -0.69606108220822  1.14396914111411
 1 -4.90983782368237  0.70652465216522  2.28300521022102
 1 -2.63972301220122 -1.42179957545755 -0.11666858865887
 1 -3.46814781208121  0.51968388548855 -1.63955150605060
 1  0.63174760946095 -0.16664635263526  3.45554510261026
 1  1.37175118451845 -0.45785045244524  2.06907204000400
 1 -0.81167982888289 -2.98717618261826 -0.09305430313031
 1 -3.14628477377738  2.14741600570057  3.06080607030703
 1 -1.85566678177818  1.53532289618962  4.03033142104210
 1 -1.66843322442244  2.66035985578558  2.64528194999500
 1 -6.75589904080408  2.76451525502550  1.61711394439444
 1 -7.43753352035204  1.10110992019202  1.54764177487749
 1 -7.95182111931193  2.30287637073707  0.58900738093809
 1  1.11107381578158  2.15731776837684  1.65015308260826
 1  0.66892000450045  2.29945676767677  3.20472629682968
 1  1.64785911231123  0.30283092809281 -0.26996236153615
 1  2.36766455865587 -4.76215004540454 -1.69152376207621
 1  0.38992078957896 -4.40972081958196 -1.43834231763176
 1 -7.89470053185319  0.90681091169117 -2.90456639483948
 1  1.44908709760976 -4.46814799449945  1.20921849844984
 1  2.71784805490549 -4.97476468096810  0.63435125002500
 1  4.23926898919892 -4.00058751095110 -2.32681614271427
 1  5.22228332673267 -3.10488933913391 -1.56670028762876
 1  4.82335376847685 -2.59125135773577 -3.01381045464546
 1  5.05190480998100 -0.20418251275128 -1.65478165386539
 1 -9.29037263776378  0.61925938143814 -0.23969665946595
 1 -10.12491062466247  0.64202561826183 -1.84758085808581
 1  3.99229391589159  2.78431181488149  3.59654442014201
 1  6.15698916711671  1.51249339853985 -2.07369618461846
 1  5.30749144894489  5.40293305750575 -0.52002062196220
 1  4.35678770127013  5.42074884058406 -2.12992553745375
 1  3.47153482308231  5.77185679207921 -0.41654339593959
 1  1.45317262536254 -8.02082323942394  1.56290234513451
 1  7.80582302670267  3.31184672457246 -2.73894116741674
 1  6.60681256875688  4.42058757095710 -2.15255760826083

