%nproc=4
%Mem=4GB
# td=(NStates=1) B3LYP/SVP 

TD

0 1
 8 -5.23266949694970  0.15559099869987 -3.28551834153415
 8  3.11020102560256  2.90084733943394  3.20413649204920
 8  3.34191253985399  0.71167656665667  3.10715260036004
 8  1.78173581308131 -7.16682295239524  1.33854236053605
 8  0.58709359735974 -7.04671109470947 -0.54698268116812
 8  1.52496954505451  3.91434455725573  0.07041654905491
 7 -2.33632324342434 -1.02916134633463  0.62165918251825
 7 -4.28760364176418  0.53477114361436 -1.22910126492649
 7  1.79767015861586 -0.76033760676068 -0.51856033363336
 7  2.48019356125613  1.85557130263026 -0.52081882858286
 6 -4.64746113731373  1.24424592159216 -0.03419761996200
 6 -4.36890428322832  0.36463662896290  1.34651200890089
 6 -2.93830892649265  0.04699495619562  1.36094810781078
 6 -1.95481457815782  0.68296325352535  2.14722789238924
 6 -0.69837644794479  0.07764232873287  1.86224690229023
 6 -0.94407859565957 -0.94748780768077  0.88872069146915
 6 -6.17735009110911  1.39520731003100 -0.18347356275628
 6  0.60356896349635  0.26150682718272  2.65206422652265
 6 -6.54694520902090  0.93817306570657 -1.37322305100510
 6 -0.15217147324733 -2.00451918881888  0.28828090959096
 6  1.11300819701970 -1.93980352695270 -0.24692627482748
 6 -5.34672527282728  0.59132734743474 -2.16038334983498
 6  1.96858094329433 -2.95599613801380 -0.78129513881388
 6 -2.13330903180318  1.75640139703970  3.16539092929293
 6 -7.03541103430343  2.01571970117012  0.83203718961896
 6  3.16530286398640 -2.41875182638264 -1.17214845994599
 6  1.13215924322432  1.71087958135814  2.70662429832983
 6  2.98390646594659 -0.93733235883588 -1.06961094929493
 6  1.61024479467947 -4.38770473487349 -0.95767748464846
 6 -7.79201510751075  0.89557119471947 -2.07637602540254
 6  1.71499906550655 -5.15761669626963  0.39661565706571
 6  4.35240084908491 -2.98085655445545 -2.01346057735774
 6  3.84751562216222  0.08812821632163 -1.31813649604960
 6  2.58849947114711  1.65316290449045  2.93939983988399
 6  3.57187156495650  1.47683309480948 -1.11598816611661
 6 -9.07438242164216  0.67334949524952 -1.42563737903790
 6  1.28894395909591 -6.53134978517852  0.25290394939494
 6  4.48217705230523  2.60752750765076 -1.56076315941594
 6  3.74724399279928  3.77685820952095 -1.14679597389739
 6  2.44815638643864  3.25886373747375 -0.50096885958596
 6  5.72144574987499  2.48692353295330 -2.17614957005701
 6  4.08024364416442  5.19487436323632 -1.11560357375738
 6  6.63849390699070  3.47151283608361 -2.48705318221822
 1 -4.10671515761576  2.25288636873687  0.16447948824882
 1 -4.89508416531653 -0.47537901400140  1.23985873007301
 1 -4.64125096499650  1.04633863356336  2.11470838053805
 1 -3.10808984888489 -1.39562695819582 -0.00251717351735
 1 -3.25661665896590  0.47281919901990 -1.40584813571357
 1  0.41624605930593 -0.36297598559856  3.63521306940694
 1  1.15009901930193 -0.45963063046305  1.84147928072807
 1 -0.48779744064406 -3.11907937293729  0.18376337863786
 1 -3.25695584088409  2.11827309140914  3.22106209590959
 1 -1.61726294139414  1.69513887778778  4.20427881578158
 1 -1.76338271937194  2.72446626642664  2.92174959675968
 1 -6.57040049094909  2.76061486498650  1.62737497049705
 1 -7.34753452045204  1.36784659385939  1.63149015971597
 1 -7.75626156335634  2.54199028212821  0.29749823002300
 1  1.01540424882488  2.20511254785479  1.72335040234023
 1  0.80438355085509  2.49229605160516  3.40046587078708
 1  1.50095442184218  0.16966761176118 -0.07533289858986
 1  2.20915870807081 -4.78773260366037 -1.83247785748575
 1  0.40965276277628 -4.56425627312731 -1.26790527392739
 1 -7.76264732653265  0.88778900950095 -3.18184412261226
 1  1.15591778067807 -4.74899607930793  1.21071864846485
 1  2.66260253035304 -5.31380858535854  1.03623143804380
 1  4.22849791209121 -3.91855930813081 -2.38798225932593
 1  5.28453955235524 -3.11723057325732 -1.47155077267727
 1  4.49812124522452 -2.39293152575258 -2.89948902250225
 1  4.89557917741774 -0.19026112061206 -1.62839901560156
 1 -9.43270687118712  0.66485394089409 -0.23490618041804
 1 -9.96392452605261  0.52737415311531 -2.14602070207021
 1  4.10559524602460  3.01110449414942  3.27457222292229
 1  5.82135560376037  1.46919906910691 -2.61829064406441
 1  4.91964266406641  5.22062482668267 -0.48815743564356
 1  4.34383640614061  5.63680044574457 -2.02667521242124
 1  3.22863053265327  5.84800440684068 -0.67161890349035
 1  1.30424773287329 -7.98168932603260  1.41666772167217
 1  7.44266671107111  3.27469300920092 -3.21093836713671
 1  6.52493438093809  4.64220973317332 -2.22996534903490

