%nproc=4
%Mem=4GB
# td=(NStates=1) B3LYP/SVP 

TD

0 1
 8 -5.30818704870487 -0.00880544094409 -3.34079386908691
 8  3.02211221672167  3.08181543624362  3.08443452185219
 8  3.21405975457546  0.67184258325833  3.03429531463146
 8  1.33313095259526 -7.03340961106111  1.64405291159116
 8  0.52351723972397 -6.93024944854485 -0.45248323122312
 8  1.85664271237124  3.91936505930593  0.13364287168717
 7 -2.34340395149515 -1.08895732593259  0.58272528912891
 7 -4.38208308970897  0.52791045754575 -1.26807516231623
 7  1.85824621622162 -0.55056662966297 -0.51912038963896
 7  2.66303184508451  1.94624036953695 -0.47585433213321
 6 -4.81283767496750  1.03783528052805 -0.01543574377438
 6 -4.41873926672667  0.23812397769777  1.25010236793679
 6 -2.98658375397540 -0.05998574187419  1.38003001600160
 6 -1.91345044174417  0.49494445164516  2.19023219281928
 6 -0.69752636293629 -0.13855929142914  1.90143082068207
 6 -1.00796498429843 -0.96251931083108  0.76482830223022
 6 -6.20512286838684  1.31040883018302 -0.16418163356336
 6  0.67003561016102  0.13616429292929  2.57527654775478
 6 -6.61058157265727  0.78132738113811 -1.29309503820382
 6 -0.14131038713871 -1.96762549944994  0.09271135263526
 6  1.09315621182118 -1.73481302790279 -0.42123370557056
 6 -5.47210781108111  0.49495771047105 -2.22213952545254
 6  1.94101818701870 -2.78676921532153 -1.03428043734373
 6 -2.30537623852385  1.69466522342234  3.13231762196220
 6 -7.11911940514051  1.74882301150115  0.97040102600260
 6  3.14147048074808 -2.25625557675768 -1.42044328942894
 6  1.11416744404440  1.59015750915092  2.46020965686569
 6  3.01809988528853 -0.78130675627563 -1.10005399359936
 6  1.54293806400640 -4.23850981538154 -0.98051976887689
 6 -7.99589549554956  0.74433607120712 -1.89720810861086
 6  1.70180774637464 -4.91041197579758  0.37807380288029
 6  4.33015862486249 -3.02813128192819 -1.89599883118312
 6  4.00575144574457  0.11981138463846 -1.42746742914291
 6  2.56558717991799  1.73409099729973  2.96754265416542
 6  3.76774115191519  1.52797820932093 -1.18450501780178
 6 -9.23176816021602  0.79289144944494 -1.29373418871887
 6  1.08799386408641 -6.41841849204920  0.42196085508551
 6  4.67077591219122  2.66250300520052 -1.50551763486349
 6  3.98109737813781  3.74045456915692 -0.95909720402040
 6  2.77237880868087  3.33705155625563 -0.26511527422742
 6  5.98335194049405  2.45042988358836 -2.23000495559556
 6  4.29894551435144  5.21206608240824 -0.95128714211421
 6  6.85259531713171  3.40439612441244 -2.63154763166317
 1 -4.29555404150415  1.96811789188919  0.39484252455246
 1 -4.77420207710771 -0.97539901600160  1.09091383558356
 1 -4.89852669256926  0.81210521022102  2.11901881158116
 1 -2.97333637353735 -1.45430282578258 -0.16187310911091
 1 -3.55005600290029  0.48851076817682 -1.49132668356836
 1  0.55085952065207 -0.18223791179118  3.73842339043904
 1  1.48057206660666 -0.74054872227223  2.28260339313931
 1 -0.74340300120012 -2.88804626962696 -0.11258625632563
 1 -3.47321746704670  2.01298256235624  3.20793078277828
 1 -1.76830804590459  1.64881424532453  4.20488887678768
 1 -1.97584396549655  2.55727954775477  2.64953237503750
 1 -6.65505895679568  2.31740054355435  1.78577081008101
 1 -7.63866363336334  0.76882669186919  1.40448745944594
 1 -7.97748368556856  2.19076515961596  0.55125360556056
 1  1.15506821522152  2.12172420902090  1.42287035433543
 1  0.47600071257126  2.29008583058306  3.06307213141314
 1  1.83128745514551  0.56621726672667 -0.23840920622062
 1  2.45195298749875 -4.77365119551955 -1.63307791749175
 1  0.53586538403840 -4.45674552205221 -1.44016249964997
 1 -7.99708076987699  0.75751598219822 -2.90477641584158
 1  1.19540172907291 -4.51519269896990  1.09559713631363
 1  2.84516078617862 -5.03098030253025  0.62421023592359
 1  4.54231929422942 -4.12672012421242 -1.90505396649665
 1  5.33476457485749 -2.89043789398940 -1.47153077067707
 1  4.75575700880088 -2.58274050665067 -2.84684375797580
 1  4.87968758825883 -0.37982007650765 -2.05147132283228
 1 -9.29665326582658  0.63779123462346 -0.14197688748875
 1 -10.22563069666967  0.92335375107511 -1.84632073207321
 1  3.89802448894890  2.98279166286629  3.31375614131413
 1  6.25402887108711  1.43423557275728 -2.47006582158216
 1  5.36228692849285  5.42923568776878 -0.73962258215822
 1  4.55345736823682  5.75046181188119 -2.02114465936594
 1  3.56499416901690  5.93364297069707 -0.50935267686769
 1  1.14276158425843 -7.95894705180518  1.55176123102310
 1  7.74829727412741  3.20911645154515 -3.09769704300430
 1  6.58663055055506  4.52549806200620 -2.23676602910291

