%nproc=4
%Mem=3GB
# td=(NStates=1) B3LYP/SVP 

TD

0 1
 8 -3.30248715891589 -1.33425848134813 -2.88905956025603
 8  2.92130258505851  3.19465112361236  3.21739601050105
 8  3.68038234643464  1.54672180048005  4.40881532513251
 8  7.70446904980498 -1.62001811601160 -0.71539230103010
 8  6.75922007840784 -3.00397119201920 -2.14356080418042
 8 -2.63914482098210  1.53545903500350  1.47213727422742
 7 -0.27683342954295 -2.34149046334633  0.95160000080008
 7 -2.62829486748675 -1.33689882488249 -0.60954309890989
 7  1.25513706310631  0.08912982268227 -0.70081501870187
 7 -0.93473261876188  1.52174758265827 -0.16452735063506
 6 -3.42803795349535 -1.43623118551855  0.72255922982298
 6 -2.61638026412641 -2.33586773297330  1.68875418221822
 6 -1.19297493919392 -2.03889170317032  1.84065205380538
 6 -0.57958776107611 -1.18955014671467  2.82346036653665
 6  0.76032714531453 -1.10328532953295  2.38475967056706
 6  0.91669435563556 -1.88470490519052  1.22664746874687
 6 -4.75281022762276 -1.91566721542154  0.17706459375938
 6  1.89141373277328 -0.41599192879288  3.06731888638864
 6 -4.79160552195219 -2.08201691009101 -1.07677801830183
 6  2.08078603500350 -1.98998719091909  0.25029730843084
 6  2.21106712861286 -0.86654856705671 -0.61511541304130
 6 -3.52513718361836 -1.52118408370837 -1.75656293969397
 6  3.12956401960196 -0.63992474077408 -1.75870976987699
 6 -1.34097266946695 -0.51527538453845  3.87658316661666
 6 -5.75640086418642 -2.08320480078008  1.24306531213121
 6  2.51710136703670  0.32702007020702 -2.42240685068507
 6  1.77118655105511  1.19067475947595  2.89288593019302
 6  1.39647301380138  0.94969161776178 -1.81788789478948
 6  4.25444079317932 -1.55912534163416 -2.12996262636264
 6 -5.88661299739974 -2.48310040044004 -1.97873132133213
 6  5.46897244824482 -1.22460420562056 -1.22579599649965
 6  3.04355445084508  1.03718212081208 -3.71298780798080
 6  0.54971739583958  2.07898304520452 -2.00800254535454
 6  2.89410805110511  1.96775636113611  3.52716806200620
 6 -0.67510134173417  2.39087371957196 -1.26151143904390
 6 -6.91879580608061 -3.25891965606561 -1.82432099079908
 6  6.56313588318832 -2.05464371947195 -1.44648533853385
 6 -1.48707736253625  3.52819505270527 -1.21366944164416
 6 -2.28020210961096  3.46634711371137 -0.06205411161116
 6 -1.97362963536354  2.04451538503850  0.49999893189319
 6 -1.22644262266227  4.50022628282828 -2.26615838383838
 6 -3.31420205670567  4.37721820472047  0.41616585628563
 6 -1.85431932313231  5.77769318751875 -2.29170290309031
 1 -3.53973246644664 -0.27898338823882  1.00175438003800
 1 -2.60429205560556 -3.44931005600560  1.36413676277628
 1 -2.92596241604160 -2.24389783418342  2.73749313801380
 1 -0.43468877367737 -3.05994475957596  0.18993600360036
 1 -1.82629101880188 -0.57058336183618 -0.78827292969297
 1  1.99326728812881 -0.67689914371437  4.41273337243724
 1  2.91007834073407 -0.57654954625463  2.76426135553555
 1  2.64502331623162 -2.81773335623562  0.21688474167417
 1 -2.06383901320132 -1.10227950195019  4.43092015381538
 1 -0.78367813581358  0.17384318071807  4.58212456895690
 1 -1.85701501530153  0.24198664536454  3.37119588488849
 1 -5.81061184838484 -1.41620975217522  2.06870116311631
 1 -5.72011077177718 -3.01955606020602  2.06071891819182
 1 -6.73219059585958 -2.24310995439544  0.88773513521352
 1  1.92062820222022  1.54330427232723  1.73982159345935
 1  0.68251820332033  1.49786203050305  3.09116709040904
 1  0.53377163476348  0.22237660746075 -0.05123715601560
 1  4.67123284248425 -1.77786084508451 -3.30660626252625
 1  3.85859668946895 -2.67521930113011 -1.80288739673967
 1 -5.76635877427743 -1.95010593519352 -2.96743020682068
 1  5.03486140744074 -1.13860434033403 -0.10941771807181
 1  5.86328777007701  0.02215521942194 -1.30646512901290
 1  4.07952786428643  0.27695418751875 -3.98867709720972
 1  3.20177592919292  2.08170924962496 -3.54668700410041
 1  2.19618540784078  1.01288578647865 -4.47739089108911
 1  0.49058296829683  2.63497499399940 -3.03548444044404
 1 -7.08001708780878 -3.74111629552955 -0.92589161036104
 1 -7.53174143904390 -3.34268559905991 -2.67539059255926
 1  3.63384711221122  3.90415977697770  3.42642589678968
 1 -0.65543942274227  4.35877715721572 -3.11354925032503
 1 -4.33371196079608  4.34509109090909 -0.25496664816482
 1 -3.57743649334933  4.06221101470147  1.44038484988499
 1 -2.78762707890789  5.21530182128213  0.43148891879188
 1  8.58519421292129 -2.08666182038204 -0.86067670267027
 1 -1.56071899649965  6.20134059115912 -3.26113096529653
 1 -2.54665701860186  6.29068044384438 -1.54897080458046

