%nproc=4
%Mem=3GB
# td=(NStates=1) B3LYP/SVP 

TD

0 1
 8 -3.46487339753975 -1.30908596409641 -2.86785744004400
 8  2.86803725852585  3.20782244074407  2.92720699159916
 8  3.78862317051705  1.56911403970397  4.21183562716272
 8  7.72188079097910 -1.50051616581658 -0.57758852065207
 8  6.70193434983498 -2.99971076597660 -1.82242869096910
 8 -2.52055296179618  1.53535902500250  1.39373943444344
 7 -0.27133287948795 -2.40970728502850  0.78706354715472
 7 -2.69464150215022 -1.34648978397840 -0.65328747334733
 7  1.11046259565957  0.14508541824182 -0.64915985318532
 7 -0.93580272577258  1.51745715361536 -0.18812971087109
 6 -3.27484263396340 -1.39081664406441  0.69076605050505
 6 -2.62670129622962 -2.57051119731973  1.54239954675468
 6 -1.19426506820682 -2.13990180418042  1.63518150675068
 6 -0.55579538183818 -1.42004319601960  2.77002502300230
 6  0.74983609620962 -1.19934493549355  2.33735493009301
 6  0.91752443864386 -1.88356479117912  1.15985078907891
 6 -4.88187313391339 -1.74534018271827  0.31649853715372
 6  1.84065865726573 -0.41553188278828  3.18065021952195
 6 -4.86839320072007 -1.88908761716172 -1.03771411191119
 6  2.00816877327733 -2.00789898209821  0.28681095979598
 6  2.12866888878888 -0.95236714891489 -0.62038594009401
 6 -3.60503517341734 -1.51532349764977 -1.69093637703770
 6  2.94762582578258 -0.68773952225223 -1.77292119101910
 6 -1.29139771197120 -0.75869972697270  3.91284679297930
 6 -5.83059828392839 -2.07019349964996  1.44985599119912
 6  2.56722637953795  0.48254562276228 -2.43105771577158
 6  1.86220565296530  1.07674336633663  2.71265790739074
 6  1.44157752425243  0.98223487208721 -1.82255836183618
 6  4.30058540764076 -1.47722715181518 -2.04172380248025
 6 -5.93843817991799 -2.26991908230823 -1.95804925312531
 6  5.49474502550255 -1.01341308650865 -1.13123654055406
 6  3.29626972237224  1.15601400400040 -3.61166767596760
 6  0.59550197429743  2.05891103800380 -1.97736948204820
 6  2.92823146344635  1.95477506300630  3.39565491069107
 6 -0.50750458205821  2.35295992819282 -1.14253954185419
 6 -6.95875980248025 -3.13478724282428 -1.54313287198720
 6  6.63265283488349 -1.93634188928893 -1.28066875687569
 6 -1.35164381918192  3.43297553075308 -1.23913198789879
 6 -2.17554164356436  3.35891637063706 -0.13026093229323
 6 -1.88927119951995  2.06364729822982  0.50860979297930
 6 -1.32066204460446  4.51974823502350 -2.32521428942894
 6 -3.31662229872987  4.25463594649465  0.44753899359936
 6 -2.03753764496450  5.69432485068507 -2.45679941274127
 1 -3.19231772497250 -0.42208769866987  1.20054425902590
 1 -2.96372799919992 -3.41826695169517  0.87845819491949
 1 -3.07972779257926 -2.65939938433843  2.50201959065907
 1 -0.45762106690669 -2.91986075117512 -0.08501149114912
 1 -1.94391278097810 -0.75339164266427 -0.91984608700870
 1  1.66253421482148 -0.29574102790279  4.21731383048305
 1  3.07151448434843 -0.80257214851485  3.26056098549855
 1  2.75404421832183 -2.73710529342934  0.16456951015102
 1 -2.24911754105411 -1.42290156415642  4.12236929872987
 1 -0.52625239323932 -0.73357756135614  4.66728308480848
 1 -1.63705301910191  0.23203565026503  3.42033079837984
 1 -5.59453024022402 -1.44564269546955  2.16221051405141
 1 -5.71563032373237 -3.15396950155015  1.66382922922292
 1 -6.80847822462246 -2.01542718611861  1.05506186788679
 1  1.97631377077708  0.97982792469247  1.72308992029203
 1  0.92035198669867  1.47113935823582  2.73830180388039
 1  0.41174943254325  0.21302567236724 -0.23009504180418
 1  4.62804852405241 -1.36806986598660 -3.05646124802480
 1  3.96585741554155 -2.52104388358836 -1.65925303330333
 1 -5.86167830623062 -1.84533545814581 -3.03988745254525
 1  5.21218914021402 -1.20582106200620 -0.06876365266527
 1  5.73196463776378  0.04474747864786 -1.30049453195320
 1  3.76826673817382  0.31055754785479 -4.27288551805180
 1  4.16261201280128  1.91700277897790 -3.43551588698870
 1  2.41035682498250  1.81413591149115 -4.31351450345035
 1  0.96772068206821  2.68769026552655 -2.80816170817082
 1 -6.89303838993899 -3.72020420432043 -0.56123514471447
 1 -7.74203246814681 -3.23193452395240 -2.28756180968097
 1  3.60160388788879  3.87666702770277  3.45585884008401
 1 -0.62190606940694  4.30984226372637 -3.09909780518052
 1 -3.99164775437544  4.25315189698970 -0.33939509100910
 1 -3.70618936863686  3.78772356595660  1.29738054945495
 1 -3.16728504470447  5.29135942704270  0.94175994589459
 1  8.43645933943395 -2.17471062526253 -0.63194382938294
 1 -1.80385330993099  6.55517597469747 -3.22406725892589
 1 -2.87213956685669  5.97393876967697 -1.74229013651365

