%nproc=4
%Mem=4GB
# td=(NStates=1) B3LYP/SVP 

TD

0 1
 8 -5.16585281528153  0.35776121572157 -3.24204399409941
 8  2.91785179067907  2.97114436913691  3.35132121052105
 8  3.34849319791979  0.71113651265126  3.05760764586459
 8  1.87385502500250 -7.21451772187219  1.52929143544354
 8  0.63619850785079 -7.12849927352735 -0.44239222212221
 8  1.59488653675368  3.92107523032303  0.01062056945695
 7 -2.30110972207221 -0.95787421762176  0.53171018761876
 7 -4.33148803020302  0.67322498899890 -1.11365972077208
 7  1.75548594019402 -0.70767234023402 -0.54928340594059
 7  2.55324086598660  1.79134487998800 -0.45775252195220
 6 -4.75364175537554  1.21763326032603  0.16364216401640
 6 -4.35620301310131  0.26840700600060  1.22985034273427
 6 -2.96458155375538 -0.04964470777078  1.31715372837284
 6 -1.93093218991899  0.66274123132313  2.10223339293929
 6 -0.69276588688869 -0.01108654415442  1.85089576717672
 6 -1.00989517731773 -0.98145120402040  0.86716853625363
 6 -6.20993334943494  1.37156494579458 -0.20637585298530
 6  0.65511411801180  0.18635931243124  2.49567858795880
 6 -6.56682719721972  0.94740398879888 -1.36043177187719
 6 -0.15149140524052 -2.00167890479048  0.23022510401040
 6  1.14162105830583 -1.89890943754375 -0.40077165936594
 6 -5.24480508080808  0.65545376007601 -2.04561187268727
 6  1.94677876307631 -2.96979751815182 -0.91449845914591
 6 -2.17543324422442  1.76306206310631  3.09525391559156
 6 -7.13494098729873  1.98676680588059  0.87606159205921
 6  3.08577491119112 -2.41869182038204 -1.37182842794279
 6  1.14879090639064  1.67921641504150  2.51829546544654
 6  2.98902697799780 -0.93797242284228 -1.23763775197520
 6  1.57688145834583 -4.45223118751875 -0.92556427332733
 6 -7.74725063106311  0.90091172877288 -2.02020040784078
 6  1.83253081868187 -5.15684661926193  0.46158215371537
 6  4.37581319031903 -3.04372284108411 -1.90059929122912
 6  3.86778764936494  0.10762016551655 -1.44637932033203
 6  2.65037565876588  1.65467305550555  2.95966186608661
 6  3.55433981178118  1.42496790829083 -1.09131569886989
 6 -9.04077906130613  0.91591375167517 -1.51151596689669
 6  1.37958302300230 -6.63131978217822  0.42681134013401
 6  4.49448828342834  2.59311606650665 -1.43009009210921
 6  3.75243451185119  3.67905842954295 -0.99719101340134
 6  2.47266883768377  3.30611846294629 -0.47813657635764
 6  5.75804941024102  2.52303714431443 -2.15678763386339
 6  4.02472809260926  5.15814068986899 -1.14091610501050
 6  6.41081113871387  3.55769145394539 -2.50534501140114
 1 -4.19319380548055  2.25725680578058  0.43433647394739
 1 -4.73414807170717 -0.75773724982498  0.93649839403940
 1 -4.68025486538654  0.77725172487249  2.18568547824782
 1 -2.87994703460346 -1.47600499599960 -0.12901982378238
 1 -3.39792078937894  0.38659057615762 -1.72702025292529
 1  0.62041647634763  0.10738105010501  3.64075362346235
 1  1.33418742814281 -0.42827749514952  2.08376350915092
 1 -0.59217787868787 -3.05697316231623  0.31615661796180
 1 -3.18801894719472  1.78062932703270  3.52656264596460
 1 -1.62155337043704  1.54945430933093  3.98186657455746
 1 -1.72179856095610  2.72406622642264  2.81160858265827
 1 -6.47768121902190  2.65684448794879  1.42925515851585
 1 -7.68631839883988  1.42802261146115  1.44102111281128
 1 -7.89521545874587  2.62573865696570  0.66263474367437
 1  1.09724243264326  2.01410344694469  1.56421448874887
 1  0.55076818931893  2.24477129912991  3.04412023622362
 1  1.71391571797180  0.31421206620662 -0.36432179747975
 1  1.86060385258526 -5.12847667806781 -1.66934154385439
 1  0.55835763326333 -4.35704555205521 -1.08276676007601
 1 -7.74726578837884  0.66234646524652 -2.99601553975398
 1  1.22173436233623 -4.69732091179118  1.21906948354836
 1  3.10990726082608 -5.12250945544554  0.50515833073307
 1  4.07059212151215 -4.01834928712871 -2.47475093619362
 1  4.95065616401640 -3.40575942614261 -1.15389900750075
 1  5.00322175527553 -2.33539577217722 -2.77532660626063
 1  4.77204682418242 -0.17604969946995 -2.07697387308731
 1 -9.43334693519352  0.93976143164316 -0.53294598439844
 1 -9.77682581618162  0.81765318101810 -2.23239933993399
 1  3.88043272977298  2.64886827052705  3.51691645734573
 1  6.12199566776678  1.57193934313431 -2.37562637763776
 1  4.98762946274627  5.55554831903190 -0.77822644254425
 1  3.85453747624762  5.50611737743774 -2.30385293019302
 1  3.23694136373637  5.68411801820182 -0.46919866146615
 1  1.55338264636464 -8.22062321942194  1.42605866076608
 1  7.50824326872687  3.51235677557756 -2.89748702200220
 1  5.97970985848585  4.60035554775478 -2.17492984548455

