%nproc=4
%Mem=3GB
# td=(NStates=1) B3LYP/SVP 

TD

0 1
 8 -3.25744265446545 -1.37976303180318 -2.79443009730973
 8  2.67823827862786  3.29389104760476  3.40184445534553
 8  3.93891820002000  1.39229635793579  4.29374381798180
 8  7.74827343024302 -1.66165227942794 -0.61324208600860
 8  6.67590174657466 -2.96614740964096 -2.17931437953795
 8 -2.48540944744474  1.63022851195120  1.47850791129113
 7 -0.19698544474447 -2.43586990129013  0.90525536633663
 7 -2.75879791779178 -1.12971810681068 -0.59658180278028
 7  1.23040458985899  0.12520343004300 -0.66218115531553
 7 -0.95498464396440  1.44168957685769 -0.20277117501750
 6 -3.39667481718172 -1.26775433783378  0.67473444734473
 6 -2.68120674677468 -2.40028417461746  1.60075538233823
 6 -1.10309595129513 -1.98256607060706  1.72797078567857
 6 -0.54523432573257 -1.23921511321132  2.80099812031203
 6  0.82836394899490 -1.08149315031503  2.47683887848785
 6  0.98444113031303 -1.88645508020802  1.16514131813181
 6 -4.73494844144415 -1.89894554325433  0.29168605590559
 6  1.86050064146415 -0.28787911751175  3.12492464696470
 6 -4.80357671907191 -2.02813152155216 -1.01431177167717
 6  2.08435639203920 -1.92054024622462  0.24486676537654
 6  2.15103112501250 -0.92821473367337 -0.68370227172717
 6 -3.46825149504950 -1.50515248054805 -1.59530681408141
 6  3.09032009520952 -0.67421817011701 -1.76892079097910
 6 -1.42390096229623 -0.62294615161516  3.86515202350235
 6 -5.85630085418542 -2.15797227752775  1.26946795239524
 6  2.60980063696370  0.44845221342134 -2.48338294829483
 6  1.87073650605061  1.10440613261326  2.80956759835984
 6  1.46040940744074  0.85748239683968 -1.81196730273027
 6  4.25018036713671 -1.55906533563356 -2.05359498959896
 6 -5.82296663276328 -2.43039512991299 -1.90880432863286
 6  5.51907745874587 -1.20009175437544 -1.15508892579258
 6  3.08613870927093  1.05601400400040 -3.72920943014301
 6  0.45215763986399  1.99112425932593 -2.04734647974797
 6  2.93189182948295  1.84525411091109  3.55271061626163
 6 -0.65112894449445  2.23210784298430 -1.23761904980498
 6 -6.97413133963396 -3.17392115621562 -1.75472403110311
 6  6.71319088868887 -2.08038629372937 -1.44030472047205
 6 -1.49700835563556  3.49820205340534 -1.30856893159316
 6 -2.36562065146515  3.36577705670567 -0.22830073627363
 6 -2.03006527892789  2.09881081458146  0.45836476847685
 6 -1.36755673407341  4.63115937613761 -2.19345111311131
 6 -3.37398803530353  4.35707619051905  0.25800003970397
 6 -1.94838873007301  5.79802522072207 -2.38728246104610
 1 -3.59810830403040 -0.27620311021102  1.21056526112611
 1 -2.94985661206121 -3.46405153015301  1.12763311241124
 1 -3.06862668246825 -2.23346679107911  2.49783917261726
 1 -0.45918122292229 -2.98995776087609  0.02727973797380
 1 -2.17609599929993 -0.36899320282028 -0.71180528292829
 1  1.65821378277828 -0.61636309010901  4.28592069116912
 1  2.67773510641064 -1.04408629992999  2.85324025342534
 1  2.99671848574858 -2.74645622852285  0.25697875107511
 1 -1.96073870317032 -1.49029830383038  4.42339940174017
 1 -0.79321908990899 -0.01022522612261  4.59963632013201
 1 -2.35875518931893  0.14123657035704  3.56976574187419
 1 -5.77105789298930 -1.43936206740674  1.99156344934493
 1 -5.50008876957696 -2.97068117271727  1.74982782908291
 1 -6.86921429822982 -2.27086272967297  0.83354971667167
 1  2.03046918631863  1.26160610251025  1.81272888418842
 1  0.87984793629363  1.72609485378538  3.13384135783578
 1  0.18617687528753  0.34940931073107 -0.29747177947795
 1  4.64509022822282 -1.71625468446845 -2.98873447534754
 1  4.07260809060906 -2.67636941614161 -1.82203931193119
 1 -5.51576371477148 -1.96678760336034 -2.87545100890089
 1  5.22454037533753 -1.32166264616462 -0.03276005230523
 1  5.76231767306731 -0.13736073217322 -1.26523100560056
 1  4.28240815231523  0.62321881398140 -3.82554078357836
 1  3.10852660426043  2.19110018871887 -3.75801813721372
 1  2.43267905720572  0.83109760766077 -4.58661181318132
 1  0.52322623262326  2.64411590809081 -2.90731162316232
 1 -7.16164525062506 -3.47914009790979 -0.91404042524252
 1 -7.58176644154416 -3.41213254375438 -2.52732578607861
 1  3.46220994849485  3.69727908890889  3.82983623782378
 1 -0.49009288808881  4.47627890739074 -3.13624151955195
 1 -4.17909649924992  4.51771835363536 -0.40980213171317
 1 -4.01782053175318  4.14231902550255  1.19697050845085
 1 -2.94965328152815  5.19624991609161  0.61146691659166
 1  8.50506620012001 -2.34469762396240 -0.83953458845885
 1 -1.79626255085508  6.42153261036104 -3.35986083828383
 1 -2.97710006290629  6.04174555035504 -1.75720162766277

