%nproc=4
%Mem=4GB
# td=(NStates=1) B3LYP/SVP 

TD

0 1
 8 -5.25544177417742  0.02414785438544 -3.37074686438644
 8  2.99271927742774  2.97505476017602  3.24011008940894
 8  3.41261961056106  0.72573797279728  3.06151803690369
 8  1.49540718021802 -7.23619989008901  1.51763026932693
 8  0.65349023702370 -7.04483090669067 -0.56546452935294
 8  1.77197424552455  4.06162928572857  0.20117962536254
 7 -2.30808041914191 -0.89594802500250  0.62925994259426
 7 -4.33358824022402  0.47416508300830 -1.27435579037904
 7  1.79884027562756 -0.70043161616162 -0.37071554915492
 7  2.49487502940294  2.00822656815682 -0.57702444914491
 6 -4.74062045324532  1.12384388138814  0.03615941574157
 6 -4.25939333213321  0.35490565586559  1.19234659235924
 6 -2.85401049664967  0.05413567026703  1.38822083508351
 6 -1.87899699639964  0.64439939713971  2.20143331293129
 6 -0.58978558885889 -0.02391782728273  1.92336301390139
 6 -0.94372856065607 -0.94292735163516  0.93680549994999
 6 -6.20130248634864  1.29917770707071 -0.16787200260026
 6  0.67830643724372  0.24305498199820  2.65421444154415
 6 -6.66441695619562  0.91777102550255 -1.41776750545055
 6 -0.16686294239424 -1.97553629052905  0.28725080658066
 6  1.02478937513751 -1.86228577517752 -0.34258584078408
 6 -5.35123572387239  0.44750296499650 -2.14534184568457
 6  1.86125021022102 -2.94704524292429 -0.86597360666067
 6 -2.10181588248825  1.64789054595460  3.31624601480148
 6 -7.04972246544654  1.86306443564356  0.90045403130313
 6  3.07498383208321 -2.35655560676068 -1.26006725182518
 6  1.24625065236524  1.64258275167517  2.53683731963196
 6  3.03753182848285 -0.93947257285729 -0.99104309250925
 6  1.45590936113611 -4.43485945034503 -1.01761347824782
 6 -7.93991989798980  0.75871750935093 -2.15145353315332
 6  1.80028759435944 -5.16880781538154  0.29355535103510
 6  4.30840644964496 -2.89034750355035 -2.03643287458746
 6  3.85155602620262  0.05134453795380 -1.31644632703270
 6  2.64053467466747  1.70005759395940  3.03168906880688
 6  3.59277365516552  1.53240865236524 -1.15600216751675
 6 -9.13014799819982  0.88159031933193 -1.58025284058406
 6  1.27694275897590 -6.51581823202320  0.31781044004400
 6  4.43074190879088  2.67170392529253 -1.45283236633663
 6  3.76862613101310  3.82105262896290 -1.07548884318432
 6  2.53159473027303  3.36762461356136 -0.44071283398340
 6  5.64876848214822  2.46947178777878 -2.19559151425142
 6  4.18665428522852  5.25469034483448 -1.19104111751175
 6  6.64902496009601  3.35137082188219 -2.57171164806481
 1 -4.49732421852185  2.03395447554755  0.08515155545555
 1 -4.87157181408141 -0.75544702080208  1.21032577677768
 1 -4.77714455435544  0.88395239493949  2.14168107780778
 1 -2.90694973487349 -1.27389478497850 -0.01306822862286
 1 -3.42206320362036  0.43409532663266 -1.75236278717872
 1  0.51316575127513 -0.09110879887989  3.72869241734173
 1  1.57007101650165 -0.35536020342034  2.39098423122312
 1 -0.73010167106711 -3.00829829482948  0.15063006530653
 1 -3.14683482878288  1.61399266336634  3.74960495019502
 1 -1.28303951905190  1.54524388828883  4.21344973287329
 1 -1.79379576067607  2.68559237903790  3.11080850265026
 1 -6.40731418231823  2.56351515501550  1.40065229822982
 1 -7.61792155915592  1.15577538673867  1.71415842654265
 1 -7.80208614581458  2.76789287238724  0.55903438363836
 1  1.37899060746075  1.89923195979598  1.42046011331133
 1  0.52480559305931  2.39078590059006  3.06409223342334
 1  1.52946727312731  0.28382902790279 -0.07878324362436
 1  1.70556834903490 -4.78084191459146 -1.93225783548355
 1  0.34450624812481 -4.53167301480148 -1.05490397379738
 1 -7.88590965276528  0.45259549014901 -3.31290722892289
 1  1.80470265916592 -4.64368554825483  1.47199477607761
 1  2.71169743984398 -5.23000020452045  0.30689850475048
 1  4.33944900720072 -3.93458091029103 -2.12252571367137
 1  5.20845194359436 -2.59733858405841 -1.60392401000100
 1  4.33495492859286 -2.60856308890889 -3.05153422702270
 1  4.96062568206821 -0.26563865836584 -1.71233740944094
 1 -9.10728432893289  1.31225868136814 -0.58516120592059
 1 -9.95596372997300  0.93814523022302 -1.89260536053605
 1  3.93965865236524  2.92051543524353  3.31068583428343
 1  6.04174764296430  1.38827097629763 -2.43280209520952
 1  5.14275497529753  5.44756752095210 -0.33521214111411
 1  4.66227825032503  5.40630739643964 -2.28154069896990
 1  3.38710638023802  5.94999460586059 -0.86945868746875
 1  1.36665397349735 -8.17512866996700  1.35773182808281
 1  7.66881932633263  3.33821936183618 -3.17375464876488
 1  6.44673656115612  4.50161567376738 -2.36987934043404

