%nproc=4
%Mem=4GB
# td=(NStates=1) B3LYP/SVP 

TD

0 1
 8 -5.30234646464646 -0.12260682108211 -3.22844263396340
 8  3.10939094459446  2.86015327002700  3.21534761316132
 8  3.49300764936494  0.70979637863786  2.93978586368637
 8  1.24959259875988 -7.11607787788779  1.52919142544254
 8  0.71220610861086 -7.02018844244424 -0.65512349524953
 8  1.71795884398440  3.90746386918692  0.16019552695270
 7 -2.24971458255826 -0.87737616781678  0.60780779737974
 7 -4.33437831923192  0.57404507100710 -1.32019037383738
 7  1.84504489608961 -0.65712728572857 -0.50973945154515
 7  2.52163770567057  1.83728947444744 -0.44904165086509
 6 -4.71721811301130  1.16028752575258 -0.02052625282528
 6 -4.41655904870487  0.34686485178518  1.13852120982098
 6 -2.96203129872987  0.00552080878088  1.41877389038904
 6 -1.90046914361436  0.70686564376438  2.24312748234823
 6 -0.71656826712671  0.08005256975698  1.81338201580158
 6 -0.97332151995200 -0.89828288718872  0.78486030543054
 6 -6.15095745184518  1.39797758705871 -0.18278349374937
 6  0.60314892149215  0.19556023252325  2.56442546264626
 6 -6.57883839833983  0.78849809820982 -1.40420614931493
 6 -0.11632788888889 -1.95566430333033  0.26126820832083
 6  1.11110800700070 -1.78148769536954 -0.33118470067007
 6 -5.43057365766577  0.27460567526753 -2.09659697119712
 6  1.93945803100310 -2.88036857525753 -0.89408641794179
 6 -2.22453815471547  1.68130388728873  3.25079947014701
 6 -6.99755724892489  2.13730185938594  0.81232521842184
 6  3.14969130283028 -2.33496344754475 -1.31749299439944
 6  1.21483751105111  1.53739223262326  2.63155679157916
 6  3.03521159645965 -0.86770539613961 -1.10229421762176
 6  1.58953272347235 -4.31830779517952 -0.85002671957196
 6 -7.90926683268327  0.58408004560456 -2.00212860066007
 6  1.63510107570757 -5.03897483208321  0.45782177767777
 6  4.27633324232423 -2.93084155295530 -1.98962819411941
 6  3.92683355395540  0.10778018151815 -1.51230591299130
 6  2.66241686288629  1.60774836303630  2.94176007590759
 6  3.67889226702670  1.50407581908191 -1.12003857115712
 6 -9.15204018741874  0.73661582188219 -1.39971478677868
 6  1.22903796849685 -6.53069972017202  0.36286494549455
 6  4.52375120972097  2.69207596249625 -1.47859494259426
 6  3.84122339073907  3.77714823852385 -1.13830512481248
 6  2.56810838163816  3.30301815291529 -0.44336309900990
 6  5.72741634693469  2.44846968756876 -2.27099905500550
 6  4.17428304810481  5.28457333313331 -1.01208322172217
 6  6.60572062966297  3.55053073787379 -2.35977045394539
 1 -4.05244973107311  2.13537461756176  0.09542258255826
 1 -5.11169582648265 -0.74956643274327  1.04287903210321
 1 -4.63978081798180  0.84003800350035  2.07392430213021
 1 -2.63802284218422 -1.39553694919492 -0.08776569836984
 1 -3.43371436873687  1.01080299739974 -1.71019857075708
 1  0.43774820952095 -0.14575426342634  3.52855240334033
 1  1.36122013141314 -0.46253092049205  2.41435656845685
 1 -0.33825248614861 -3.06750421542154  0.22206720902090
 1 -3.21319146444644  1.42727399149915  3.48416840654065
 1 -1.58043925902590  1.57289665356536  4.05459384728473
 1 -1.89341572267227  2.66688050785078  3.04603202500250
 1 -6.15005845674567  2.81559036253625  1.09463169616962
 1 -7.47902766976698  1.45868567776778  1.74690170087009
 1 -7.83271920912091  2.83156924002400  0.42862134233423
 1  1.07228993739374  2.16093813041304  1.71481954925493
 1  0.68369148164817  2.33094991699170  3.23998982318232
 1  1.76751107750775  0.41310195519552 -0.20169553485349
 1  1.87447523972397 -4.99833366376638 -1.69318392809281
 1  0.46101789928993 -4.33703355085509 -0.90829931333133
 1 -8.00843190499050  0.06872710331033 -2.98626456465646
 1  1.13885607450745 -4.76497767746775  1.25632320892089
 1  2.67805407550755 -5.12370957545755  0.64609242414241
 1  3.91975703800380 -4.11341879407941 -2.42227568866887
 1  5.29457055545555 -2.87727657785779 -1.39100271787179
 1  4.52345377847785 -2.28747097969797 -2.90313938753875
 1  4.94324394389439 -0.28789088358836 -1.80491666736674
 1 -9.54943854435444  1.03202065756576 -0.37224991479148
 1 -9.95415354895490  0.49063047874788 -2.17885398539854
 1  4.14307899439944  2.86297968166817  3.51814658035804
 1  6.03761722992299  1.51322347154716 -2.58369718471847
 1  5.04430513031303  5.65280804500450 -0.32504112401240
 1  4.31093311581158  5.66122288798880 -2.03244578947895
 1  3.26745441504150  5.97571717811781 -0.64195593719372
 1  1.01663897199720 -8.02566372347235  1.37004305920592
 1  7.61890433483348  3.49570511041104 -2.99772704600460
 1  6.39269115661566  4.45371088328833 -1.96366871937194

