%nproc=4
%Mem=3GB
# td=(NStates=1) B3LYP/SVP 

TD

0 1
 8 -3.18744565476548 -1.32305736123612 -2.90177083138314
 8  3.04467492229223  3.24060571907191  2.88624289518952
 8  3.52132644084408  1.63295042334233  4.53102754635464
 8  7.69371797469747 -1.76970308450845 -0.40955171697170
 8  6.81313546994699 -2.70039083398340 -2.49739618771877
 8 -2.63022392889289  1.63284877397740  1.57005706620662
 7 -0.14829057525753 -2.43858017231723  0.93260810161016
 7 -2.65012705070507 -1.16738187318732 -0.60414255885589
 7  1.17695924532453  0.07894880458046 -0.61620655785579
 7 -0.95672481798180  1.40024543244324 -0.09813071097110
 6 -3.35646079577958 -1.35312287468747  0.61143811771177
 6 -2.61297992409241 -2.46519066526653  1.56175148194820
 6 -1.18177381908191 -2.10738855285529  1.77419540814081
 6 -0.54333413571357 -1.14857604930493  2.81238925942594
 6  0.84283539613961 -1.15678067906791  2.49874106870687
 6  1.01783446964696 -1.88315475017502  1.29750455445545
 6 -4.74563951055106 -1.91073672237224  0.21292818011801
 6  1.83111770317032 -0.33741407100710  3.24527668216822
 6 -4.82288865026503 -2.03331203960396 -1.12993333383338
 6  2.08585654205421 -1.93286147834783  0.39660193889389
 6  2.11287730963096 -0.98820073227323 -0.51630553205321
 6 -3.46522119201920 -1.43179514481448 -1.66111339473947
 6  2.96852791599160 -0.75392614091409 -1.71766566546655
 6 -1.25133370557056 -0.41985584258426  3.82747825612561
 6 -5.80425564966497 -2.03751023132313  1.23771477707771
 6  2.49721937883788  0.32568993719372 -2.44585919591959
 6  1.99149858225823  1.12097778977898  2.53804044564456
 6  1.31773514001400  0.71867851645165 -1.81382748874887
 6  4.28671402050205 -1.48227765686569 -2.13301293139314
 6 -5.89671400750075 -2.33960605100510 -2.13163661186119
 6  5.39282483348335 -1.23460520572057 -1.06942035893589
 6  3.05472556795680  0.99309771237124 -3.67614412361236
 6  0.47336976107611  1.88328347524752 -2.10185193029303
 6  2.95398403870387  2.03415300080008  3.48506385158516
 6 -0.71965579717972  2.15070970317032 -1.27593288118812
 6 -7.09964389088909 -2.95041880598060 -1.90528908760876
 6  6.71055062466247 -1.94269252435243 -1.44097478747875
 6 -1.50071872667267  3.38648088128813 -1.22327040174017
 6 -2.24546863626363  3.32464294329433 -0.05792369856986
 6 -2.10898317071707  2.04424535803580  0.56076500850085
 6 -1.32840281868187  4.49390565076508 -2.10681244924492
 6 -3.27384802130213  4.22487297019702  0.55700994069407
 6 -2.02942683388339  5.64104952315232 -2.35515924872487
 1 -3.46665515871587 -0.41572706260626  1.09511371597160
 1 -2.57955958235824 -3.42994811981198  1.31576192529253
 1 -3.06869668946895 -2.34912835723572  2.62303169186919
 1 -0.35522082688269 -3.02821158625863 -0.01286427642764
 1 -1.87017540724072 -0.59289559305931 -0.74991909430943
 1  1.65781374277428 -0.13616507030703  4.41679377847785
 1  2.80994832773277 -0.82708459975998  3.16653158255826
 1  2.94261307520752 -2.59218080098010  0.29555260846085
 1 -2.19969259855986 -0.90370964496450  4.21750881268127
 1 -0.42385215321532 -0.23446765036504  4.72828918541854
 1 -1.54258357215722  0.71844429112911  3.47413617891789
 1 -5.51933272047205 -1.79028715991599  2.29002329532953
 1 -6.12987174787479 -3.07159126372637  1.69622246854685
 1 -6.76144352115212 -1.44720036343634  0.76810317201720
 1  2.22516865626563  1.13294323622362  1.60097770907091
 1  1.05578553005301  1.65975822012201  2.63538151185118
 1  0.46460471807181  0.33508787858786 -0.04080611291129
 1  4.78633435263526 -1.63640669966997 -3.27139274117412
 1  4.04402523232323 -2.50130190939094 -1.91041814981498
 1 -5.68159029742974 -2.12290321492149 -3.26635009880988
 1  5.09212713401340 -1.46172665256526  0.02517574127413
 1  5.79741118241824 -0.07663465956596 -1.05153963646365
 1  3.79541945344534  0.41961845394539 -4.04776300580058
 1  3.64852060366037  1.97127820652065 -3.23106544194419
 1  2.31885767506751  1.40574507240724 -4.36432958495850
 1  0.68387229722972  2.46913841034103 -3.07170806280628
 1 -7.25626471257126 -3.36344852875288 -1.04458347954795
 1 -7.80636890179018 -3.07252858335834 -2.57684073757376
 1  3.78790251775178  3.76202556355636  3.50270352455246
 1 -0.44130800960096  4.41220249974997 -2.79181707710771
 1 -4.43122171177118  4.18243482528253  0.06513536203620
 1 -3.39135788548855  4.06799159275928  1.63845465686569
 1 -2.85434375057506  5.23319361046105  0.60768653855386
 1  8.43794948844885 -2.26428958315832 -0.87194782978298
 1 -1.70892381698170  6.44518497559756 -2.97648250045005
 1 -3.05432778567857  5.86827820362036 -1.94698060556056

