%nproc=4
%Mem=4GB
# td=(NStates=1) B3LYP/SVP 

TD

0 1
 8 -5.61115734573457  0.31439687928793 -3.34636442614261
 8  2.88884889038904  3.04027128182818  2.89374545294529
 8  3.22912126072607  0.70306570557056  3.13386527162716
 8  1.81165880538054 -7.10733700380038  1.60981948824882
 8  1.03352824082408 -7.12838926252625 -0.52008999189919
 8  1.62827987608761  3.83817694049405  0.01385089248925
 7 -2.34100371147115 -1.00829926012601  0.43328034463446
 7 -4.45696057745775  0.67460512701270 -1.25783413821382
 7  1.88496888848885 -0.71907348034803 -0.31347982558256
 7  2.49278482038204  1.76603234873487 -0.67950469716972
 6 -4.79571596279628  1.19923142014201  0.01970777057706
 6 -4.41764915771577  0.21995216051605  1.23916127382738
 6 -2.94839993559356 -0.09957970127013  1.31601361436144
 6 -1.95403450015002  0.42234719191919  2.15920909050905
 6 -0.63404001430143 -0.13097853335334  1.83343402100210
 6 -0.97694188198820 -0.97553061196120  0.69200101950195
 6 -6.38297065316532  1.41682947224722 -0.07554276967697
 6  0.54164277087709  0.11192186868687  2.61158017811781
 6 -6.73774428892889  1.13738298669867 -1.31052678137814
 6 -0.18979523562356 -1.94470320722072  0.07607968946895
 6  1.19248614481448 -1.86012555915592 -0.33564514671467
 6 -5.57235783608361  0.57935615031503 -2.11255856735674
 6  1.98901298649865 -2.86975751415142 -0.98289529882988
 6 -2.27903360426043  1.32752850975097  3.28901329152915
 6 -7.11716921012101  2.00559868906891  0.99474346024602
 6  3.25052138583858 -2.37016696789679 -1.24392563766377
 6  1.06891291859186  1.57476596999700  2.46380001590159
 6  3.07499557485749 -0.98294692029203 -1.01963595179518
 6  1.66541031123112 -4.33541950635063 -0.90731244814481
 6 -8.00786669266927  1.11297293489349 -1.99444783258326
 6  1.83242080768077 -4.92043297789779  0.47662365786579
 6  4.32468807780778 -3.12468093689369 -1.84983421472147
 6  4.07604847544754  0.05846525002500 -1.33709839223922
 6  2.52048266946695  1.71630921912191  2.96003190309031
 6  3.75381975977598  1.42325773727373 -1.19176574387439
 6 -9.16834181758176  1.10237239753975 -1.32648746404640
 6  1.52489755445545 -6.48759540974097  0.45207386638664
 6  4.53618245284528  2.63509026392639 -1.56474355745575
 6  3.86452572097210  3.73746427012701 -1.05326662096210
 6  2.57022859365937  3.24611246234623 -0.59501826452645
 6  5.92470607590759  2.51066590719072 -2.07278923402340
 6  4.22235785558556  5.20035491129113 -1.09986199959996
 6  6.71657171477148  3.45367105190519 -2.41412588948895
 1 -4.34761924802480  1.99335041514151  0.26110915121512
 1 -5.06626128302830 -0.80119159525953  1.02568731293129
 1 -4.69284612451245  0.61165516521652  2.00925783548355
 1 -2.78957799769977 -1.21865926142614 -0.43346026782678
 1 -3.50806180348035  0.67632955005501 -1.53059060996100
 1  0.41185562026203 -0.17099678767877  3.65220476857686
 1  1.46985099449945 -0.55285995339534  2.36857198999900
 1 -0.69352801370137 -2.80834829982998 -0.13213821152115
 1 -3.43523366866687  1.50802206630663  3.43025301500150
 1 -1.62343355845585  1.08744810871087  4.23288167606761
 1 -1.99316569766977  2.40080390019002  2.96358378017802
 1 -6.54410786168617  2.86267507100710  1.68029026202620
 1 -7.65304507150715  1.25710551975198  1.74351136183618
 1 -8.10408634583458  2.52006808990899  0.39013749394939
 1  0.89119182758276  1.73808584518452  1.32474054135414
 1  0.46814992749275  2.28930575257526  3.01286711091109
 1  1.79969429582958  0.43325397039704 -0.24083944924492
 1  2.34578237043704 -4.71957578797880 -1.50147475717572
 1  0.66732853035304 -4.57070691819182 -1.20225870927093
 1 -7.89533059485948  1.33940417101710 -3.13890982918292
 1  1.05843803270327 -4.46873805350535  1.16801437803780
 1  2.92762903300330 -4.60063726822682  0.92694050895089
 1  4.44752981528153 -4.22778023022302 -1.72106556765677
 1  5.26167726612661 -2.86339518971897 -1.19888350595059
 1  4.36695812891289 -2.87519975257526 -3.09405847944794
 1  5.10782040154015 -0.32974506900690 -1.66226240194019
 1 -9.09246284678468  0.70415787128713 -0.18400108990899
 1 -10.18405653925393  1.25837725342534 -1.77520362036204
 1  3.94716940344034  2.92376576027603  3.03893865956596
 1  6.45209867806781  1.52236438563856 -1.71658047304730
 1  5.02632333213321  5.38765152935294 -0.45078369826983
 1  4.27595961846185  5.38214498019802 -2.20189273417342
 1  3.45944361396140  5.67476708310831 -0.43575531713171
 1  1.44896220432043 -8.00120127722772  1.81238729362936
 1  7.64698714311431  3.21174671457146 -2.88105537883788
 1  6.38503039053905  4.38337384958496 -2.40635298779878

