%nproc=4
%Mem=4GB
# td=(NStates=1) B3LYP/SVP 

TD

0 1
 8 -5.53729995999600 -0.00607516791679 -3.21244103380338
 8  3.00861086658666  3.12972022672267  3.16777285568557
 8  3.43538188678868  0.81283668266827  2.87760964606461
 8  1.67482512201220 -7.18979524962496  1.31392989928993
 8  0.47910279827983 -6.98190461406141 -0.51847983088309
 8  1.91609865796580  3.95148827162716  0.10540004740474
 7 -2.43821343244324 -0.97604603480348  0.64772178877888
 7 -4.37240212161216  0.68228589508951 -1.20059841464146
 7  1.88336872847285 -0.61528310131013 -0.42897137473747
 7  2.61853739563956  1.86787253275328 -0.70109685638564
 6 -4.86907329852985  1.24152564956496  0.12746854665467
 6 -4.39786717951795  0.29158932423242  1.29548690639064
 6 -2.91494659025903  0.06588684538454  1.40690270327033
 6 -1.91340043674367  0.72950790799080  2.09331250085008
 6 -0.75612222252225  0.08794335883588  1.69839051665167
 6 -0.98234242204220 -0.96341940084008  0.77502932233223
 6 -6.36404876097610  1.26465425472547 -0.12107732313231
 6  0.53031163776378  0.21622229872987  2.45554457455746
 6 -6.71841235573557  0.67265651405141 -1.30317604630463
 6 -0.18831508760876 -1.81394013091309  0.09507158865887
 6  1.05624252045205 -1.74967451405141 -0.45355693789379
 6 -5.51100170047005  0.41685990069007 -2.08395570707071
 6  1.86241032623262 -2.81291182958296 -0.87776478577858
 6 -2.11829753065307  1.80258601550155  3.11553594379438
 6 -7.26886437963796  1.85570369956996  0.94242822872287
 6  3.06013234693469 -2.35152510371037 -1.29873111821182
 6  1.16808283558356  1.64436292969297  2.53803743964396
 6  3.08881695699570 -0.95919454505451 -1.06311029922992
 6  1.47434120432043 -4.23610957535754 -0.98479019591959
 6 -7.99549545554556  0.45582722032203 -2.01400978877888
 6  1.67698526412641 -5.02680361496150  0.40604660016002
 6  4.28589419841984 -3.09952842164216 -1.89584881618162
 6  3.97006787738774  0.04379378287829 -1.40828551095110
 6  2.67905852705270  1.76337392559256  2.91744764466447
 6  3.78195257305731  1.43244865636564 -1.11744831213121
 6 -9.29582456585659  0.57461962226223 -1.50739555485549
 6  1.22865793049305 -6.51245789598960  0.35910456945695
 6  4.70855969056906  2.65567232213221 -1.34868195129513
 6  4.00159942834283  3.70564108780878 -1.07179847414741
 6  2.81541311211121  3.27764561566157 -0.45784454715472
 6  5.89449305460546  2.49248408900890 -1.99441139623962
 6  4.51031665146515  5.18158303410341 -0.85740775417542
 6  6.86443650125012  3.39031471627163 -2.37971244814481
 1 -4.36607109320932  2.17825890599060  0.26806984728473
 1 -4.97401205810581 -0.50513198929893  1.13472821702170
 1 -4.83539037893789  0.62126612631263  2.38720563026303
 1 -2.97442648254825 -1.41155855135514 -0.22139906170617
 1 -3.42103310061006  0.67767968506851 -1.55272282318232
 1  0.42819725442544 -0.18033772177218  3.49141868996900
 1  1.20980498989899 -0.43355802320232  2.06218135093509
 1 -0.74982364326433 -2.63572103710371 -0.46870186788679
 1 -3.37105725102510  1.80983224732473  3.27141713141314
 1 -1.59056027112711  1.50028939283928  4.05426381428143
 1 -1.63823020412041  2.76846066586659  2.92770019181918
 1 -6.57326077697770  2.58731753525353  1.58247048004800
 1 -7.63670343734373  0.98360817001700  1.57412442314231
 1 -8.00844678187819  2.35479156225623  0.65394387458746
 1  0.99367207560756  2.09953198979898  1.54008207550755
 1  0.74661777427743  2.29955677767777  3.35084090829083
 1  1.64769909630963  0.31219186418642 -0.21718708400840
 1  1.90561835403540 -4.76575040544054 -1.90720533023302
 1  0.28183998149815 -4.14527437493749 -1.25544402780278
 1 -7.91919298109811  0.34802503310331 -3.00594653285329
 1  1.15864805370537 -4.60891207090709  1.21816939353935
 1  2.78311458155816 -5.07382458695870  0.49204701960196
 1  4.33334839713971 -4.27294474667467 -1.69665312641264
 1  4.99889098749875 -2.44543339353935 -1.18541215881588
 1  4.40247168026803 -2.76201843444344 -2.92862193579358
 1  4.87402702220222 -0.16931902640264 -1.85519169486949
 1 -9.40623422392239  0.45883333883388 -0.53301599139914
 1 -10.29069720332033  0.36788820452045 -2.05773187318732
 1  3.93341802830283  3.13621700540054  3.01359612531253
 1  6.11047451565156  1.50428257745775 -2.12255107010701
 1  5.27969866966697  5.29520228442844  0.07924930503050
 1  4.93264528702870  5.76483324902490 -1.67991053595360
 1  3.63564123372337  5.84762436883688 -0.58098984058406
 1  1.54637194529453 -8.13707486458646  1.19340539543954
 1  7.67434987938794  2.75066060596060 -2.81877915121512
 1  6.78131001850185  4.49892540474047 -2.04206655915592

