%nproc=4
%Mem=4GB
# td=(NStates=1) B3LYP/SVP 

TD

0 1
 8 -5.54701093109311  0.08205364496450 -3.25701549124912
 8  2.94743474897490  2.92594984968497  3.30695677407741
 8  3.38545689428943  0.75708110711071  3.07357924302430
 8  1.67795543504350 -7.21117738783878  1.45649415571557
 8  0.58164305230523 -7.05948237183718 -0.50156813971397
 8  1.62195924402440  3.98922204500450  0.02515202260226
 7 -2.28884849594959 -0.86387481768177  0.52355937253725
 7 -4.38727360876088  0.56669433593359 -1.33555190999100
 7  1.89553994559456 -0.69527110011001 -0.43124160176018
 7  2.55220076197620  1.83691943744374 -0.39611635833583
 6 -4.67047343854385  1.27630912791279 -0.04522872307231
 6 -4.31013840664066  0.37131729702970  1.26922428012801
 6 -2.90146524212421  0.03183344004400  1.40448246124612
 6 -1.90009910661066  0.61770672787279  2.18062123172317
 6 -0.65453206350635  0.02349691419142  1.78468914651465
 6 -0.99655384318432 -0.93893695259526  0.72657447684769
 6 -6.21222357845785  1.37154494379438 -0.20085530093009
 6  0.66267487408741  0.18510918741874  2.46237525762576
 6 -6.63037355185519  0.93521276967697 -1.37547327602760
 6 -0.19223547964796 -1.95416415331533  0.07864994649465
 6  1.06204310051005 -1.83077262386239 -0.36960854305431
 6 -5.47036763706371  0.46701491619162 -2.15751306280628
 6  1.90697478267827 -2.93635417381738 -0.96293330263026
 6 -2.03688938983898  1.69114487138714  3.31685607580758
 6 -6.97307480068007  2.03766189538954  0.92781676757676
 6  3.11573790749075 -2.42979293049305 -1.31632287738774
 6  1.25898192549255  1.54759325272527  2.44034767066707
 6  3.18063613891389 -0.92926155175518 -1.00014400260026
 6  1.49404317451745 -4.34623058745875 -0.93334505140514
 6 -7.92006791279128  0.71347298489849 -1.97586597439744
 6  1.63427099269927 -5.08006894149415  0.41568756425643
 6  4.21746735573557 -3.07670613941394 -1.95207443874387
 6  3.99427029762976  0.05015441894189 -1.25521020342034
 6  2.64274489568957  1.67664525272527  2.92150805070507
 6  3.68395277307731  1.57957336883688 -1.09138570587059
 6 -9.15248023142314  0.51450361066107 -1.42217703300330
 6  1.19272433713371 -6.44468111831183  0.32100075907591
 6  4.48374720932093  2.68853560846085 -1.40071715481548
 6  3.85671493989399  3.89318984268427 -1.08647994229423
 6  2.58307987878788  3.27225507660766 -0.48060682338234
 6  5.78136174147415  2.55175001560156 -2.02116407150715
 6  4.17414303410341  5.29562443824382 -1.23858587198720
 6  6.72021207880788  3.39891557635764 -2.42666714361436
 1 -4.26947143324333  2.33755483558356 -0.05594255395539
 1 -4.73132778967897 -0.56369784588459  1.28665340954095
 1 -4.66442328222822  0.74416841654165  2.27589449914992
 1 -3.06451549144914 -1.37271466696670 -0.11579850165016
 1 -3.38493949124913  0.40055197229723 -1.60500805170517
 1  0.73018745344534 -0.09787947594760  3.50706025412541
 1  1.46024003340334 -0.69249391679168  2.16737186998700
 1 -0.69720838173817 -2.97279474447445 -0.17563256095610
 1 -3.23297344264426  1.65823708780878  3.59513950365036
 1 -1.71154236933693  1.21962132603260  4.24738312621262
 1 -1.40765714681468  2.60420424022402  3.16916433823382
 1 -6.55703915481548  2.85766456995700  1.35375760876088
 1 -6.90199996699670  1.22262207140714  1.77530454115412
 1 -8.10421635883588  2.16061214431443  0.50379886008601
 1  0.87286999539954  1.93847588418842  1.34514258155816
 1  0.54759787228723  2.24907172917292  2.98378420262026
 1  1.76331065746575  0.19471011601160 -0.03290865616562
 1  2.10915870807081 -4.87006083648365 -1.75205981568157
 1  0.42784458195820 -4.43238308580858 -1.28074655805581
 1 -7.75460652245224  0.54200443104310 -3.14962090029003
 1  1.10144233313331 -4.66608778847885  1.25612318891889
 1  2.61947821792179 -4.98624582908291  0.88759657455746
 1  3.99295435773577 -4.17408486068607 -2.15059852095210
 1  4.97399849824983 -3.11875072527253 -1.30562418001800
 1  4.41194262736274 -2.59399163176318 -2.95237431103110
 1  4.95426504600460 -0.17847994249425 -1.53209938563856
 1 -9.26402000250025  0.90052750825083 -0.33551624142414
 1 -10.21246938053805  0.38000941664166 -2.03737983798380
 1  3.85230991749175  3.06157954165417  3.56202096779678
 1  6.02318578677868  1.50756290549055 -2.41445026002600
 1  5.07463816361636  5.65587835203520 -0.58487710761076
 1  4.52875489798980  5.53354011971197 -2.20010255515552
 1  3.32333000260026  5.97682728912891 -0.98073981558156
 1  1.09925723382338 -8.00682183928393  1.55257131203120
 1  7.81528397279728  3.17969350925092 -2.67704497779778
 1  6.72636452395239  4.56032154435444 -2.23293564606461

