%nproc=4
%Mem=3GB
# td=(NStates=1) B3LYP/SVP 

TD

0 1
 8 -3.34748165836584 -1.39681473697370 -2.88252890719072
 8  3.07363781858186  3.24152581108111  3.33426769766977
 8  3.72779708790879  1.39459658795880  4.40090453405341
 8  7.76995559845985 -1.62832894709471 -0.98549931173117
 8  6.59297345374537 -3.04832562746275 -2.18801524962496
 8 -2.66471737823782  1.67302279137914  1.46040610111011
 7 -0.29851559775978 -2.34940125442544  0.90607544834483
 7 -2.64065610361036 -1.24112924792479 -0.65007715231523
 7  1.02380392979298  0.12426333603360 -0.71126606380638
 7 -1.02170131563156  1.48640404830483 -0.21674257215722
 6 -3.37677282698270 -1.32071963436344  0.60304727862786
 6 -2.68496712281228 -2.34978912511251  1.63770907770777
 6 -1.31136677837784 -2.04489230323032  1.87940592919292
 6 -0.54649445174517 -1.23242443414341  2.85482350285029
 6  0.76972808540854 -1.15255025602560  2.54430562516252
 6  0.92994568076808 -1.94083051775178  1.31238604260426
 6 -4.79796474307431 -1.84559020772077  0.24151103840384
 6  1.97637222862286 -0.46025635523552  3.12919507400740
 6 -4.80812717411741 -2.08243695209521 -1.15111545204520
 6  2.04756271267127 -1.88501669386939  0.29946222492249
 6  2.04405042694269 -0.84817672987299 -0.63404730623062
 6 -3.60975564546455 -1.54623658895890 -1.69775705910591
 6  3.02883394659466 -0.63245399369937 -1.72313621252125
 6 -1.14494306650665 -0.48593245024502  3.98866437473747
 6 -5.77455267936794 -2.28544502480248  1.34015502110211
 6  2.65721537843784  0.53072044024402 -2.30715532553255
 6  1.98358779117912  1.06279197119712  2.83605024662466
 6  1.32673604010401  0.94297094569457 -1.72529863586359
 6  4.18763411251125 -1.43052248134813 -2.00357998809881
 6 -5.88585292139214 -2.55781787218722 -2.06824027222722
 6  5.41466701770177 -1.20355210041004 -1.00471388828883
 6  3.38420851625163  1.19540794339434 -3.55346185538554
 6  0.59070149424942  2.04649979687969 -1.93215496059606
 6  3.04949358965897  1.90269985548555  3.61318666386639
 6 -0.60876470807081  2.28958359055906 -1.24633992189219
 6 -6.90784471097110 -3.34615837993799 -1.70622918161816
 6  6.65050462006201 -2.08776703180318 -1.45242593259326
 6 -1.39709836463646  3.59801203440344 -1.32315038973897
 6 -2.42010610001000  3.33780425942594 -0.31282918911891
 6 -2.11745401780178  2.13720465396540  0.34745367736774
 6 -1.20885086348635  4.67368362856286 -2.34550631863186
 6 -3.43717435393539  4.22412289518952  0.23591783148315
 6 -1.91849574077408  5.80131554975498 -2.55693942674267
 1 -3.46271476467647 -0.50067555745575  1.14181838643864
 1 -2.67219884628463 -3.35311043604360  1.30740108920892
 1 -3.17756757655766 -2.12594603900390  2.60222961166117
 1 -0.46337164196420 -2.87437620272027 -0.02792578257826
 1 -1.82868125782578 -0.58515481898190 -0.73664776717672
 1  1.88308627002700 -0.64112556635664  4.27232933203320
 1  2.85890322322232 -0.87836972827283  2.84792972237224
 1  2.55683449734974 -2.86319790269027  0.18287134033403
 1 -1.83267589688969 -1.21453072707271  4.36577363916392
 1 -0.57121688968897 -0.22877708130813  4.78784514101410
 1 -1.77253656745675  0.41647409410941  3.63539230453045
 1 -5.67044783198320 -1.56803493469347  2.23254754775478
 1 -5.69149791049105 -3.41271537613761  1.49737258355836
 1 -6.88924630143014 -2.09707535093509  0.87219358105811
 1  2.33795993539354  1.09149909180918  1.82917052835284
 1  0.91667161866187  1.47059930423042  3.00226820052005
 1  0.18938719631963  0.24291866166617 -0.11226325862586
 1  4.65239095829583 -1.45749880888089 -2.97763336523652
 1  3.86750758055806 -2.53010478967897 -1.95966307430743
 1 -5.77119925832583 -2.11908283288329 -3.11570503430343
 1  5.06889481078108 -1.39385986588659 -0.01828860516052
 1  5.82962440374037 -0.10337733383338 -0.93091757425743
 1  4.15217512901290  0.75124161626163 -4.14098232773277
 1  3.70625637723772  2.27338841754175 -3.38132046744674
 1  2.66075186448645  1.47416191409141 -4.28203135513551
 1  0.82347625762576  2.89217071357136 -2.64868576057606
 1 -7.30494958105811 -3.55435761966197 -0.67219624082408
 1 -7.65876414131413 -3.78634996549655 -2.31008406190619
 1  3.73672740024002  3.52411177217722  3.90098335253525
 1 -0.24060793959396  4.39982126162616 -2.88725662106211
 1 -4.22889147874788  4.67004358615862 -0.56567771927193
 1 -4.19875862556256  3.78852364596460  0.99917072847285
 1 -2.91161947814782  5.23379367046705  0.78218398829883
 1  8.56561225472547 -2.21626478067807 -1.35931656665667
 1 -1.55306823142314  6.41953241034103 -3.27693254545455
 1 -2.81652400530053  6.12531390719072 -2.09192510001000

