%nproc=4
%Mem=3GB
# td=(NStates=1) B3LYP/SVP 

TD

0 1
 8 -3.29214612481248 -1.41804686018602 -2.79439009330933
 8  2.97209766456646  3.02797445594559  3.23621789268927
 8  3.81484579277928  1.20786791509151  4.30056450005000
 8  7.80683928682868 -1.31900801500150 -0.83954471627163
 8  6.74035819221922 -2.93995479037904 -2.01955840394039
 8 -2.63176408290829  1.60895638473847  1.33096315681568
 7 -0.28800454665467 -2.52048836313631  0.88106294709471
 7 -2.71442348034803 -1.33600873587359 -0.62320446504650
 7  1.19405095449545  0.09803071277128 -0.69601453865387
 7 -0.97141628712871  1.59411481938194 -0.22506340424042
 6 -3.33720887058706 -1.41340890329033  0.65664263816382
 6 -2.65029365546555 -2.45356950315031  1.60838614541454
 6 -1.23889953165317 -2.13849166316632  1.78471646024602
 6 -0.61306110841084 -1.30321151285129  2.83941196169617
 6  0.65858697129713 -1.23538853985399  2.42783397799780
 6  0.85504819101910 -1.92039847454745  1.29725452945294
 6 -4.83145809240924 -1.87794344304430  0.36776366366637
 6  1.81422601400140 -0.44393472307231  3.24350650515052
 6 -4.93047940934093 -2.00957966636664 -0.98462880338034
 6  2.06765472187219 -1.81308950115011  0.43097537623762
 6  2.19589561146115 -0.84785669786979 -0.60148404990499
 6 -3.66736140604060 -1.62001396669667 -1.66003328672867
 6  3.04554561776178 -0.70209095739574 -1.74473837273727
 6 -1.35783435563556 -0.53213707070707  3.93744925322532
 6 -5.84120934503450 -2.09478595889589  1.40338134373437
 6  2.66537619451945  0.47728509670967 -2.48163277327733
 6  1.95883531593159  1.01253694569457  2.73131977357736
 6  1.45526889338934  0.96893354195420 -1.73770987698770
 6  4.27342269136914 -1.51653108220822 -1.92943257335734
 6 -5.97188152425243 -2.39491158155816 -1.83984743294329
 6  5.45501105210521 -0.99877162236224 -1.11278469536954
 6  3.28456855225523  1.11246964956496 -3.68132464166417
 6  0.54203662776278  2.02188733563356 -2.10336208130813
 6  3.03355199549955  1.70518010351035  3.56474181938194
 6 -0.50439427102710  2.33504813701370 -1.16128141604160
 6 -7.06567049354936 -3.24566833093309 -1.68683724242424
 6  6.69671924152415 -1.81707996309631 -1.41258194819482
 6 -1.42500115491549  3.60175240844084 -1.31012908760876
 6 -2.33515760516052  3.46604708370837 -0.38179608580858
 6 -2.02430470287029  2.19434036753675  0.38163709570957
 6 -1.28309828822882  4.60108636883688 -2.38331009900990
 6 -3.36324696119612  4.37877836073607  0.25382962266227
 6 -1.90680457165717  5.84966038423842 -2.54294802760276
 1 -3.27842633583358 -0.56707219711971  1.27137134173417
 1 -2.69038066446645 -3.42973809880988  0.91584193329333
 1 -3.17454727452745 -2.45934937933793  2.51987137583758
 1 -0.43713901870187 -3.09415818091809  0.06458346834683
 1 -2.14438282798280 -0.58987529102910 -0.99674377677768
 1  1.63935189658966 -0.63892534633463  4.29835193429343
 1  2.75075240814081 -1.09178106940694  2.83496842624262
 1  2.92078089198920 -2.64399598249825  0.43705675887589
 1 -2.16016864616462 -1.24105337933793  4.28974603640364
 1 -0.51560132813281 -0.20318452205221  4.58256461296130
 1 -1.99303861766177  0.29335178187819  3.51512027732773
 1 -5.83590437763776 -1.34117224842484  2.23134742774277
 1 -5.81360012071207 -3.10148425302530  1.94225707200720
 1 -6.80834821162116 -2.04757040044004  0.80786714841484
 1  2.46025216461646  0.83658360026003  1.62243985528553
 1  1.14882483398340  1.39915215951595  2.75573354705471
 1  0.36466472407241  0.42102647244724 -0.13301533383338
 1  4.44724044324432 -1.46612967196720 -3.07540314221422
 1  4.02363319311931 -2.62400417961796 -1.78989609760976
 1 -5.71850398879888 -2.01058198279828 -2.98728219201920
 1  5.21031895319532 -1.02844332423242  0.10938416211621
 1  5.62769421072107  0.16895989988999 -1.50858534103410
 1  4.14841475297530  0.43149964206421 -3.95147337683768
 1  3.72128788038804  2.24758583728373 -3.49058139353935
 1  2.57416320562056  1.14414891279128 -4.46123927592759
 1  0.75716962696270  2.64106560306031 -2.84186507850785
 1 -7.34090317641764 -3.67114929882988 -0.57614663586359
 1 -7.82625088998900 -3.45362669316932 -2.59486253975398
 1  3.67363109060906  3.54549391039104  3.61948520272027
 1 -0.70188406720672  4.33572485198520 -3.12513040844084
 1 -3.87505609520952  4.92712929472947 -0.39344049554955
 1 -4.00097884758476  3.84140893449345  0.89494030543054
 1 -2.75294361056106  5.25994628572857  0.63523929382938
 1  8.33802949644965 -1.94751790599060 -1.03707434243424
 1 -1.63207613221322  6.27136759385939 -3.42805765796580
 1 -2.67642999589959  6.26176755255526 -1.86578248574857

