%nproc=4
%Mem=3GB
# td=(NStates=1) B3LYP/SVP 

TD

0 1
 8 -3.32937984818482 -1.55220027552755 -2.83757441174117
 8  2.98175863066307  3.08121978047805  2.95964023492349
 8  3.50695500370037  1.34737186548655  4.48276271987199
 8  7.84451305420542 -1.36579269346935 -0.81887264906491
 8  6.62811696809681 -3.02692348724872 -1.85364181228123
 8 -2.72419332583258  1.58289377847785  1.37455751625163
 7 -0.24948069426943 -2.48848516281628  0.90951579237924
 7 -2.76437847584758 -1.24513964896490 -0.59972211681168
 7  1.11098264766477  0.07397830753075 -0.73337827502750
 7 -1.13252239773977  1.35983139103910 -0.29566046394639
 6 -3.33881903160316 -1.34607216961696  0.67127410131013
 6 -2.54443306940694 -2.37417156335634  1.56609191599160
 6 -1.25336097779778 -2.10716853085309  1.79864785338534
 6 -0.52939274157416 -1.30176136783678  2.75849386988699
 6  0.78898001060106 -1.20455545654565  2.48220941554155
 6  0.95868855505551 -1.96835327002700  1.21521632563256
 6 -4.76241118771877 -1.77348299699970  0.26742362966297
 6  1.91574616601660 -0.42846317591759  3.21957411191119
 6 -4.90245660706071 -1.88253696209621 -1.07288762926293
 6  2.05060301670167 -1.88519671187119  0.28692097079708
 6  2.11375739763976 -0.92634454665467 -0.70633453495350
 6 -3.43935860576058 -1.51935390069007 -1.72753003640364
 6  3.08931999519952 -0.63862461076108 -1.77701160006001
 6 -1.32732130433043 -0.67535139213921  3.94177968626863
 6 -5.83559878397840 -1.92625910621062  1.44693569916992
 6  2.58822847974798  0.50468783698370 -2.43543815381538
 6  2.01880131253125  1.01362705470547  2.70212685428543
 6  1.42617598409841  0.92438908750875 -1.81581768776878
 6  4.33770912001200 -1.38742817191719 -2.01183081318132
 6 -5.90843517961796 -2.33625571597160 -1.88889233743374
 6  5.57241279227923 -0.99277102230223 -1.14058747564756
 6  3.24840493589359  1.16390479307931 -3.64708121732173
 6  0.55910833493349  2.01886703360336 -2.06160790589059
 6  2.89926856715672  1.85016460196020  3.49247459265927
 6 -0.49246307790779  2.27198183038304 -1.17821310921092
 6 -7.01890581708171 -3.01872563666367 -1.56195475417542
 6  6.71417098669867 -1.91249950505050 -1.42520321032103
 6 -1.37540619541954  3.53403563676368 -1.26206428112811
 6 -2.30582467186719  3.40760123912391 -0.22059996619662
 6 -2.06465873827383  1.99145007850785  0.39746867886789
 6 -1.18631861026103  4.59896615681568 -2.25425719371937
 6 -3.32751338783878  4.23191367426743  0.27209144884488
 6 -2.04360825202520  5.61637705590559 -2.39492322512251
 1 -3.35135362856286 -0.40871636153615  1.13504770937094
 1 -2.60786241264126 -3.38175330033003  1.13949429852985
 1 -2.91418123792379 -2.10665410981098  2.56681607030703
 1 -0.74953025782578 -2.61372013711371 -0.12931592159216
 1 -1.99360775047505 -0.66125242874287 -0.66128023042304
 1  1.68938690009001 -0.39941139493949  4.38983108220822
 1  2.78776610951095 -1.13622551385139  3.00244517391739
 1  2.87254606850685 -2.56680826372637  0.38513156635664
 1 -2.06388901820182 -1.39759903390339  4.40336739853985
 1 -0.58647841584158 -0.35687989158916  4.67503385988599
 1 -1.99099841364136  0.14651709840984  3.54971373667367
 1 -5.56938772597260 -0.97066519771977  2.01700599359936
 1 -5.73736249694970 -2.77416152075208  2.11874472077208
 1 -6.96331370817082 -1.81867751115111  1.15585194689469
 1  2.26781292069207  0.91386132803280  1.71612922422242
 1  0.96103605510551  1.30485272957296  2.72098007170717
 1  0.25247350495050  0.12371674147415 -0.16928896119612
 1  4.70818653785379 -1.33146620562056 -3.07348295019502
 1  4.04250508030803 -2.42871465066507 -1.56472358035804
 1 -5.78441057945795 -1.86510743534353 -2.97977144094409
 1  5.41583950525053 -1.06095657555756 -0.07275405170517
 1  5.75727716901690  0.13675667956796 -1.23063754625463
 1  3.78576848834884  0.34869136123612 -4.30632886238624
 1  3.85105085668567  2.14529560826083 -3.42051438683868
 1  2.38904469376938  1.36088058595860 -4.31458461046105
 1  0.83214712471247  2.66506800330033 -2.70944183618362
 1 -6.90675976207621 -3.40962314621462 -0.56043506470647
 1 -7.78569683458346 -2.90371170167017 -2.20541359485949
 1  3.53916764426443  3.57637699869987  3.60139339353935
 1 -0.15742962176218  4.53859513901390 -2.71108900430043
 1 -4.23953254285429  4.32095867766777 -0.33502465396540
 1 -3.66776552625263  3.92422721632163  1.37430824222422
 1 -2.99081739793979  5.21154144524452  0.43909967986799
 1  8.64459015251525 -2.07125027922792 -1.11099173417342
 1 -1.78363128772877  6.37727818491849 -3.02055690789079
 1 -3.11225357825783  5.80197157295730 -1.97714362186219

