%nproc=4
%Mem=3GB
# td=(NStates=1) B3LYP/SVP 

TD

0 1
 8 -3.17656456665667 -1.40309536503650 -2.84920557485749
 8  3.10492094689469  3.04919657815782  2.94685895679568
 8  3.69386369456946  1.38020514881488  4.49500394399440
 8  7.63088169106911 -1.42416853105311 -0.66997775957596
 8  6.77559171557156 -2.82986378127813 -2.19580602870287
 8 -2.72057296379638  1.63625911501150  1.37327738823882
 7 -0.23468921512151 -2.41655797009701  0.93405824662466
 7 -2.65475751375138 -1.26518165316532 -0.56106825142514
 7  1.05643719311931  0.05133604330433 -0.71656659385939
 7 -1.00330947644764  1.52014742264226 -0.14432533043304
 6 -3.38383353305331 -1.31960952335234  0.63620059395940
 6 -2.64412303840384 -2.30963510971097  1.58474378117812
 6 -1.10903654535454 -2.00970878487849  1.86228421702170
 6 -0.54295409770977 -1.20951214291429  2.82283030353035
 6  0.78003911651165 -1.22223722472247  2.55203639823982
 6  0.90702338853885 -1.84422085678568  1.25806061006101
 6 -4.74761970857086 -1.72114776347635  0.20850773807381
 6  1.87570216161616 -0.45240557015702  3.21086324082408
 6 -4.75224158555856 -1.93288199659966 -1.10321066156616
 6  1.94858281468147 -1.88561675387539  0.29481175987599
 6  1.99728575047505 -0.97349926212621 -0.72046594809481
 6 -3.38707337723772 -1.55310727602760 -1.67116439983998
 6  2.96235729892989 -0.73891463976398 -1.83456735563556
 6 -1.23361193339334 -0.54263812081208  4.05029053735374
 6 -5.81867709180918 -2.02523900420042  1.20548155375538
 6  2.55957561446145  0.39526689488949 -2.47451206120612
 6  2.00781021342134  0.94105979797980  2.83420006160616
 6  1.33158652515252  0.88033468206821 -1.81218732473247
 6  4.15960130923092 -1.63481291039104 -1.95676530663066
 6 -5.85713004910491 -2.45730782118212 -1.99333278147815
 6  5.31258680968097 -1.08941068626863 -1.12140555745575
 6  3.23439353475348  0.98887729032903 -3.73666017521752
 6  0.59904232833283  2.09925507240724 -1.91838358345835
 6  3.06572521282128  1.77071665716572  3.54140948614862
 6 -0.53360719231923  2.30358499069907 -1.10114540244024
 6 -6.87960188668867 -3.27963172727273 -1.71932049074907
 6  6.61550111971197 -1.91669992509251 -1.41513220322032
 6 -1.39234788958896  3.51191342454245 -1.20930900560056
 6 -2.32586667606761  3.49094957395740 -0.21069897609761
 6 -2.02426469886989  2.15236617011701  0.47918685068507
 6 -1.27470744914491  4.60521678187819 -2.26793856185619
 6 -3.47963860036004  4.31850233313331  0.18612285198520
 6 -2.13449734093409  5.61669708790879 -2.39801353415342
 1 -3.28991748494849 -0.29723521342134  0.98660286488649
 1 -3.00501212761276 -3.45358048304831  1.16405675477548
 1 -3.21150096989699 -2.01600504490449  2.56510589928993
 1 -0.58244354915492 -2.93414217931793 -0.04572756275628
 1 -2.19861825152515 -0.41669797329733 -0.91775587798780
 1  1.92823078447845 -0.38251970577058  4.36560865996600
 1  2.82576990989099 -0.99221111241124  3.07603253265327
 1  2.66502531643164 -2.73671525442544  0.33698675187519
 1 -2.16451908120812 -1.15008428242824  4.38587564936494
 1 -0.37650741874187 -0.54503870747075  4.88345470197020
 1 -1.79592890669067  0.31957440414041  3.68692745804580
 1 -5.80048083528353 -1.12438056925693  1.81750604360436
 1 -5.50876963766377 -2.90638474307431  1.77311015731573
 1 -6.77627500430043 -2.11355699909991  0.67463382508251
 1  2.25099123852385  0.99704964686469  1.68903651495150
 1  1.01344129562956  1.39616186048605  3.00796877057706
 1  0.49207746534653  0.25807017681768  0.06772474017402
 1  4.52271799099910 -1.57147020602060 -2.89953555545555
 1  4.02089291909191 -2.73001478067807 -1.74414152215222
 1 -5.64564670307031 -1.84979590419042 -2.98553201700170
 1  5.21687960926093 -1.05449592949295 -0.01718849514951
 1  5.64128556985699 -0.11188818491849 -1.67263174567457
 1  4.14841475297530  0.34178067016702 -3.90855908540854
 1  3.49014476607661  2.05741682038204 -3.40488282368237
 1  2.45083087238724  1.16629112701270 -4.58386153815382
 1  1.14379828982898  2.74651614811481 -2.75880677267727
 1 -6.95542462856286 -3.69294147804781 -0.60735975717572
 1 -7.65806407130713 -3.59543087358736 -2.63148620212021
 1  3.79567329482948  3.28096745774577  3.56378963316332
 1 -0.42728660746075  4.48293957345735 -2.99272716811681
 1 -4.39421801140114  4.37102368416842 -0.49455060656066
 1 -4.04340309000900  3.92776757035704  1.16047685908591
 1 -2.97099541574157  5.37585787688769  0.39862563246325
 1  8.44553024652465 -2.11796495069507 -0.89918055305531
 1 -1.92359528412841  6.59312977007701 -3.12861771397140
 1 -3.16386873977398  5.93575495129513 -1.63014892239224

