%nproc=4
%Mem=3GB
# td=(NStates=1) B3LYP/SVP 

TD

0 1
 8 -3.19077598779878 -1.34020907640764 -2.84263491779178
 8  2.68656911171117  3.27421908040804  3.52396666756676
 8  3.82586689488949  1.24568169646965  4.17011145474547
 8  7.70073867676768 -1.34011012521252 -0.82880364216422
 8  6.70268442484248 -3.16185698059806 -1.78571501960196
 8 -2.43404431093109  1.60304579367937  1.57794785528553
 7 -0.27426317251725 -2.33183949824982  0.89639448024802
 7 -2.65696773477348 -1.22781791679168 -0.54432657725773
 7  1.19447099649965  0.03664457415742 -0.76638157535754
 7 -0.88401754725473  1.43045845374537 -0.28459935783578
 6 -3.45491064076408 -1.27611517391739  0.70839781368137
 6 -2.70842946904690 -2.24922906910691  1.67433274007401
 6 -1.26976261796180 -1.94764257825783  1.79928791739174
 6 -0.59106890919092 -1.25676686838684  2.77294531503150
 6  0.77055816841684 -1.13999900090009  2.45315651025103
 6  0.95902858905891 -1.86246268096810  1.16449125312531
 6 -4.72155710231023 -1.82962861156116  0.23358024532453
 6  1.80570516191619 -0.36606693629363  3.17502965746575
 6 -4.79671603300330 -1.97394610301030 -1.09958029852985
 6  2.02665062146215 -1.95124331653165  0.29193147184718
 6  2.15040106200620 -0.97977989018902 -0.69551345284528
 6 -3.51480615051505 -1.47508947424742 -1.64507179057906
 6  3.09166022922292 -0.70479122742274 -1.78156205510551
 6 -1.26472504470447 -0.43973783078308  3.88454396269627
 6 -5.73502872697270 -2.11628810911091  1.32873387898790
 6  2.53649330623062  0.38922629082908 -2.51337594759476
 6  1.86282571497150  1.17846353835384  2.85590223182318
 6  1.33418678517852  0.82780942954295 -1.84720082608261
 6  4.23300864996500 -1.57118654775478 -2.10798042814281
 6 -5.86606094219422 -2.40802289268927 -2.05758920712071
 6  5.39910546154615 -1.10719246444644 -1.30865428232823
 6  3.07558765416542  1.04994339693969 -3.71768827802780
 6  0.50890331443144  2.05721086798680 -2.12370411551155
 6  2.89861850215022  1.84332391789179  3.46963230843084
 6 -0.56765059665967  2.27545217741774 -1.24439972787279
 6 -6.86441036753675 -3.22218598269827 -1.90730928962896
 6  6.65853542314231 -2.02477073217322 -1.41033172317232
 6 -1.39750840564056  3.55013724692469 -1.20238831353135
 6 -2.24965905530553  3.31559203820382 -0.13783168936894
 6 -1.90771304370437  2.01731266476648  0.50741967396740
 6 -1.33702368076808  4.64628088828883 -2.21925369336934
 6 -3.23888452495250  4.23177366026603  0.44126836653665
 6 -2.20354424562456  5.58261367956796 -2.44780851365137
 1 -3.51106960016002 -0.22487797769777  1.29703390799080
 1 -2.61547317371737 -3.26553167816782  1.45205555465547
 1 -3.13102292209221 -2.23730717511751  2.69798918761876
 1 -0.22045735053505 -2.82605137023702 -0.03369635963596
 1 -1.94147253695369 -0.52542884638464 -0.74116821922192
 1  1.84941290269027 -0.22637409120912  4.32277437653765
 1  2.92263959685969 -0.77506939823982  2.94562949234923
 1  2.85565437933793 -2.81086266916692  0.28553160636064
 1 -1.85605823512351 -1.03314258825883  4.74951201300130
 1 -0.64627439543954  0.18669446584658  4.51733809030903
 1 -1.93746306010601  0.25920836753675  3.46634539983998
 1 -5.63588437563756 -1.45235336653665  2.28605289828983
 1 -5.65882464316432 -3.17095119971997  1.72351519781978
 1 -6.85137251405140 -2.04924056745675  0.94187054875488
 1  1.92098823822382  1.12377231913191  1.77886549784978
 1  0.84274422592259  1.49627187148715  3.06664463816382
 1  0.33208146574657  0.36276064586459 -0.28316034833483
 1  4.38525424462446 -1.50283334233423 -3.15000060196020
 1  3.93433426322632 -2.75742752195220 -1.82572968096810
 1 -5.62739487788779 -1.94059498409841 -3.00261372517252
 1  5.23225114641464 -1.15861634153415 -0.17264404070407
 1  5.79969141044104 -0.14679167526753 -1.61321580408041
 1  4.39731964346435  0.82221871397140 -3.80009823932393
 1  2.82922867446745  2.22286336503650 -3.63059539493949
 1  2.44378016731673  0.72803730163016 -4.67048020002000
 1  0.56686059605961  2.60445194169417 -3.01415230723072
 1 -6.74394348044804 -3.48670085398540 -0.82701172237224
 1 -7.57575584048405 -3.31793312381238 -2.77015006850685
 1  3.36688041554155  3.64036339733973  4.09343259745975
 1 -0.42816669546955  4.53426470597060 -2.80366826222622
 1 -4.21773036263626  4.43348993079308 -0.21237238873887
 1 -3.57388613831383  3.90043483708371  1.45234604600460
 1 -2.98774709090909  5.33898418951895  0.51215698559856
 1  8.37919361286129 -2.07632078627863 -0.92990362536254
 1 -1.88760168476848  6.16144660176018 -3.37657250945094
 1 -2.96926927982798  5.96060743654365 -1.96797270477048

