%nproc=4
%Mem=4GB
# td=(NStates=1) B3LYP/SVP 

TD

0 1
 8 -5.41736796679668  0.14661010061006 -3.21839162886289
 8  2.83002300780078  3.10320757545755  3.33099917831783
 8  3.34447279587959  0.94118951795180  3.05398728382838
 8  1.66698433793379 -7.22285855595559  1.43767227352735
 8  0.63341822982298 -6.97352377597760 -0.57225520842084
 8  1.64922197029703  3.90402352515252 -0.06951744434443
 7 -2.29849946104610 -0.96214464466447  0.49514653125313
 7 -4.47005188658866  0.55634330083008 -1.23576193099310
 7  1.83446383798380 -0.63726529952995 -0.42100057765777
 7  2.57488303020302  1.80627637313731 -0.64752149884988
 6 -4.76630302150215  1.11574307130713 -0.01822602280228
 6 -4.36265365816582  0.24421458675868  1.22029938763876
 6 -2.87009210481048  0.03792404910491  1.27275928892889
 6 -1.86042513921392  0.60402535973597  2.08047121672167
 6 -0.61526813711371  0.02770733523352  1.71608228582858
 6 -0.93983817161716 -0.92919597849785  0.75961778117812
 6 -6.23262561866187  1.26346413571357 -0.04891010641064
 6  0.62442104870487  0.21637231373137  2.51895091519152
 6 -6.70603111761176  0.83990323872387 -1.27735346404640
 6 -0.10396665276528 -2.02499123602360  0.19118119961996
 6  1.21285818201820 -1.85682522912291 -0.31826340854085
 6 -5.60127072737274  0.44960317501750 -2.09247655915592
 6  1.92561664686469 -2.85603614201420 -0.95089209850985
 6 -2.12198789968997  1.78923468036804  2.97297168736874
 6 -7.02093958715872  1.94617274647465  1.06463044894489
 6  3.12997933163316 -2.29350930213021 -1.39889113421342
 6  1.09103513081308  1.74624311771177  2.67201083698370
 6  3.09986806210621 -0.98248687428743 -1.07016100430043
 6  1.53125689588959 -4.29462542694269 -1.00807252415242
 6 -8.06734264026403  0.59804144174417 -1.93298168596860
 6  1.68227579317932 -5.01959289388939  0.34270026552655
 6  4.22526813581358 -3.02864133293329 -1.99628886018602
 6  3.99462033263326  0.04814421792179 -1.43533821622162
 6  2.43609423062306  1.80855844404440  3.03978987888789
 6  3.75407978577858  1.43351876337634 -1.10495706300630
 6 -9.24518950235024  0.92824498479848 -1.31075589088909
 6  1.26163122782278 -6.51278792899290  0.30633929292929
 6  4.67632646724672  2.55391214611461 -1.28973605670567
 6  3.88663793219322  3.65018554225423 -1.08577987228723
 6  2.56698826962696  3.21920977207721 -0.54529329202920
 6  6.02699630493049  2.39151399199920 -1.88471042614261
 6  4.17873349314932  5.09348422422242 -1.33479549294930
 6  6.91905196279628  3.42432811761176 -2.09693417031703
 1 -4.25416990309031  2.24008508860886  0.03993703400340
 1 -4.61991664856486 -0.87947942404240  0.93911865606561
 1 -4.75377221712171  0.51563556325633  2.26049295899590
 1 -2.80544958485849 -1.58426582208221 -0.06314323612361
 1 -3.60203120042004  0.77039895699570 -1.98118566946695
 1  0.54357879257926 -0.31726141414141  3.51326087418742
 1  1.56358036743674 -0.39688435583558  2.30921605440544
 1 -0.51086974787479 -2.79851731673167 -0.23362836053605
 1 -3.23102324762476  2.06976824092409  3.19273926362636
 1 -1.53957517261726  1.77274663856386  3.91380976887689
 1 -2.05760214131413  2.91882570237024  2.65398282008201
 1 -6.20349380028003  2.25405420892089  1.74926715971597
 1 -7.41496126312631  1.09897970717072  1.55363237393739
 1 -7.75857179437944  2.71926800990099  0.63140162036204
 1  1.12637534593459  2.19453148974898  1.64116218351835
 1  0.56150926342634  2.41431825382538  3.25580140434043
 1  1.49479380578058  0.40715136013601 -0.21075644094409
 1  2.22133992619262 -4.77874170457046 -1.79620423012301
 1  0.63550534803480 -4.42808265576558 -1.32686116951695
 1 -8.06200726252625 -0.10531030043004 -2.76079201740174
 1  1.06641883078308 -4.52937411711171  1.16595417201720
 1  2.56535280538054 -5.07430463496350  0.73553136803680
 1  3.86885194749475 -4.06408386058606 -2.56999046014601
 1  5.18617971637164 -3.35610446064606 -1.23553717131713
 1  4.58418985208521 -2.31662389498950 -2.73840291389139
 1  4.89260888038804 -0.14188628312831 -1.84589076477648
 1 -9.27336093659366  1.46982443794379 -0.26697938773877
 1 -10.09445757935794  0.61492290799080 -1.87892399239924
 1  3.80010469696970  2.99704308800880  3.31025579127913
 1  6.41736520472047  1.51587373657366 -2.27419623462346
 1  5.03752445224522  5.32305506970697 -0.58060668056806
 1  4.68697071957196  5.16248301400140 -2.43883642854285
 1  3.29433710331033  5.88986859325933 -1.00225196679668
 1  1.15957326542654 -8.12398355545555  1.41013706860686
 1  7.79342178657866  3.22539807970797 -2.50281755505551
 1  6.95933782128213  4.55819133133313 -1.72552490499050

