%nproc=4
%Mem=3GB
# td=(NStates=1) B3LYP/SVP 

TD

0 1
 8 -3.08211512171217 -1.29546460196020 -2.82619327362736
 8  2.88283873867387  3.15395705420542  3.15800007090709
 8  3.60995530373037  1.47059418771877  4.44794923852385
 8  7.68219682258226 -1.70294640884088 -0.74214497629763
 8  6.62475663206321 -2.86931772667267 -2.35830227832783
 8 -2.62173307980798  1.69860534963496  1.45923598409841
 7 -0.24694044024402 -2.37278359265927  1.03989883068307
 7 -2.59421145914591 -1.19022415741574 -0.55446759135914
 7  1.15828737813781  0.05997690739074 -0.80261519871987
 7 -1.14704384988499  1.37616302420242 -0.27813871177118
 6 -3.33537868756876 -1.33797135953595  0.67073404730473
 6 -2.67319594569457 -2.40379452565257  1.75169047584758
 6 -1.21070671237124 -2.04805261926193  1.99314730333033
 6 -0.48966876917692 -1.24732592429243  3.00111813231323
 6  0.80572168476848 -1.13561856285629  2.48506970157016
 6  0.96928961516152 -1.86032246694669  1.29196400040004
 6 -4.68521346794680 -1.89865551425142  0.22052894019402
 6  1.89001359275928 -0.28235856545655  3.22001415591559
 6 -4.75001136253625 -1.94605331373137 -1.12347268776878
 6  2.04207216361636 -1.95703389558956  0.23054533323332
 6  2.01535755765577 -0.93177508970897 -0.62529643114311
 6 -3.48861353125313 -1.36331829712971 -1.66052333573357
 6  2.96963802700270 -0.67028777707771 -1.71799569846985
 6 -1.20614918711871 -0.59213307030703  4.01942745104510
 6 -5.79714493859386 -2.16151263156316  1.18937994359436
 6  2.51937159405941  0.39151651985199 -2.48874348434844
 6  1.85345477787779  1.18735442744274  2.74780142174217
 6  1.34651801830183  0.90657730633063 -1.85871197719772
 6  4.14727007610761 -1.57735716481648 -1.99336896699670
 6 -5.73552788888889 -2.45221731213121 -2.09349279747975
 6  5.42942849384939 -1.08552029722972 -1.17347076397640
 6  3.14763485888589  0.99141754435444 -3.75848235743574
 6  0.45737816191619  1.96188133503350 -2.04024576967697
 6  2.89464810511051  1.91978156365637  3.57605295049505
 6 -0.59309314091409  2.23062769496950 -1.23882917081708
 6 -6.80529445594559 -3.17278104220422 -1.89179773847385
 6  6.56439600920092 -2.02941119621962 -1.46636732673267
 6 -1.45565422022202  3.41824405760576 -1.29354742944294
 6 -2.27396148554856  3.39522000100010 -0.17952585878588
 6 -2.01924419681968  2.03497443094309  0.41765069706971
 6 -1.17407738613861  4.58363462366237 -2.18930069806981
 6 -3.36473711021102  4.31584206710671  0.36522076177618
 6 -1.91781567276728  5.70135555375538 -2.27849158195820
 1 -3.46987548074808 -0.41086657655766  1.17065126972697
 1 -2.72585421182118 -3.34951007600760  1.38288863796380
 1 -3.10442026182618 -2.38224166856686  2.60539992869287
 1 -0.41540684548455 -2.72853161826183  0.15420243024302
 1 -1.89377776747675 -0.46022232573257 -0.64519862226223
 1  1.56953491489149 -0.27786924072407  4.32500459955996
 1  2.81065839873987 -0.76767865916592  3.02090702010201
 1  2.71672048594859 -2.85367695059506  0.26802985618562
 1 -1.98947157645765 -1.12299157315732  4.57759482128213
 1 -0.53013278127813 -0.26917112071207  4.80267662416242
 1 -1.74367368116812  0.32548499519952  3.68237700300030
 1 -5.60853164036404 -1.69420755195520  2.26084037703770
 1 -5.76941570227023 -3.23616772137214  1.52604545084508
 1 -6.78270564736474 -1.82990863426343  0.63760012171217
 1  1.97327346674667  1.31910185208521  1.73505111641164
 1  1.00532048354836  1.75180742504250  2.73104107780778
 1  0.35122337993799  0.34255862566257 -0.14350638293829
 1  4.30821654085409 -1.63949700870087 -3.16661226312631
 1  3.85107593739374 -2.60128190739074 -1.48825593359336
 1 -5.38475061346135 -1.96525745034503 -3.04214767856786
 1  5.53428134943494 -0.79952043194319  0.07826104980498
 1  5.57135857715772 -0.01718871497150 -1.75861034353435
 1  3.98638855035504  0.18241473357336 -4.23697192669267
 1  3.57817356895690  1.95713679237924 -3.33855619101910
 1  2.38133392269227  1.28677317521752 -4.54040719271927
 1  0.63790770077008  2.62741423792379 -2.88341923392339
 1 -7.20060914701470 -3.38726090999100 -0.81772079327933
 1 -7.25776404130413 -3.74069540004000 -2.80102315581558
 1  3.60254398189819  3.75452481348135  3.60945419961996
 1 -0.45149902870287  4.50458173767377 -3.05673356875688
 1 -4.09307789738974  4.43517009880988 -0.39727087858786
 1 -3.84457320702070  3.71700649424942  1.22296310771077
 1 -2.94335265146515  5.33069336043604  0.54196996689669
 1  8.34842053555356 -2.37208036223622 -0.81000163516352
 1 -1.46935986058606  6.30305076217622 -3.15349020122012
 1 -2.62537489038904  5.78542991879188 -1.49103501100110

