%nproc=4
%Mem=4GB
# td=(NStates=1) B3LYP/SVP 

TD

0 1
 8 -5.40260649064906  0.01346678627863 -3.19885967566757
 8  3.14370437593759  2.83607086178618  2.93722980138014
 8  3.26313466206621  0.66237163616362  3.11367325242524
 8  1.34661230073007 -7.15420169026903  1.52572107840784
 8  0.69345423342334 -6.97962438603860 -0.59982796569657
 8  1.85674272237224  4.08770189298930 -0.03732422502250
 7 -2.46489610071007 -1.08282671287129  0.56196321292129
 7 -4.49555443684368  0.49543721022102 -1.16537489228923
 7  1.88623901550155 -0.61143271627163 -0.47526600420042
 7  2.66529207110711  1.91395714121412 -0.51192793949395
 6 -4.86921331253125  1.13777527452745  0.08274407420742
 6 -4.45933332613261  0.27116728202820  1.29123648134813
 6 -3.05648074367437  0.00119037573757  1.28466047904790
 6 -2.00348944564456  0.61609656685669  2.09703287288729
 6 -0.74683129342934 -0.07104253975398  1.73312398999900
 6 -1.04618880668067 -1.01766482538254  0.82739455885589
 6 -6.37367972407241  1.40468825812581 -0.17777299269927
 6  0.46783539013901  0.21122179867987  2.50954997509751
 6 -6.80024053855386  0.87700694909491 -1.38024375307531
 6 -0.12766902300230 -1.93682241914191  0.15217729922992
 6  1.19785668186819 -1.87631717831783 -0.25182676487649
 6 -5.50985158545855  0.40109832453245 -2.03885119661966
 6  2.05709979517952 -2.80862140054005 -0.89105611491149
 6 -2.22347804870487  1.66832258915892  3.09155354555456
 6 -7.12070956415642  2.06026415561556  0.95847983388339
 6  3.27059339303930 -2.23014296549655 -1.24406565166517
 6  1.16990301760176  1.56242473587359  2.41434507040704
 6  3.12450052535254 -0.84270289588959 -0.94302829102910
 6  1.61772554275428 -4.29089505390539 -0.99789150605060
 6 -8.04459036503650  0.70560219781978 -1.85848423622362
 6  1.82517008260826 -5.13162409700970  0.43003899939994
 6  4.42744835383538 -2.87911638043804 -1.89085831713171
 6  4.06353722432243  0.13186258975898 -1.25084976737674
 6  2.56808742994299  1.62044963316332  2.85803170307031
 6  3.79351372917292  1.51087649914992 -1.09051561886189
 6 -9.30806578997900  0.75720788108811 -1.35079989528953
 6  1.25322038673867 -6.51410806100610  0.25139379837984
 6  4.70672950755076  2.66270302520252 -1.44649173227323
 6  4.04758402680268  3.79141966566657 -1.10338163246325
 6  2.69523109390939  3.37682553365337 -0.47385614831483
 6  5.91689529482948  2.46285112571257 -2.05510746584658
 6  4.29402502230223  5.23283815961596 -1.16387840124012
 6  6.74913497109711  3.39028471327133 -2.38110258715872
 1 -4.41674616071607  2.09233031313131  0.03252629292929
 1 -5.15497015391539 -0.55167664376438  1.24596934113411
 1 -4.40584742464247  0.95384938463846  2.10421733143314
 1 -2.73128216811681 -1.39084648014801 -0.42611953375338
 1 -3.70202119941994  0.51661357845785 -1.61178872977298
 1  0.41129556425643 -0.04224391239124  3.61615116321632
 1  1.28104211361136 -0.72521718911891  2.34877000980098
 1 -0.45571423232323 -2.90588805380538 -0.17193219091909
 1 -3.35643578887889  1.70664192829283  3.46363635333533
 1 -1.48606982208221  1.59074843874387  3.94720310821082
 1 -2.10753713481348  2.78104192399240  2.61730915271527
 1 -6.60009346024602  3.05586438993899  1.13682591559156
 1 -7.14318408540854  1.39379918911891  1.91942895359536
 1 -8.24817075427543  2.27288337143714  0.60784926512651
 1  1.02874558295830  2.01859389598960  1.44853292059206
 1  0.63138625112511  2.32938976097610  2.88676450065006
 1  1.61521584798480  0.39304994999500 -0.27062242754275
 1  2.10991878407841 -4.82624645504550 -1.83273788348835
 1  0.55190698819882 -4.19229907740774 -1.12960144354435
 1 -7.97036809860986  0.62870310091009 -3.02591853005301
 1  1.28067025592559 -4.59736091579158  1.14084166076608
 1  2.85661193129313 -5.01557876237624  0.73848166306631
 1  4.37184224652465 -3.94791224342434 -1.99601306240624
 1  5.34119521792179 -2.69293814401440 -1.23109672727273
 1  4.93540497359736 -2.57339957255726 -2.80547962156216
 1  5.00556017551755  0.09815772127213 -1.81473764946495
 1 -9.25353895439544  0.97253470897090 -0.27513020282028
 1 -10.14267240084008  0.33057447314731 -1.96853295329533
 1  3.98568325482548  2.74065744944494  3.34781954765477
 1  6.01564503270327  1.43309545874587 -2.25596441144114
 1  5.10264096389639  5.34792755695570 -0.63805242514251
 1  4.26955897839784  5.33888065376538 -2.20326287118712
 1  3.44983265286529  5.70514012041204 -0.62619436103610
 1  0.95389269736974 -8.05378653575358  1.37460351525153
 1  7.77620006440644  3.18556409630963 -2.71623889718972
 1  6.47307919541954  4.50962647484749 -2.32582493499350

