%nproc=4
%Mem=3GB
# td=(NStates=1) B3LYP/SVP 

TD

0 1
 8 -3.30244715491549 -1.13119817531753 -2.79640029432943
 8  2.67901835663566  3.29670132863286  3.31232550345034
 8  3.42507681588159  1.52103923222322  4.48435287888789
 8  7.62698130103010 -1.61065717991799 -0.59597035883588
 8  6.78514267066707 -3.07621841674167 -2.07827427552755
 8 -2.35293620012001  1.52221771087109  1.59591965246525
 7 -0.28231397759776 -2.34021033533353  0.88519336013601
 7 -2.58482052005201 -1.13559869486949 -0.60196234083408
 7  1.22436398579858  0.10752166186619 -0.80630556775678
 7 -1.02567171267127  1.42168757665767 -0.31723262116212
 6 -3.39330448014801 -1.27145470787079  0.57634460836084
 6 -2.64426305240524 -2.32904705090509  1.69762506930693
 6 -1.22088773047305 -2.06771458545855  1.77203519211921
 6 -0.48833863616362 -1.33271446314631  2.87098511901190
 6  0.82541365396540 -1.22619762076208  2.44551574617462
 6  1.00525321152115 -1.90994742944294  1.18943374737474
 6 -4.66091103770377 -1.86469211791179  0.30519740704070
 6  1.88460305170517 -0.40564089368937  3.20449260376038
 6 -4.80162652405240 -1.92771147954796 -1.08525886638664
 6  2.24998295469547 -1.88635682788279  0.29391166986699
 6  2.22693871577158 -0.81110302250225 -0.69803370487049
 6 -3.56731140104010 -1.33995596089609 -1.61299858325833
 6  3.11496255945595 -0.72787353565357 -1.79280317921792
 6 -1.21456002820282 -0.43755761276128  3.87006251455146
 6 -5.70904612871287 -2.21097757805781  1.36287729332933
 6  2.54711436833683  0.38233560176018 -2.58952356235624
 6  1.70418985138514  1.07556324832483  2.85129177077708
 6  1.35085845234523  0.89450609920992 -1.89990609660966
 6  4.24087943704370 -1.63106253535354 -2.19738936903690
 6 -5.77448178427843 -2.45685777617762 -2.02777622582258
 6  5.37388293929393 -1.20238198339834 -1.31496491339134
 6  3.01573166856686  0.98693709630963 -3.89113562276228
 6  0.56102852695270  2.00050519741974 -2.20243198829883
 6  2.67301594189419  1.95757534303430  3.73136848204820
 6 -0.58232206380638  2.23039767196720 -1.29045433333333
 6 -6.85475940244024 -3.22683644774477 -1.72333089178918
 6  6.64884445404540 -2.02149040414041 -1.40307099709971
 6 -1.43053170797080  3.39436166936694 -1.22167024172417
 6 -2.32221631103110  3.43384386338634 -0.08591649784979
 6 -1.96079835223522  2.07411834533453  0.54933386538654
 6 -1.24748472687269  4.59557581778178 -2.22970473847385
 6 -3.24891552805281  4.27099758265827  0.46086032573257
 6 -2.03725761696170  5.61056647484748 -2.41879561236124
 1 -3.38124661786179 -0.26248173807381  1.17755195979598
 1 -2.78214984138414 -3.18758388338834  1.13122347144714
 1 -3.05825564536454 -2.15585903030303  2.64214360306031
 1 -0.23599890469047 -2.71766053115312 -0.12564555455546
 1 -1.87241563126313 -0.40868717221722 -0.70398450085009
 1  1.97350531193119 -0.56143759755976  4.26961906100610
 1  2.87808514141414 -0.98204009530953  2.90511544094409
 1  2.93957277117712 -2.62456403930393  0.26223927712771
 1 -1.92878550785079 -1.08835810981098  4.44932199399940
 1 -0.68588835683568 -0.12762696629663  4.72586894339434
 1 -1.80118943274327  0.24077652435244  3.15821458675868
 1 -5.25038582578258 -1.38490662186219  1.97667196019602
 1 -5.56532529322932 -3.04951905650565  1.84944779107911
 1 -6.75835321212121 -1.94325996939694  0.98121448314832
 1  1.83221936133613  1.33978392029203  1.74654226552655
 1  0.70298024952495  1.33528577287729  3.08224619831983
 1  0.30446870447045  0.43096746654665 -0.23888592089209
 1  4.28519423862386 -1.69857291629163 -3.22294789668967
 1  3.88419924972497 -2.70174195339534 -2.09085619361936
 1 -5.41648378677868 -2.30415133973397 -3.01078454225423
 1  5.16770469176918 -1.45283576347635 -0.35815259155916
 1  5.77484892619262 -0.22554955105511 -1.55083956645665
 1  4.05482539403940  0.46494298639864 -4.17057528702870
 1  3.11332708430843  1.98119919861986 -3.67073940934093
 1  2.43556934623462  0.64179867776778 -4.82678583058306
 1  0.72885679567957  2.56044754125412 -3.11312220422042
 1 -7.16640572667267 -3.23357554145415 -0.64273329452945
 1 -7.65301356625663 -3.30712204270427 -2.47088014151415
 1  3.53371709920992  3.50869023002300  3.65090834503450
 1 -0.47815169396940  4.19320059955996 -3.04388228362836
 1 -4.15513410301030  4.48361494329433 -0.16669782128213
 1 -3.77588633833383  3.65984077767777  1.26805761716172
 1 -2.87850616681668  5.39880017111711  0.76023179307931
 1  8.34364005750575 -2.03932708690869 -0.94237487248725
 1 -2.12720564516452  6.49160961806181 -3.13179803200320
 1 -2.68976132903290  5.99311068686869 -1.75785169266927

