%nproc=4
%Mem=4GB
# td=(NStates=1) B3LYP/SVP 

TD

0 1
 8 -5.37423365336534  0.10154559415942 -3.24167395709571
 8  3.05577558305831  2.94505175987599  3.59467554595460
 8  3.47940628922892  0.76678207720772  2.82384426952695
 8  1.61447908740874 -7.17036330643064  1.54751325762576
 8  0.99263415141514 -7.15188161176118 -0.58367635053505
 8  1.63218026612661  3.86571969476948  0.10989049644964
 7 -2.41224083518352 -0.90615904610461  0.73248026462646
 7 -4.40849573097310  0.61719938643864 -1.23506186098610
 7  1.78655904750475 -0.73912548554855 -0.35861433903390
 7  2.53404894679468  1.83861960746075 -0.52760950765076
 6 -4.80981737293729  1.19099059605961  0.02046784658466
 6 -4.34467185998600  0.28775894119412  1.15571292899290
 6 -3.00619571517152  0.07653791049105  1.42952496549655
 6 -1.90792988968897  0.62321727892789  2.08063123272327
 6 -0.63025963626363  0.03192775727573  1.78660933853385
 6 -1.00304449224922 -1.05371843074307  0.86442826222622
 6 -6.30203255935594  1.32809059835984 -0.17678289368937
 6  0.64104271087109  0.18804948144814  2.55792481258126
 6 -6.69316983148315  0.93052230063006 -1.39991572027203
 6 -0.21712796889689 -2.01043978087809  0.14225630713071
 6  1.06885378157816 -1.88286783338334 -0.39310089228923
 6 -5.44528512881288  0.40351856655666 -2.11609892139214
 6  1.94670875607561 -2.95458599699970 -0.99275628492849
 6 -2.06232193309331  1.74118987588759  3.02616700690069
 6 -7.15836332953295  1.91005913511351  0.99848383428343
 6  3.11788812251225 -2.35555550675068 -1.33679492459246
 6  1.19697572487249  1.61878037143714  2.77038067396740
 6  2.97279535483548 -0.91721034663466 -1.12600658885889
 6  1.62543631383138 -4.35895185958596 -0.87688940584058
 6 -7.96839274527453  0.99973161076108 -2.06280466826683
 6  1.63608117371737 -4.99997093169317  0.54935093059306
 6  4.31711732073207 -3.09227769656966 -2.09587881918192
 6  3.92867373797380  0.02587199069907 -1.40570525292529
 6  2.63650427162716  1.70488807700770  3.02046794669467
 6  3.65809018681868  1.44897030853085 -1.06003257055706
 6 -9.18952393579358  1.04391655195520 -1.64785960126013
 6  1.45913097779778 -6.53786043624362  0.43482214121412
 6  4.55719455405541  2.55590234513451 -1.45788287138714
 6  3.84127339573957  3.78297882158216 -1.04744603890389
 6  2.56935850665067  3.24637248834883 -0.36976573927393
 6  5.84209781508151  2.47959279987999 -2.26343829892989
 6  4.12229784958496  5.27448232403240 -1.17709972337234
 6  6.66411646924692  3.50954663946395 -2.61517599449945
 1 -4.09034352045204  2.18803988408841  0.22159519981998
 1 -4.79784444134413 -0.76053752985299  0.97421216541654
 1 -4.73717055695570  0.64289828952895  2.07583449314932
 1 -2.92751179107911 -1.44280167566757 -0.07120404220422
 1 -3.31395239253925  0.49073099019902 -1.47682523342334
 1  0.41366580128013 -0.45958564656466  3.55144469256926
 1  1.47715172457246 -0.53003767116712  2.28016314911491
 1 -0.57240590149015 -2.99701716671667 -0.17526252395240
 1 -3.05379552485249  2.09745100920092  3.25719570927093
 1 -1.83011422652265  1.33323268716872  4.12401078897890
 1 -1.79699608070807  2.73365718551855  2.76568399019902
 1 -6.53054650555055  2.47412621612161  1.66064829782978
 1 -7.45481524852485  0.98483829302930  1.60467747844785
 1 -8.17146308350835  2.63197928102810  0.73685216541654
 1  1.15798850725073  2.19427146374637  1.86873494079408
 1  0.61344445694569  2.21546836883688  3.41086691089109
 1  1.59172349874987  0.36853749874988 -0.26487185248525
 1  2.24160195239524 -4.89164299469947 -1.60550516021602
 1  0.58929072657266 -4.58238808630863 -1.42111059445945
 1 -7.86694775657566  0.95428565916592 -3.27413335153515
 1  0.78482067096710 -4.58041922162216  1.12269984658466
 1  2.61008727882788 -4.82036924142414  1.15014282918292
 1  4.09275433773377 -4.09678713091309 -2.15779924102410
 1  5.27759885828583 -2.53840269046905 -1.59833345094509
 1  4.55652708580858 -2.55603783638364 -2.98467754135413
 1  4.88433805330533 -0.20143223772377 -1.71550772647265
 1 -9.24123772427243  0.65624307980798 -0.48377106690669
 1 -9.95576370997100  1.20704211991199 -2.42099819981998
 1  4.05092977947795  2.87263064676468  3.44420918661866
 1  6.11733520172017  1.43498564776478 -2.42440125512551
 1  4.86296699649965  5.66466923112311 -0.53706232613261
 1  4.39045106760676  5.79834660036004 -2.22564510941094
 1  3.10415808540854  5.77558716511651 -0.76201794339434
 1  1.29167647574757 -8.07799895699570  1.45451150605060
 1  7.33686613101310  3.46558209810981 -3.31467874117412
 1  6.32632451995200  4.47739325152515 -2.39682203470347

