%nproc=4
%Mem=3GB
# td=(NStates=1) B3LYP/SVP 

TD

0 1
 8 -3.27142405260526 -1.13169822532253 -2.80982163646365
 8  3.11680213501350  3.18144980348035  3.14583885478548
 8  3.39916422462246  1.50771790009001  4.54489893349335
 8  7.66507511041104 -1.47932404660466 -0.49810057185719
 8  6.77502165856586 -2.91950274517452 -2.07798424652465
 8 -2.51403230973097  1.65167065616562  1.46629669016902
 7 -0.33008875507551 -2.42352866716672  0.94202904370437
 7 -2.57116915491549 -1.24312944794479 -0.58047019161916
 7  1.15383693309331  0.02931384108411 -0.83395833303330
 7 -0.88508765426543  1.47396280418042 -0.15748664656466
 6 -3.40392554225423 -1.30878844124412  0.60091706560656
 6 -2.74962358845885 -2.30587473367337  1.70518582538254
 6 -1.18308395009501 -1.98660647464746  1.84294228282828
 6 -0.54020382268227 -1.18381957365737  2.84656267676768
 6  0.76597771037104 -1.11942694369437  2.43047424202420
 6  0.92717540374037 -1.95810224492449  1.14417922192219
 6 -4.63941888848885 -1.88823447214721  0.22336922422242
 6  1.88362295369537 -0.35490582018202  3.07708986348635
 6 -4.73849021042104 -2.12461116951695 -1.14044438493849
 6  1.97884584098410 -2.03241143334333  0.21199347804780
 6  2.04362038393839 -1.00044195639564 -0.79356325782578
 6 -3.51720639053905 -1.37394936023602 -1.62181946534653
 6  2.99285034823482 -0.68887963626363 -1.78447234613461
 6 -1.25258383058306 -0.70686454345435  4.01944745304530
 6 -5.72114733883388 -2.22613909420942  1.28805981158116
 6  2.55812546944694  0.38335570377038 -2.54112872287229
 6  1.85497492989299  1.09345503750375  2.69921656325633
 6  1.33809717621762  0.87272392099210 -1.94331043704370
 6  4.27968331743174 -1.52721215031503 -2.03522315241524
 6 -5.90697503360336 -2.45740783118312 -2.01952540074007
 6  5.44352990399040 -1.05590733593359 -1.21675509240924
 6  3.01053114851485  0.96772517511751 -3.80086659585959
 6  0.48415083918392  1.91825697259726 -2.12181392649265
 6  2.91552019231923  1.91928151365137  3.50287563276328
 6 -0.56907073867387  2.17650228242824 -1.30197548544855
 6 -6.99890381688169 -3.24649841394139 -1.71030958965897
 6  6.65967553715372 -1.93380163526353 -1.32937362736274
 6 -1.36461511631163  3.48141037423742 -1.21281935663566
 6 -2.17291138053805  3.49268974797480 -0.03886179237924
 6 -1.89397166956696  2.11981291479148  0.47031596359636
 6 -1.32538251665167  4.49625588578858 -2.29769153715372
 6 -3.35353599009901  4.36583706660666  0.50799503920392
 6 -1.91310520172017  5.65895131333133 -2.36087982078208
 1 -3.25196368956896 -0.27738322822282  1.20898510311031
 1 -2.52740436683668 -3.17877300230023  1.00848119721972
 1 -3.29171899169917 -2.42282572697270  2.57617700640064
 1 -0.79161446624662 -2.73348211331133 -0.09036202620262
 1 -2.10432882258226 -0.38433473697370 -0.68945304770477
 1  1.96746470787079 -0.38342979677968  4.16258835793579
 1  2.77095442834283 -0.98543043434343  3.05899082848285
 1  2.71200001390139 -2.66070765366537  0.19462251545155
 1 -2.06014864416442 -1.59873914791479  4.13784084588459
 1 -0.65920568856886 -0.45605980958096  4.85541189768977
 1 -1.63663297709771  0.23493594029403  3.64650341564156
 1 -5.62971375857586 -1.46792492369237  2.05238953195320
 1 -5.63323208390839 -3.17534163876388  1.73170601690169
 1 -6.75660303710371 -2.01177682108211  0.96516287798780
 1  2.18387452685269  1.16488643054305  1.62448005930593
 1  0.75025497699770  1.58778102240224  2.87183515721572
 1  0.35908416601660  0.37929229902990 -0.14487651995200
 1  4.41175689488949 -1.62759581858186 -3.22856845874587
 1  3.84158498829883 -2.53277505670567 -1.69177628562856
 1 -5.58959109750975 -2.12884380898090 -2.96965042884288
 1  5.12173009430943 -0.91706218611861 -0.22496927322732
 1  5.65801724302430  0.03620662456246 -1.47530201270127
 1  4.05586549804981  0.45048154025403 -4.18653688318832
 1  2.91534728632863  2.21758283698370 -3.77223955935594
 1  2.31013680298030  0.49629412731273 -4.63405655765577
 1  0.57550146014601  2.75874737123712 -3.09222011401140
 1 -7.09789887598760 -3.46041822572257 -0.61514053525353
 1 -7.80543880878088 -3.45711704220422 -2.36410946444644
 1  3.69713344084408  3.50439980098010  3.97554080828083
 1 -0.49301318011801  4.60971225072507 -3.03205110051005
 1 -3.94161275087509  4.48459504130413 -0.40225137663766
 1 -3.76473522322232  3.77079187278728  1.36848766016602
 1 -3.00008832503250  5.43100339143914  0.90361613151315
 1  8.55527122062206 -2.12474562876288 -0.49768040304030
 1 -1.80624354895489  6.45342579967997 -3.15873072527253
 1 -2.84254660756076  5.85587696349635 -1.76430233773377

