%nproc=4
%Mem=4GB
# td=(NStates=1) B3LYP/SVP 

TD

0 1
 8 -5.35488171817182 -0.07246180658066 -3.28059784948495
 8  3.29530953645365  2.84556181088109  3.21116719511951
 8  3.40544889348935  0.57660305930593  3.01141302640264
 8  1.61523916341634 -7.15212148224822  1.44666317261726
 8  0.50907579557956 -7.02055847944794 -0.46234421732173
 8  1.66560360846085  4.02671579437944  0.09516902430243
 7 -2.36718632973297 -0.98440687088709  0.71509852645265
 7 -4.33825870727073  0.50410807730773 -1.30125848064807
 7  1.88796918851885 -0.67248882188219 -0.36276475407541
 7  2.45045058695870  1.93793953945395 -0.60014676137614
 6 -4.72372876407641  1.21594309130913  0.01221702150215
 6 -4.39216660946095  0.35478564386439  1.31490884858486
 6 -2.87307240284028 -0.01789153245325  1.32477449044904
 6 -1.94648374507451  0.64133909110911  2.17357052665266
 6 -0.67745435573557  0.02629719421942  1.87471814941494
 6 -0.94974916271627 -1.01747480638064  0.96716853625363
 6 -6.22707506360636  1.32745053435344 -0.25810102550255
 6  0.61589019561956  0.21017169366937  2.68537755785579
 6 -6.57522803730373  0.80244949334934 -1.49847557625763
 6 -0.23110936703670 -1.99189792669267  0.19539162066207
 6  1.09482637883788 -1.80076962356236 -0.30492207440744
 6 -5.36887748804881  0.36034424912491 -2.13915122662266
 6  1.93751783698370 -2.84966550495049 -0.84524153345335
 6 -2.08550425132513  1.78738449534954  3.22196658685869
 6 -7.11644913811381  1.96352448164816  0.87024101000100
 6  3.08593492719272 -2.31925187638764 -1.28512975807581
 6  1.22111813911391  1.60784927832783  2.50024366026603
 6  2.97010508580858 -0.88206683228323 -1.05282927112711
 6  1.48542231243124 -4.27306327072707 -0.97805952285229
 6 -7.87516342234223  0.67490912851285 -2.11325971377138
 6  1.71660922652265 -5.07896883148315  0.32462845834583
 6  4.29998560756076 -2.94555302410241 -1.96477570887089
 6  3.81410228082808  0.13244264776478 -1.29726440884088
 6  2.74840546174617  1.61069865806581  2.87908380828083
 6  3.60377475527553  1.49165457695770 -1.13970053735374
 6 -9.08434341774177  0.97773993429343 -1.48942375767577
 6  1.33322838753875 -6.58497514771477  0.37445610461046
 6  4.42048088268827  2.65867262216222 -1.57310439353935
 6  3.79756902530253  3.70265078877888 -1.05242653695370
 6  2.55465703650365  3.35884373547355 -0.42862162486249
 6  5.72826643194319  2.58215305590559 -2.11247320242024
 6  4.27234285408541  5.22349722552255 -1.03150516391639
 6  6.62697275487549  3.55133081788179 -2.47452192909291
 1 -4.29687417351735  2.15662674277428  0.23539657995800
 1 -4.94785944284428 -0.58498997509751  1.38837358155816
 1 -4.65860270017002  1.01563556325633  2.06545345504550
 1 -2.84271331123112 -1.44827222272227  0.01421449964996
 1 -3.41022201950195  0.54384630173017 -1.61790934183418
 1  0.19887432213221  0.08133844584458  3.73079262736274
 1  1.47394140354035 -0.66060072747275  2.44470960376038
 1 -0.60542920382038 -2.78308577357736 -0.28304330203020
 1 -3.25914605990599  1.88351961606161  2.97526751645164
 1 -1.94502571767177  1.47139650355036  4.31938032593259
 1 -1.32840922202220  2.54867868766877  2.97212463426343
 1 -6.29215266616662  2.45342414591459  1.61793402640264
 1 -7.90446021302130  1.25993580278028  1.53537054775478
 1 -7.68819475667567  2.74541062416242  0.37414589478948
 1  1.32663537193719  1.81236327292729  1.40970903820382
 1  0.87175028752875  2.42305912791279  3.14121994619462
 1  1.58323264966497  0.35659630463046 -0.21747711301130
 1  2.08035582778278 -4.77266109650965 -1.75282989268927
 1  0.37418921642164 -4.41349119661966 -1.14006248964896
 1 -7.74215527732773  0.25078530913091 -2.95635157335734
 1  1.33437562646265 -4.62468364806481  1.21311888848885
 1  2.83744001410141 -4.92248945344534  0.55765358025803
 1  3.99649471177118 -3.99323677587759 -2.44199766086609
 1  5.17181828022802 -2.84971382158216 -1.36638025562556
 1  4.41766319941994 -2.32702493509351 -2.87256633023302
 1  4.68250787028703 -0.09609170367037 -1.83774995069507
 1 -9.44423802430243  1.21130858635864 -0.53243593339334
 1 -9.89861799539954  0.72040345604560 -2.17403350335033
 1  4.16483116961696  2.71252463616362  3.14609937563756
 1  5.86003947214721  1.62797494669467 -2.46220503550355
 1  5.01448214801480  5.61559432363236 -0.34908352825283
 1  4.72127414991499  5.48406517221722 -2.07338988388839
 1  3.22882055165517  5.98318792519252 -0.74768651025103
 1  1.13926123422342 -7.92338349544954  1.48542459735974
 1  7.70963340774077  3.30354589448945 -2.63228050135013
 1  6.30902278977898  4.62930844304431 -2.05015736823682

