%nproc=4
%Mem=4GB
# td=(NStates=1) B3LYP/SVP 

TD

0 1
 8 -5.32158838883888  0.27612305190519 -3.31529131883188
 8  2.97404741024102  2.87783503820382  3.33501958035804
 8  3.30599894849485  0.64940033903390  3.16582846794679
 8  1.75636327582758 -7.17786405650565  1.45854436073607
 8  0.74308919691969 -7.02794921852185 -0.51822980588059
 8  1.62399944804480  3.96981010381038 -0.05261575417542
 7 -2.36440605170517 -0.93551198139814  0.60909792639264
 7 -4.27254213561356  0.44743240974097 -1.25248360316032
 7  1.84902529412941 -0.75420699369937 -0.56242472007201
 7  2.52919846174617  1.92440818631863 -0.61100784748475
 6 -4.73506989818982  1.21406290329033  0.03211901170117
 6 -4.40702809560956  0.30407057235724  1.27304466216622
 6 -2.93931902750275 -0.01363110641064  1.39554156715672
 6 -1.92303139983998  0.59714467166717  2.21022419201920
 6 -0.73843045334533 -0.04889032453245  1.90269094669467
 6 -0.95973016081608 -0.99485254415442  0.85948776817682
 6 -6.17963031913191  1.42177996729673 -0.08927414281428
 6  0.61916052265227  0.20018069456946  2.53668268836884
 6 -6.58880939543954  0.90329957835784 -1.35594132283228
 6 -0.20087634373437 -1.98477721462146  0.17127920942094
 6  1.09900679687969 -1.85834538113811 -0.35870745294529
 6 -5.37293789408941  0.57083529822982 -2.11499881138114
 6  1.97416150135014 -2.89308984738474 -0.88108511781178
 6 -2.14644034493449  1.71264702160216  3.18755314551455
 6 -7.04233172637264  2.01140927012701  0.89562354825483
 6  3.15631196489649 -2.33919387058706 -1.42531377647765
 6  1.10054608190819  1.60865935933593  2.72555619151915
 6  3.05881395669567 -0.89878850445045 -1.09154314251425
 6  1.53791756195620 -4.39209517391739 -0.91886360326033
 6 -7.87374328032803  0.72547418501850 -2.02002038983898
 6  1.75850341594159 -5.08889982458246  0.44026002150215
 6  4.42643825282528 -3.01854032283228 -1.93788301960196
 6  3.92474334493449  0.06032543604360 -1.35555023742374
 6  2.54490511171117  1.59857744594459  3.13201910181018
 6  3.68516289408941  1.48672408390839 -1.06855342264226
 6 -9.18574355775578  0.89971213151315 -1.49690450575057
 6  1.27501256595660 -6.48033468366837  0.38488714771477
 6  4.50227906250625  2.66247300220022 -1.41897898099810
 6  3.71809107750775  3.77843836753675 -1.16790808510851
 6  2.57629920072007  3.43648149924993 -0.59613837653765
 6  5.83734734003400  2.47906274687469 -2.05269722482248
 6  4.11866748654865  5.24341921772177 -1.22480449384939
 6  6.63359341694169  3.34051973677368 -2.70910538743874
 1 -4.16134062016202  2.27659873997400  0.23808684898490
 1 -4.99163382028203 -0.52832430853085  1.20305504970497
 1 -4.81340818071807  0.98891289098910  2.12426933663366
 1 -2.93164220412041 -1.37526492199220 -0.27404432623262
 1 -3.39339033633363  0.80718263536354 -1.71986953785379
 1  0.51589602430243 -0.47167685568557  3.52625217331733
 1  1.50564457385739 -0.35171983938394  1.91092622542254
 1 -0.81056971787179 -2.91780924592459  0.01670667296730
 1 -3.39543968926893  2.17290855495550  3.05795578527853
 1 -2.21148236333633  1.35259462336234  4.60239862776278
 1 -1.23909029012901  2.54002782258226  2.91307872967297
 1 -6.62417586848685  2.48919772327233  1.93727596059606
 1 -7.66565633263326  1.28218802800280  1.28806581728173
 1 -7.74887082428243  2.71195727882788  0.40571905210521
 1  0.87626033443344  2.22354439103910  1.86867493479348
 1  0.63328644114411  1.92670949294929  3.75615143934394
 1  1.59382370877088  0.26678732373237 -0.23575894119412
 1  2.10838863106311 -5.03807763816382 -1.71363597329733
 1  0.47738953645364 -4.40551039853985 -1.29026751015101
 1 -7.99958101990199  0.28152838343834 -3.19501543974397
 1  1.25931812071207 -4.66130731043104  1.26947452405241
 1  2.68157442754275 -4.88917612211221  0.72528034293429
 1  4.16780184248425 -4.17786523872387 -2.06708016911691
 1  5.42666376477648 -2.97677652785279 -1.42133575117512
 1  4.61108254135413 -2.47599983258326 -3.04405347894789
 1  4.95466508600860 -0.23728582308231 -1.70833700940094
 1 -9.29790339083908  1.30486794229423 -0.43225591539154
 1 -10.16926506010601  0.51246266196620 -2.06476257625763
 1  3.86916160266027  2.88892227592759  3.65217998369837
 1  6.23178664686469  1.42549469866987 -2.01891070607061
 1  4.98957965776578  5.43972673687369 -0.86294491439144
 1  3.96955897839784  5.69246601230123 -2.21848439333933
 1  3.43810147974797  5.72639224562456 -0.52907464906491
 1  1.27508481658166 -8.17478863596360  1.32987904280428
 1  7.57866031043104  3.01760730063006 -3.21359863316332
 1  6.24606649414941  4.33953946614662 -2.65412776527653

