%nproc=4
%Mem=3GB
# td=(NStates=1) B3LYP/SVP 

TD

0 1
 8 -3.25996290649065 -1.29308436393639 -2.85719637393739
 8  3.36535699049905  3.05324698319832  3.07306157705771
 8  3.64301861006101  1.28122525082508  4.52041648524852
 8  7.81030963386339 -1.49207532173217 -0.91922268406841
 8  6.53598775517552 -3.29016981188119 -1.71169761786179
 8 -2.64350525702570  1.70977646674667  1.41742180268027
 7 -0.19659540574057 -2.62861917621762  1.00033487428743
 7 -2.71045308330833 -1.15185032003200 -0.63900604520452
 7  1.19943149254926  0.13131404110411 -0.61009594679468
 7 -1.01690083558356  1.45204061196120 -0.24325522342234
 6 -3.33840899059906 -1.23544110651065  0.70885785968597
 6 -2.64710333643364 -2.24181832803280  1.59923523032303
 6 -1.23208885058506 -2.06660447444744  1.76549453805381
 6 -0.56008581088109 -1.24486567826783  2.70663868436844
 6  0.82274338693869 -1.18312331333133  2.44320551515152
 6  0.98428111431143 -1.95006144084408  1.24159896389639
 6 -4.74576952355236 -1.82490813951395  0.28145503280328
 6  1.90157474887489 -0.39744007360736  3.14973712821282
 6 -4.82121848324832 -2.02257096549655 -1.12089242974297
 6  2.07181513791379 -1.94619281148115  0.26756903560356
 6  2.06995301720172 -0.90156206840684 -0.63266716821682
 6 -3.50948561846185 -1.50069203450345 -1.68352563596360
 6  2.97328839203920 -0.63308405670567 -1.74815871477148
 6 -1.34639321152115 -0.58814267126713  3.97084259255926
 6 -5.79776500060006 -2.15855233553355  1.34148515411541
 6  2.49579923682368  0.55660302850285 -2.46334094409441
 6  2.03442287468747  1.03749944194419  2.70475711731173
 6  1.46383975047505  1.08711536013601 -1.65101120712071
 6  4.21785713481348 -1.39424885398540 -2.06573620372037
 6 -5.85385972207221 -2.51083317371737 -2.00658410661066
 6  5.47874342534253 -0.99155090029003 -1.25046846374637
 6  3.10027012241224  1.29288769136914 -3.70038654785479
 6  0.56863928802880  2.07717286418642 -1.95199694479448
 6  3.09068770907091  1.73654323982398  3.51761710691069
 6 -0.63778761036104  2.35630026222622 -1.16992228012801
 6 -6.89084301080108 -3.39273303740374 -1.75886444514451
 6  6.61001057065707 -2.05907416251625 -1.29794048404841
 6 -1.51606026082608  3.51939417261726 -1.25521359605961
 6 -2.32457654705471  3.42751323032303 -0.18576648284828
 6 -2.04004627702770  2.17757869136914  0.44541347334733
 6 -1.35394537293729  4.49511577177718 -2.31753352135214
 6 -3.55724636113611  4.26944742764276  0.12319655935594
 6 -2.03934782598260  5.63989940814081 -2.50623435623562
 1 -3.63297179037904 -0.30779626952695  1.22779698429843
 1 -3.08063969036904 -3.20820594559456  1.27831818091809
 1 -3.13595341514151 -2.03422686708671  2.49488887758776
 1 -0.50289559435944 -2.96969573467347 -0.04260725072507
 1 -2.08713710341034 -0.40621692519252 -0.75723982638264
 1  1.75677363876388 -0.46511796559656  4.11744384348435
 1  2.86617395029503 -1.00639253055306  3.27334226362636
 1  3.12422123602360 -2.50984256715672  0.46399945314531
 1 -1.96518914821482 -1.33867314131413  4.28123518531853
 1 -0.71536130413041  0.10345614201420  4.63744010051005
 1 -2.17279659345935  0.17950039673967  3.49098786408641
 1 -5.96670745794579 -1.27455558675868  1.98554284728473
 1 -5.63412217291729 -3.14859896449645  1.95172801910191
 1 -6.63027040384038 -2.24128977237724  0.68080444214421
 1  2.07359349874988  1.42368231013101  1.56576418771877
 1  1.13696364786479  1.77864010831083  3.19471744544454
 1  0.30989924752475  0.33663803360336 -0.21266329862986
 1  4.30380609980998 -1.31796485548555 -3.12340794269427
 1  4.03824465426543 -2.50286206540654 -1.98230533853385
 1 -5.68978111651165 -2.55448637323732 -3.08749221302130
 1  5.14735265656566 -0.58039851975198 -0.17815459175918
 1  5.96093753505351 -0.06567356345635 -1.53876835933593
 1  4.00607051855186  0.91092758485849 -4.13102133163316
 1  3.32926867846785  2.43173425212521 -3.28069040444044
 1  2.47619340864086  1.48919341724172 -4.57337048904891
 1  0.78462237223722  2.79831132763276 -2.69929082108211
 1 -7.23077216331633 -3.52166435033503 -0.67131615281528
 1 -7.55005327022702 -3.58862019251925 -2.50609366286629
 1  4.05828955645565  3.44004336533653  3.68889214341434
 1 -0.53575745454545  4.42693397289729 -2.94348224362436
 1 -4.30261885148515  4.46980356215622 -0.75300645214521
 1 -4.20454920462046  3.90389518311831  1.03655446684669
 1 -3.40421873807381  5.33516380748075  0.60102587248725
 1  8.43949964346435 -2.12796595079508 -0.89239987498750
 1 -1.82747567216722  6.28726918401840 -3.36199105130513
 1 -2.99272162506251  6.03830520632063 -1.86204211171117

