%nproc=4
%Mem=3GB
# td=(NStates=1) B3LYP/SVP 

TD

0 1
 8 -3.15133204340434 -1.32765782128213 -2.90589124342434
 8  3.10533098789879  3.10235189368937  3.18427269816982
 8  3.83382769096910  1.28266539483948  4.32047649124913
 8  7.68849745264526 -1.49460557475748 -0.78727948974897
 8  6.68908306470647 -3.06880767566757 -2.05289173727373
 8 -2.62095300180018  1.63692918201820  1.46600666116612
 7 -0.26469221542154 -2.40472678697870  0.82864770557056
 7 -2.67190922892289 -1.04271940694069 -0.67640978557856
 7  1.13920546994699  0.04489539923992 -0.62788772597260
 7 -1.16450559605961  1.42823823172317 -0.26051694959496
 6 -3.30685583528353 -1.33242080448045  0.64806178007801
 6 -2.58253687978798 -2.31680582678268  1.51975728252825
 6 -1.14415005670567 -2.04353216721672  1.78240622922292
 6 -0.59805960826083 -1.19697088878888  2.81737975847585
 6  0.76372748534853 -1.14504950595059  2.54510570517052
 6  0.98270095629563 -1.88157459215922  1.26694149814982
 6 -4.70542548914892 -1.81788743744374  0.22286917421742
 6  1.87618220962096 -0.40744107370737  3.21291344584458
 6 -4.77693405480548 -1.91828053645365 -1.15500584108411
 6  2.17085504190419 -1.93928212041204  0.36327860656066
 6  2.15158118001800 -0.88947085928593 -0.60040394189419
 6 -3.52253692359236 -1.37733969926993 -1.69973725712571
 6  3.00487155035504 -0.59627037533753 -1.67250114901490
 6 -1.33601217341734 -0.50652450945094  3.88385389368937
 6 -5.79863508760876 -1.98241472177218  1.37074808040804
 6  2.48971862876288  0.51271864006401 -2.36146075607561
 6  1.96491592399240  1.07984367636764  2.81393803540354
 6  1.30106347284728  0.87106375497550 -1.73844995099510
 6  4.23938928802880 -1.44001343044304 -1.98150778087809
 6 -5.79570390649065 -2.47951004140414 -2.06399984818482
 6  5.45887143814381 -1.18516026122612 -1.12145556245625
 6  3.03296339173917  1.04206260886089 -3.58834534373437
 6  0.44223664776478  1.98673382028203 -2.10159190429043
 6  3.05223386368637  1.83141272677268  3.53459880508051
 6 -0.71775560716072  2.27207183938394 -1.17393268116812
 6 -6.84078800530053 -3.29903366746675 -1.67169572827283
 6  6.67406697629763 -2.08118637373737 -1.39016970697070
 6 -1.49939859465947  3.43532576577658 -1.35628370307031
 6 -2.44262835223522  3.43118359735974 -0.23606151235124
 6 -2.10243251565156  2.14413534703470  0.45112404440444
 6 -1.25299527792779  4.58336459665967 -2.19900166816682
 6 -3.41910254675468  4.23555403830383  0.32921716141614
 6 -2.08812270347035  5.61715713391339 -2.44093782658266
 1 -3.31856034923492 -0.44694018391839  1.36155035963596
 1 -2.66376800320032 -3.34010913591359  1.00609095819582
 1 -3.14049386918692 -2.51437488188819  2.38709809850985
 1 -0.41104640944094 -2.82774153925392  0.02455946594659
 1 -1.99217760746075 -0.23793009650965 -0.66945104750475
 1  1.65428338973897 -0.52940439423942  4.30129222832283
 1  2.83513084598460 -0.96210810211021  3.04427935733573
 1  2.85894470837084 -2.82106368926893 -0.02816976377638
 1 -2.16237886718672 -0.99905917991799  4.40587764956496
 1 -0.79646941494149 -0.34120832443244  4.95309166566657
 1 -1.42453176697670  0.52240468716872  3.48641740704070
 1 -5.46001678887889 -1.38779691089109  2.37156144914491
 1 -5.92080084078408 -2.99142324692469  1.55469831613161
 1 -6.76557393419342 -1.79968561196120  0.79566592829283
 1  2.14446058545855  0.96765670757076  1.69201681298130
 1  1.14135408690869  1.68695093939394  3.01734970867087
 1  0.32969122672267  0.12509687948795 -0.20093212551255
 1  4.71219693889389 -1.08272133113311 -3.07351295319532
 1  4.05315614541454 -2.53426520572057 -1.94522163016302
 1 -5.79138127652765 -1.95982690729073 -3.17935139893989
 1  5.24279220052005 -1.27770825072507 -0.07655443174317
 1  5.80819226052605 -0.16660365646565 -1.12564704720472
 1  3.93005291679168  0.63367986008601 -3.94839306880688
 1  3.45212096369637  2.00030110881088 -3.52075441084108
 1  2.05686147544754  0.89235373327333 -4.44046719871987
 1  0.73628753875387  2.35566706320632 -3.13897478947895
 1 -6.68829791589159 -3.71137332123212 -0.62502152335233
 1 -7.71492975787579 -3.67488881938194 -2.41484453795380
 1  3.98041176867687  3.40897025802580  3.55760901510151
 1 -0.48029190799080  4.41507278677868 -2.87972586798680
 1 -4.17474606420642  4.32763934573457 -0.44725587708771
 1 -3.75396414611461  3.62676747034703  1.10511132253225
 1 -3.23995231143114  5.37217750885088  0.69229499939994
 1  8.44046974047405 -2.10430358455846 -1.04933556855686
 1 -2.01522444704470  6.25806626372637 -3.36870172237224
 1 -3.02239459235924  5.78778015381538 -1.84180008750875

