%nproc=4
%Mem=3GB
# td=(NStates=1) B3LYP/SVP 

TD

0 1
 8 -3.22052896309631 -1.18454350985099 -2.83459411371137
 8  3.09109956475648  3.11330298879888  3.06033030393039
 8  3.89489379757976  1.45193232153215  4.38007245084509
 8  7.84658326122612 -1.58022413661366 -0.94967572937294
 8  6.58939309570957 -3.15303609850985 -1.94429087718772
 8 -2.56009691619162  1.64796028512851  1.50253031353135
 7 -0.29622536873687 -2.47862417671767  1.03077791859186
 7 -2.75524756275628 -1.03755889088909 -0.70400254485449
 7  1.20016156555656  0.17092800250025 -0.67132206940694
 7 -1.04977412291229  1.40156556445645 -0.27299819771977
 6 -3.39346449614961 -1.35412297469747  0.62596957085709
 6 -2.62846147224722 -2.37977212341234  1.56696200300030
 6 -1.23752939463946 -2.09390720472047  1.83452144074407
 6 -0.60705050735073 -1.19768095979598  2.83948196869687
 6  0.79178029062906 -1.16433143414341  2.53699489408941
 6  1.02700538673867 -1.92262869756976  1.35027983198320
 6 -4.74166911351135 -1.91643729242924  0.20619750705070
 6  1.81798639003900 -0.38299862946295  3.32678483298330
 6 -4.86846320772077 -1.99970867926793 -1.13257359785979
 6  2.10620857725773 -1.82065025722572  0.40968324702470
 6  2.04074009590959 -0.83123503570357 -0.63757765926593
 6 -3.58009267916792 -1.34363632893289 -1.68260554395440
 6  3.00604166736674 -0.64336508480848 -1.75243914281428
 6 -1.27719629182918 -0.46026988398840  3.96906241454145
 6 -5.65869109320932 -2.33779025932593  1.29509051465147
 6  2.62105176207621  0.42858022622262 -2.42874748474847
 6  1.91564099649965  1.19132482448245  2.85540218181818
 6  1.36621998849885  0.98072472107211 -1.76669277527753
 6  4.20077542664266 -1.48145757485749 -1.99362899299930
 6 -5.79827416351635 -2.45602769316932 -2.19042249044904
 6  5.48081363236324 -1.14058580378038 -1.17088050495050
 6  3.25757585298530  1.02649105170517 -3.73859036823682
 6  0.47897032113211  2.01100624752475 -2.04262600770077
 6  3.10168880918092  1.81254083958396  3.52177752295229
 6 -0.68748257985799  2.31117574977498 -1.25156044394439
 6 -6.95550947744774 -3.14580834493449 -1.84461302000200
 6  6.60108967856786 -2.12171042614261 -1.34074476447645
 6 -1.58748740354035  3.44874710791079 -1.30833890859086
 6 -2.41072516191619  3.35685616461646 -0.17746565276528
 6 -2.05907818021802  2.03536446994699  0.42007093909391
 6 -1.31883186158616  4.54741100130013 -2.23340510851085
 6 -3.51325196169617  4.17962844574457  0.25123936363636
 6 -2.04376826802680  5.72146756495650 -2.31339507230723
 1 -3.44011250445045 -0.41379686958696  1.25264946954695
 1 -2.64348597499750 -3.39438456345635  1.07230757985799
 1 -2.94242406220622 -2.53839728412841  2.57735712441244
 1 -0.64627993279328 -2.78291705680568  0.13961097109711
 1 -2.06620501020102 -0.15351165466547 -0.73908801120112
 1  1.65198315971597 -0.17538899269927  4.33272537163716
 1  2.73301063396340 -1.06992888418842  3.20140506990699
 1  2.88481729562956 -2.51094267716772  0.15993904710471
 1 -2.11333396269627 -0.94481375537554  4.53334039583958
 1 -0.63080284828483 -0.36239044264426  4.98421477797780
 1 -1.62384169796980  0.57149959665967  3.55518428372837
 1 -5.72114290149015 -1.67002513371337  2.10800509350935
 1 -5.64464322502250 -3.26732083668367  1.78401124742474
 1 -6.64338171497150 -2.35974161756176  0.79073543524352
 1  2.14002014141414  1.38255819771977  1.79876748804880
 1  1.04844479597960  1.80406265056506  3.13462143584358
 1  0.43778203580358  0.53869823962396 -0.00439247154716
 1  4.60697641684168 -1.33421648064807 -3.12957855975598
 1  3.91022185198520 -2.46914869406941 -1.72478958695870
 1 -5.55091723012301 -2.41942286688669 -3.19121258505851
 1  5.34053197449745 -1.04859533943394 -0.13536031233123
 1  5.73354479577958 -0.07042403850385 -1.38240272277228
 1  3.91004091559156  0.32816930903090 -4.26048427792779
 1  3.93474922652265  1.86405748444844 -3.25444778017802
 1  2.54915070437044  1.57340183808381 -4.45438859085909
 1  0.56100001000100  2.60882237873787 -2.99840073207321
 1 -7.12392147824782 -3.57867005090509 -0.88574759595960
 1 -7.54862312721272 -3.35701703220322 -2.66113916741674
 1  3.59255298279828  3.62509187018702  3.72695594979498
 1 -0.45280915971597  4.36365764526453 -2.78685658105811
 1 -4.22428101770177  4.36406298809881 -0.59324047554755
 1 -4.07279602930293  3.96499129272927  1.28543935533553
 1 -3.13991230743074  5.10775106620662  0.57756352625263
 1  8.48342403590359 -2.25076823102310 -1.25984661966197
 1 -1.91641456605660  6.34236469356936 -3.07362221442144
 1 -2.88088044094409  5.82204358015802 -1.81244715221522

