%nproc=4
%Mem=3GB
# td=(NStates=1) B3LYP/SVP 

TD

0 1
 8 -3.28939584978498 -1.43966902240224 -2.93743439773977
 8  3.09637009180918  3.12875453395340  3.25616988788879
 8  3.68686299449945  1.35815294359436  4.60336478007801
 8  7.51167977087709 -1.81586770097010 -0.37675843764376
 8  6.81888604500450 -2.75648644354435 -2.57927437553755
 8 -2.71049195569557  1.60273576267627  1.47674773527353
 7 -0.26431217741774 -2.24212052635264  0.88552339313931
 7 -2.65320735873587 -1.23044817981798 -0.61138328292829
 7  1.09485103450345  0.14250516021602 -0.75616055325533
 7 -1.12974211971197  1.47060246814681 -0.19033993189319
 6 -3.38524367406741 -1.34375193759376  0.59281625552555
 6 -2.61170979707971 -2.40281442764276  1.64245955275528
 6 -1.21573721542154 -2.02859067306731  1.84085207380738
 6 -0.51039084138414 -1.18786997869787  2.88814683518352
 6  0.77534864746475 -1.11240624162416  2.43785498009801
 6  0.97775046124612 -1.78486492119212  1.28030283428343
 6 -4.76890183678368 -1.75526117481748  0.22009889718972
 6  1.85301989338934 -0.30670099969997  3.11722387688769
 6 -4.79748611001100 -2.01596030443044 -1.08415875637564
 6  2.11800975737574 -1.85380357255726  0.34291657035704
 6  2.09668569046905 -0.89333124532453 -0.63279718121812
 6 -3.42230690059006 -1.50226219151915 -1.70442772617262
 6  3.01159222242224 -0.61944269256926 -1.72033593249325
 6 -1.21878045024502 -0.42364622162216  3.93953946224622
 6 -5.72567779187919 -2.13758023832383  1.18789979557956
 6  2.56136579347935  0.45750311851185 -2.40487509750975
 6  1.99275870827083  1.13686937893789  2.71919856145615
 6  1.33952731923192  0.91701835043504 -1.78252435843584
 6  4.22541789088909 -1.56299572867287 -1.99143877397740
 6 -5.91435577167717 -2.49039112951295 -1.94802825102510
 6  5.51706725772577 -1.15390713591359 -1.22901631853185
 6  3.15267536293629  0.97805620822082 -3.65792230143014
 6  0.50228265236524  2.03048819571957 -1.94233597869787
 6  3.02103074337434  1.75718530403040  3.65155050025002
 6 -0.66766059765977  2.23064769696970 -1.17687297519752
 6 -6.89939386588659 -3.26677044114411 -1.60268882758276
 6  6.66083565316532 -1.99457771287129 -1.57092778277828
 6 -1.42141079587959  3.51375360856086 -1.36227430213021
 6 -2.31753584298430  3.31378185718572 -0.30139804600460
 6 -2.15991826422642  2.12064299779978  0.45748468046805
 6 -1.09650962936294  4.61421768196820 -2.14194596259626
 6 -3.44007464396440  4.31325180808081  0.17060129982998
 6 -2.01584547574757  5.65228064626463 -2.40506423922392
 1 -3.39362785598560 -0.35200068996900  1.13985819041904
 1 -2.65000662706271 -3.39681480648065  1.07831818091809
 1 -3.25625544534453 -2.53439688408841  2.59608899759976
 1 -0.63724902970297 -2.75924468956896  0.09427643764376
 1 -1.98826721642164 -0.50429673317332 -0.68729283168317
 1  1.49131709310931 -0.35638709250925  4.26890898999900
 1  2.88408574147415 -1.08660055135514  2.91737666706671
 1  2.87787660156016 -2.58586016891689  0.37366041924192
 1 -2.35611824112411 -0.93545281928193  4.15743280508051
 1 -0.63239300730073 -0.18432263586359  5.06740309680968
 1 -1.72354166796680  0.31718416511651  3.50221898719872
 1 -5.49227001420142 -1.59621775297530  1.92251654465447
 1 -5.58257701840184 -3.09997410201020  1.41138398469847
 1 -6.73288066486649 -1.89085472887289  0.90065642734273
 1  2.38277441684168  1.32769271117112  1.66080369166917
 1  1.19804975647565  1.54133637793779  3.08493646734673
 1  0.10072833043304  0.04947931773177 -0.24806683898390
 1  4.44534025322532 -1.51923498249825 -3.22608821072107
 1  3.98844967476748 -2.59888166736674 -1.74881198919892
 1 -5.83502564096410 -2.31000192479248 -2.90942440624062
 1  5.48856677797780 -1.02934341424142 -0.09471624792479
 1  5.90195163646365 -0.22176917301730 -1.61766624912491
 1  3.69522943444344  0.06927341944194 -4.09840807030703
 1  3.90075582718272  1.71590266896690 -3.46810914631463
 1  2.22256804610461  1.45324982288229 -4.35130828282828
 1  0.78212212221222  2.82847434393439 -2.65865675767577
 1 -7.03145223132313 -3.75277746164616 -0.62478149934993
 1 -7.68465673057306 -3.54372570307031 -2.12745579907991
 1  3.84970869836984  3.51322068306831  3.58565181938194
 1 -0.17423130193019  4.46775805530553 -2.82314020942094
 1 -4.31499008860886  4.31739832163216 -0.49208035953595
 1 -3.72214096379638  4.16277107070707  1.25300611201120
 1 -2.85081339753975  5.26559685078508  0.27141291119112
 1  8.29566526002600 -2.38011116531653 -0.82632326732673
 1 -1.77117004160416  6.42552300940094 -3.01192604480448
 1 -3.10291264416442  5.62520389618962 -1.99066497399740

