%nproc=4
%Mem=4GB
# td=(NStates=1) B3LYP/SVP 

TD

0 1
 8 -5.30813704370437  0.29792523212321 -3.30445023472347
 8  3.01680168566857  2.93484073877388  3.35615169356936
 8  3.38723707230723  0.73136853585359  3.04657654275428
 8  1.74036167566757 -7.22189845994599  1.46838534483448
 8  0.73134802280228 -7.00948737233723 -0.53533151605160
 8  1.74290133823382  4.03634675747575 -0.11002149474948
 7 -2.44369398049805 -0.90514894509451  0.55145216181618
 7 -4.36595147654765  0.72299996649665 -1.15304365916592
 7  1.83981437303730 -0.69985155815582 -0.43422189978998
 7  2.59308485038504  1.88730447594759 -0.57409415611561
 6 -4.85937232843284  1.19678117511751  0.14196999679968
 6 -4.55002239503950  0.28968913421342  1.30211756945695
 6 -2.97913300890089  0.11777203390339  1.46091810481048
 6 -2.01726082278228  0.59407436463646  2.21048421802180
 6 -0.66427303760376  0.07309187368737  1.72584326192619
 6 -1.02940712851285 -0.89914297319732  0.77304912431243
 6 -6.37597995409541  1.24006179547955 -0.06637185258526
 6  0.62453105970597  0.21275195169517  2.42646166626663
 6 -6.67238775327533  0.84641388978898 -1.31265699439944
 6 -0.32208846494649 -1.87917665456546  0.04559664116412
 6  1.01433833003300 -1.85350489708971 -0.48466004820482
 6 -5.45554615491549  0.56627484218422 -2.13391070257026
 6  1.92030611581158 -2.92227276567657 -0.92905991529153
 6 -2.10003570447045  1.66870262716272  3.20602499269927
 6 -7.33626111931193  1.65830395959596  1.04458844474447
 6  3.19925625932593 -2.42520247144714 -1.15529677477748
 6  1.28566459375938  1.60125861926193  2.35506914281428
 6  3.12672074737474 -1.04403302890289 -0.95215920412041
 6  1.38503227342734 -4.26810277467747 -1.00510222712271
 6 -7.98581448744875  0.85023666126613 -2.06350473827383
 6  1.75709327492749 -5.10115104970497  0.40938693419342
 6  4.33872948194819 -2.92353082188219 -1.89976920822082
 6  4.01151202180218 -0.03877447394739 -1.19039372177218
 6  2.67765838703870  1.73695128332833  2.97912381228123
 6  3.71389576737674  1.42294770627063 -1.05379194649465
 6 -9.14946993039304  0.65557771807181 -1.52005682098210
 6  1.23698876357636 -6.51060771097110  0.37766642564256
 6  4.57735657025703  2.51104785968597 -1.40006708980898
 6  3.88909817821782  3.75431595529553 -1.19500079437944
 6  2.70292186298630  3.32143999509951 -0.54455321802180
 6  5.99637324262426  2.48094293489349 -1.98153010811081
 6  4.24439005880588  5.20480535633563 -1.25488750215022
 6  6.69400945854585  3.44251993679368 -2.43573805070507
 1 -4.55120960706070  2.18593967406741  0.25179822012201
 1 -4.78663332023202 -0.68709018511851  1.08010275447545
 1 -4.86347318721872  0.76700069976998  2.27964487418742
 1 -3.03152219211921 -1.54697209270927 -0.08278520032003
 1 -3.44941593889389  0.84626654375438 -1.35663321422142
 1  0.51365580028003  0.18901921392139  3.43992354045405
 1  1.25127913731373 -0.43306797419742  1.84671980478048
 1 -0.96488514941494 -2.74158162316232 -0.38071306900690
 1 -3.01456160146015  1.81851311541154  3.58950894059406
 1 -1.48687990309031  1.41628099199920  4.06250463836384
 1 -1.66929331043104  2.61079489928993  2.76997441924192
 1 -6.84174762566257  2.41567037053705  1.71637387038704
 1 -7.55244501150115  0.90522033123312  1.94415142584258
 1 -8.24852078927893  2.04301038413841  0.87131561176118
 1  1.34440714911491  1.90671270787079  1.19684775207521
 1  0.65390850335034  2.35634245624562  2.90771659585959
 1  1.42896722312231  0.26451709670967 -0.54696006130613
 1  1.89500729292929 -4.98127195759576 -1.79273388308831
 1  0.20960275777578 -4.29561940944094 -1.06765524892489
 1 -7.84043510531053  1.08065829642964 -3.23752969116912
 1  1.50679286818682 -4.62346352605260  1.41629920652065
 1  2.96057232733273 -4.97998520302030  0.26229404430443
 1  4.42637770007001 -4.09301675387539 -1.57523098419842
 1  5.33715481388139 -2.21262011221122 -1.21987560516052
 1  4.33526495959596 -2.72164439703970 -3.08337741134113
 1  5.00980059955996 -0.37821991649165 -1.60357653335333
 1 -9.18160176067607  0.30910836633663 -0.35175786558656
 1 -10.09276741034103  0.85882729842984 -2.15884198419842
 1  4.04013870037004  2.68791217491749  3.70451521722172
 1  6.46798026622662  1.58337048624862 -2.04223303830383
 1  5.09888058785879  5.65193795799580 -0.63856247614762
 1  4.29455147764776  5.72489925562556 -2.32527507240724
 1  3.32536020562056  5.72632223862386 -0.99134087568757
 1  1.47017432553255 -8.11288244534453  1.38312436733673
 1  7.72474491889189  3.09630517041704 -2.96553382668267
 1  6.43991587908791  4.73603911611161 -2.49353170567057

