%nproc=4
%Mem=3GB
# td=(NStates=1) B3LYP/SVP 

TD

0 1
 8 -3.35903281348135 -1.51026608210821 -2.89597025132513
 8  2.87953840864086  3.12654431293129  3.17370164106411
 8  3.46843115131513  1.48764589288929  4.50940538413841
 8  7.78034663756376 -1.37549366356636 -0.91057181898190
 8  6.77849200560056 -2.97916871177118 -2.08561500960096
 8 -2.47678858535854  1.52671816091609  1.54073413391339
 7 -0.25427117331733 -2.35481179547955  0.80091493229323
 7 -2.75858789678968 -1.07885302030203 -0.71648379297930
 7  1.16964851425143  0.10372128182818 -0.71810674787479
 7 -0.84796394189419  1.42788819671967 -0.15562646054605
 6 -3.42722787248725 -1.40551811421142  0.64863183708371
 6 -2.69442806890689 -2.31737588378838  1.60914622142214
 6 -1.20426606830683 -1.85012282628263  1.76623461206121
 6 -0.54062386468647 -1.23752494419442  2.83951197169717
 6  0.80692180478048 -1.19094409540954  2.43650484508451
 6  0.91094378057806 -1.84464089878988  1.27815261926193
 6 -4.75104005060506 -1.90262591129113  0.27580446774677
 6  1.95653024442444 -0.32318264786479  3.01679383388339
 6 -4.86201256265627 -2.03051175957596 -1.14497483798380
 6  1.99809776617662 -1.95743393559356  0.37685996469647
 6  2.09173519541954 -0.93159507170717 -0.61533543504350
 6 -3.52640731063106 -1.58797076237624 -1.67890517391739
 6  3.04490555375538 -0.73001374967497 -1.60932483138314
 6 -1.10956952915292 -0.53173703070307  4.00590609890989
 6 -5.78923414751475 -2.13491997229723  1.34619562516252
 6  2.55929558645865  0.37463483168317 -2.47766237623762
 6  1.76487591999200  1.11320701270127  2.53034967656766
 6  1.46269963646365  0.85369201780178 -1.71882798879888
 6  4.19816516561656 -1.60486991609161 -2.01103073317332
 6 -5.91276561266127 -2.42769485988599 -2.03803725192519
 6  5.46753230423042 -1.07159890509051 -1.21635505240524
 6  3.23165326072607  1.02591099369937 -3.69359586878688
 6  0.60182260636064  1.94704985188519 -2.04986673177318
 6  2.75590423072307  1.93321290679068  3.60153549874987
 6 -0.47766159775978  2.22435706790679 -1.20843613151315
 6 -7.11117504400440 -3.11167493159316 -1.65969452815282
 6  6.72408197779778 -1.99572782788279 -1.42630332033203
 6 -1.39524817961796  3.47628986218622 -1.17425550025003
 6 -2.27709179857986  3.34371485048505 -0.15195310151015
 6 -1.90803307570757  2.02553348684868  0.43462239423942
 6 -1.30870084848485  4.53905016521652 -2.23395516351635
 6 -3.34884552105211  4.29843032593259  0.27148138783878
 6 -1.85567945914591  5.83829924812481 -2.27383111591159
 1 -3.68953744694469 -0.41528701860186  1.42701690629063
 1 -2.72388401480148 -3.37751287628763  1.37814816391639
 1 -3.36893671347135 -2.29146259065907  2.53365275397540
 1 -0.49819512431243 -2.69620838593859 -0.06937992799280
 1 -2.38332672237224 -0.19803610711071 -0.82182628502850
 1  1.96107406880688 -0.53580503430343  4.08601070017002
 1  3.07627496039604 -0.69637152845285  3.01815674507451
 1  2.79125793969397 -2.76067765066507  0.39240229342934
 1 -2.17679030833083 -0.99444871887189  4.28139520132013
 1 -0.42964273227323 -0.21519572317232  4.82655901240124
 1 -1.53301261506151  0.47898034473447  3.56657542284228
 1 -5.69121990919092 -1.58823695489549  2.24369866286629
 1 -6.13188194889489 -3.35977008160816  1.70714356065607
 1 -6.65429280608061 -1.86738238163816  0.87702406410641
 1  1.97411355075508  1.14086402830283  1.48145575687569
 1  0.93139309080908  1.51981422572257  2.93112108580858
 1  0.30892915051505  0.34154852465247 -0.23067509980998
 1  4.49562528172817 -1.69836289528953 -3.17260286218622
 1  3.97002783258326 -2.63959573877388 -1.83740084808481
 1 -5.86306844524452 -2.15742666726673 -2.95990945474547
 1  5.30061798309831 -0.92283276317632 -0.10545732203220
 1  5.90406184748475 -0.15249224532453 -1.36448093059306
 1  4.20857076857686  0.52455894799480 -4.29772800230023
 1  3.80618637023702  1.96551763046305 -3.34381671707171
 1  2.48154394369437  1.43823832173217 -4.31775492749275
 1  0.72998690869087  2.49666116261626 -2.98857974997500
 1 -7.35584467056706 -3.46306849074907 -0.59680870207021
 1 -8.01247951285129 -3.21389271977198 -2.57394044754475
 1  3.18833256075608  3.71283064406441  4.16292954715472
 1 -0.80696457525753  4.21191247074707 -2.99356725212521
 1 -4.05624421402140  4.60826740854085 -0.36394754625463
 1 -3.75785453515352  3.96251104470447  1.30571138253825
 1 -3.05430374657466  5.26085637673767  0.40553632353235
 1  8.65214090759076 -2.02370552475248 -0.94334496949695
 1 -1.53815674027403  6.48816927402740 -3.10955580778078
 1 -2.53025537843784  6.15302667846785 -1.46783269076908

