%nproc=4
%Mem=4GB
# td=(NStates=1) B3LYP/SVP 

TD

0 1
 8 -5.47576380638064 -0.00817537793779 -3.22398218791879
 8  2.92721272677268  2.92585984068407  3.43507958635864
 8  3.33093144174417  0.80964636363636  3.01994387948795
 8  1.69065670517052 -7.15184145424542  1.36650515681568
 8  0.28190307830783 -6.77796422002200 -0.28489647254725
 8  1.77650469856986  3.98878200100010  0.07952746014601
 7 -2.37974758585859 -0.99119754995500  0.58816583318332
 7 -4.31002588398840  0.51530919741974 -1.25439379417942
 7  1.90236062766277 -0.63820539353935 -0.42930140774077
 7  2.52372791469147  1.85138088358836 -0.50213696039604
 6 -4.78248463966397  1.16542803980398  0.06030182998300
 6 -4.36745413821382  0.27463762906291  1.24871222892289
 6 -2.89918501410141  0.04647490419042  1.36700871387139
 6 -1.85773487018702  0.65693065026503  2.11628479807981
 6 -0.65503211351135  0.09191375587559  1.66292697029703
 6 -0.98389257705771 -0.97622068096810  0.75294711411141
 6 -6.35444780088009  1.31321911121112 -0.12729794519452
 6  0.61605021162116  0.24983566006601  2.38320734083408
 6 -6.69344985948595  0.76334558295830 -1.29860558925893
 6 -0.08481473757376 -1.95879461636164  0.20105218671867
 6  1.09920681688169 -1.83563310991099 -0.43060464266427
 6 -5.46956755705571  0.40210842554255 -2.17213452495250
 6  1.86836092129213 -2.90518105650565 -0.97424443374337
 6 -2.12518821972197  1.74659041594159  3.04326871707171
 6 -7.07626511971197  1.98195632483248  0.84900888678868
 6  3.09605593929393 -2.37111706290629 -1.35075632073207
 6  1.21181720902090  1.72123061646165  2.41100473637364
 6  3.08920699599960 -0.91492011761176 -1.11940592879288
 6  1.54669844004400 -4.34034999939994 -1.01871358825883
 6 -7.96858276427643  0.60656229382938 -2.04986337413741
 6  1.92657022262226 -4.92617355195520  0.33204920042004
 6  4.21040664966497 -3.07274574337434 -1.99389862116212
 6  3.86458732933293  0.02249165266527 -1.46048073047305
 6  2.59589021022102  1.76631421962196  3.07742364226423
 6  3.68962334013401  1.47572298379838 -1.03266983428343
 6 -9.13555853925393  0.70485264556456 -1.33689850515051
 6  1.28173323802380 -6.43076972717272  0.38701736073607
 6  4.60083891849185  2.60007676257626 -1.25473255635564
 6  3.96762603100310  3.69937046074607 -0.89491078537854
 6  2.70361193199320  3.29689754085409 -0.38892765546555
 6  5.81853545884588  2.45262010261026 -2.21281323642364
 6  4.35306092589259  5.09247412321232 -0.93270528392839
 6  6.67245730333033  3.48448413321332 -2.54815929282928
 1 -4.22047653375337  2.00498157825783  0.01668470877088
 1 -4.94275893279328 -0.62901437753775  1.18279302350235
 1 -4.57368420832083  0.66765076477648  2.26488339803980
 1 -2.83865290519052 -1.51648904440444 -0.11180810261026
 1 -3.39400039733973  0.66849876697670 -1.60191774267427
 1  0.45322975767577  0.00008032003200  3.59133868196820
 1  1.43318732813281 -0.33393806120612  2.05461059385939
 1 -0.39786844774477 -2.99734719971997  0.09379438173817
 1 -3.15913605890589  1.74722598669867  3.24495448514851
 1 -1.73965518061806  1.39223858775878  4.16357474537454
 1 -1.54009039013901  2.64254807460746  2.68071549334933
 1 -6.66156960786079  3.09627843134313  1.28639087208721
 1 -7.36287605460546  1.19935974517452  1.62432944364436
 1 -8.04250018721872  2.23036912001200  0.43681216141614
 1  1.27805051345134  2.08221025762576  1.42659072637264
 1  0.61258437093709  2.49983680568057  2.81793761796180
 1  1.65247957435744  0.43356400140014 -0.17142250755076
 1  1.97226501870187 -4.85094892529253 -2.04314892459246
 1  0.44197599509951 -4.37580742824282 -1.10386887028703
 1 -7.85975703750375  0.47757798839884 -3.10919685788579
 1  1.45949813871387 -4.48140932063206  1.02608018461846
 1  3.14731100120012 -5.24813201770177  0.37002481738174
 1  4.25220028232823 -4.13008046024602 -2.15366882798280
 1  5.18780987938794 -2.89829868006801 -1.45149876747675
 1  4.44397583068307 -2.68002023462346 -3.07158623222322
 1  4.82416203570357 -0.12798489298930 -2.00111628732873
 1 -9.28208180868087  0.67165462096210 -0.24750744054405
 1 -10.14753288688869  0.64869628532853 -1.97142324232423
 1  3.90116480298030  2.98373175687569  3.66565133083308
 1  6.06225969416942  1.59665181438144 -2.43153196819682
 1  5.61814251405140  5.13732649684969 -0.58758737863786
 1  4.27052907540754  5.46636340204020 -1.87707025192519
 1  3.84681235083508  5.77423703010301 -0.14355609720972
 1  0.75631293939394 -8.00372152925292  1.22300835573557
 1  7.65566801120112  3.26790233013301 -3.02258953225323
 1  6.44857674517452  4.62767828002800 -2.37046939943994

