%nproc=4
%Mem=3GB
# td=(NStates=1) B3LYP/SVP 

TD

0 1
 8 -3.14562147234723 -1.35826088158816 -2.89453010731073
 8  3.12763321812181  3.13805546404640  3.13450772167217
 8  3.62040634883488  1.36282341064106  4.62105654925493
 8  7.65134373727373 -1.62298841304130 -0.70029079087909
 8  6.70790494689469 -2.99876067096710 -2.09398584668467
 8 -2.61933283978398  1.63452894199420  1.47409747024702
 7 -0.31227697389739 -2.42372868716872  0.88351319211921
 7 -2.67470950895090 -1.05884101910191 -0.72517466206621
 7  1.10859240864086  0.04871578127813 -0.76790172737274
 7 -0.91582072757276  1.44653006090609 -0.15918681658166
 6 -3.34200935063506 -1.23625118751875  0.62261923582358
 6 -2.73927255335534 -2.22834698089809  1.59351465826583
 6 -1.18521416311631 -2.03343115711571  1.76664465306531
 6 -0.53457325962596 -1.27089828152815  2.87638565906591
 6  0.79786089868987 -1.15135013601360  2.48202939753975
 6  0.90324301050105 -1.89881631633163  1.20492529652965
 6 -4.74782972957296 -1.80576622532253  0.19301618891889
 6  1.86309090049005 -0.28898922852285  3.24528668316832
 6 -4.77882424382438 -1.98489719811981 -1.18776911741174
 6  2.01082903930393 -1.86005419761976  0.30771305000500
 6  2.01257727962796 -0.93996590879088 -0.64075797729773
 6 -3.44589925982598 -1.50582254755476 -1.68291557495750
 6  2.98396946014601 -0.67765851415142 -1.83605750465047
 6 -1.26834540674067 -0.50162401940194  3.92379788808881
 6 -5.79074429852985 -2.03566004630463  1.30363136873687
 6  2.55748540544054  0.49923729192919 -2.46649125912591
 6  2.01468090049005  1.08621431343134  2.73844048564857
 6  1.33871723822382  0.90948759735974 -1.79577568356836
 6  4.18137348644864 -1.57890731983198 -2.07683731383138
 6 -5.86351068716872 -2.50433252365237 -1.96265971417142
 6  5.41415696669667 -1.18679042424242 -1.25418883578358
 6  3.24147424282428  1.22357075967597 -3.60500700990099
 6  0.52185460956096  2.00343549044905 -2.00884262936294
 6  3.12229086938694  1.84451403690369  3.64478982418242
 6 -0.58062189378938  2.32514714691469 -1.16596188408841
 6 -6.82517644414441 -3.43923768786879 -1.53908246694669
 6  6.62415198479848 -1.97544579967997 -1.48899958995900
 6 -1.48500715551555  3.49210144334433 -1.23064113881388
 6 -2.44272836223622  3.32638311731173 -0.23768167436744
 6 -2.04731700410041  2.05613654715472  0.50851978397840
 6 -1.33356333473347  4.54954121432143 -2.24185595359536
 6 -3.47186782328233  4.14713519641964  0.24557879757976
 6 -1.96424031523152  5.73433885208521 -2.39068280108011
 1 -3.32656114931493 -0.19962545244524  1.30801500610061
 1 -2.75891751815181 -3.34083920892089  1.21226157525753
 1 -3.23740356015602 -2.09113255765577  2.48126751545154
 1 -0.27486279107911 -3.04384314941494  0.09464647464746
 1 -1.85998438813881 -0.51658796229623 -0.84232833523352
 1  1.47184514591459 -0.35947740154015  4.31475357445744
 1  2.77836516941694 -0.93744563586359  3.08126305570557
 1  2.82159097299730 -2.61725330823082  0.44357741094109
 1 -2.18759138843884 -1.01233050705070  4.28711577337734
 1 -0.61487125512551 -0.26878108170817  4.91851820832083
 1 -1.44496381018102  0.50133257995800  3.37894665996600
 1 -5.54833562076208 -1.58391652285229  2.37960225322532
 1 -5.93965272597260 -3.25691979657966  1.20424327062706
 1 -6.80900827762776 -1.57016265966597  1.01083744544454
 1  2.40818695809581  1.07716765866587  1.83070068136814
 1  1.26138609010901  1.78363060736074  3.02378035173517
 1  0.30457871547155 -0.04260989118912 -0.18504053635364
 1  4.71059677887789 -1.68282134113411 -3.16084168606861
 1  3.91333216301630 -2.60132191139114 -2.07579468746875
 1 -5.77017915631563 -2.24711563616362 -3.13510697449745
 1  5.42310023132313 -1.10086056595660 -0.11607838413841
 1  5.60657209850985 -0.24824182028203 -1.56421090359036
 1  4.19554946644664  0.90567705980598 -3.94401263076308
 1  3.41177692929293  2.38039911861186 -3.36213854925493
 1  2.76765255455546  1.13780827872787 -4.69773292529253
 1  0.82845675567557  2.74336583308331 -2.73384427642764
 1 -7.01585067116712 -3.55855803970397 -0.47970699189919
 1 -7.70520878577858 -3.87069840034003 -2.14040709420942
 1  3.70134386188619  3.69287864886489  3.67855110931093
 1 -0.82208608740874  4.25239651915192 -3.06361425682568
 1 -4.17534612421242  4.61333791559156 -0.74055520702070
 1 -4.26894564426443  3.55586037963796  0.80150096149615
 1 -3.14170248644865  5.15981627272727  0.63617938783878
 1  8.41631732523252 -2.26737989218922 -0.71857249224922
 1 -1.72392531713171  6.49327978507851 -3.09362421462146
 1 -2.72272462536254  6.04856623242324 -1.71986789428943

