%nproc=4
%Mem=3GB
# td=(NStates=1) B3LYP/SVP 

TD

0 1
 8 -3.21177808800880 -1.53436849234923 -2.87456811111111
 8  3.08650910571057  3.15484714321432  3.45127939883988
 8  3.78592290049005  1.30860798909891  4.54885932953295
 8  7.84107271017102 -1.50012612681268 -1.05790655245525
 8  6.61375553195320 -3.05840663556356 -2.16042249034903
 8 -2.59371027752775  1.56564205330533  1.47482754325433
 7 -0.28288403460346 -2.33205952025203  0.90211505230523
 7 -2.71887392539254 -1.15035017001700 -0.52620476507651
 7  1.23017456685669  0.08195910561056 -0.62818775597560
 7 -1.01443058855886  1.44053946184618 -0.20808170607061
 6 -3.34091924162416 -1.34883244564456  0.66991396529653
 6 -2.69827845394539 -2.37902204840484  1.71930723752375
 6 -1.23459910161016 -1.88555636963696  1.80037802640264
 6 -0.65318512081208 -1.14029522122212  2.82648066856686
 6  0.74021513411341 -1.19190419141914  2.55559675427543
 6  0.95546823302330 -1.84033046774677  1.26154095809581
 6 -4.69414436103610 -1.81412706140614  0.17870475777578
 6  1.77889248064806 -0.34393472307231  3.26328848334833
 6 -4.78521488288829 -1.87566627502750 -1.12204254475448
 6  2.08013596999700 -1.85832402460246  0.28311058975898
 6  2.16225224712471 -0.86201811401140 -0.65937983948395
 6 -3.53755842574257 -1.66358832413241 -1.71376866026603
 6  3.05290635383538 -0.68946969526953 -1.81870576947695
 6 -1.34490306250625 -0.38577243424342  3.84733024132413
 6 -5.81146637073707 -2.10733721402140  1.20620162576258
 6  2.61571122802280  0.45459282748275 -2.44247885788579
 6  1.86435586798680  1.13900959295930  3.02649929152915
 6  1.45844921142114  1.01676832543254 -1.74140024602460
 6  4.22143749284928 -1.50538996809681 -1.98188781888189
 6 -5.78040237633763 -2.51058314871487 -1.95890933913391
 6  5.41110666166617 -1.15496724192419 -1.25698911581158
 6  3.21027112251225  1.13205160776078 -3.67990449964997
 6  0.54981740584058  1.95038018491849 -1.99501124622462
 6  2.99516815711571  1.86016560206021  3.77679302450245
 6 -0.62354618621862  2.26133076527653 -1.19164445234523
 6 -7.02924685118512 -3.07335109920992 -1.62637119581958
 6  6.71660122972297 -2.06270452555255 -1.56646733673367
 6 -1.45867452225223  3.50005223842384 -1.36052412711271
 6 -2.33978806820682  3.27423790279028 -0.32499040524052
 6 -2.02600487288729  1.96844777827783  0.41207013901390
 6 -1.34832481088109  4.55462172237224 -2.36795856385639
 6 -3.53442407890789  4.17362784568457  0.14322856255626
 6 -1.95527941914191  5.78858427662766 -2.39769350215022
 1 -3.50286878007801 -0.28747423732373  1.15201940654065
 1 -2.81037266366637 -3.45438056305631  1.26509685878588
 1 -3.25786560636064 -2.49579302370237  2.83960334903490
 1 -0.50908621342134 -2.70936970207021  0.01385839583958
 1 -1.81580997069707 -0.52935923942394 -0.61855595799580
 1  1.62852081348135 -0.58736018981898  4.31448354745474
 1  2.55799313221322 -0.70690258155816  3.13581851125112
 1  2.71337015091509 -2.75905748864887  0.01085413861386
 1 -1.93859648894889 -1.19012828682868  4.38733579537954
 1 -0.63216298429843  0.05012080848085  4.62044840134014
 1 -1.96558587238724  0.24157660436044  3.31136990229023
 1 -5.75551633883388 -1.35100323152315  2.12241653465347
 1 -5.86579534023402 -3.20632473707371  1.42399524582458
 1 -6.64553192999300 -1.86311195459546  0.55304166586659
 1  2.10307644704470  1.17147708960896  1.95081269256926
 1  0.86732668416842  1.60922316661666  3.12260023372337
 1  0.37787604520452  0.26429079887989 -0.12033406570657
 1  4.54466018521852 -1.44933799279928 -3.16949255115512
 1  4.08958978877888 -2.67165894509451 -1.81103821182118
 1 -5.56662880128013 -2.32578350295030 -3.09410287408741
 1  5.31377929922992 -1.36840732063206 -0.16716349264926
 1  5.76997843914392 -0.11665866196620 -1.64386886938694
 1  3.98585849734974  0.55206169826983 -4.13683191269127
 1  3.43101885348535  2.16715779447945 -3.22265460086009
 1  2.61763755305531  1.30851534943494 -4.48198135013501
 1  0.78320223022302  2.55089658615862 -2.91722261426143
 1 -7.40480956705671 -3.32181436533653 -0.48041706290629
 1 -7.46271453635364 -3.61640297079708 -2.53245629912991
 1  3.70698442594259  3.58284764576458  4.07765101930193
 1 -0.78568244704470  4.29628090759076 -3.19319721512151
 1 -4.08161675127513  4.48113469526953 -0.88963011451145
 1 -4.32161091079108  3.68078287188719  0.74969578097810
 1 -3.09662797899790  5.17076736783678  0.47831360126013
 1  8.73277897139714 -2.06642979717972 -1.29990062506251
 1 -1.89579250385039  6.36871732883288 -3.32627747994799
 1 -2.51909426232623  6.36167754355436 -1.55477138463846

