%nproc=4
%Mem=3GB
# td=(NStates=1) B3LYP/SVP 

TD

0 1
 8 -3.34404131433143 -1.39443449894990 -2.85379603390339
 8  3.05588604340434  3.05888754725473  3.03734800570057
 8  3.66345065326533  1.26869399769977  4.49597404100410
 8  7.76217482038204 -1.36841295549555 -0.64154491629163
 8  6.81572572897290 -2.74738553345335 -2.25903235133513
 8 -2.57572847934793  1.71085657475748  1.38433849434943
 7 -0.25764151035104 -2.36049236353635  0.90142498329833
 7 -2.69099113711371 -1.29128426342634 -0.63955610021002
 7  1.11864341374137  0.05801671137114 -0.73636857405741
 7 -1.09083822932293  1.36738214611461 -0.32732363026303
 6 -3.45330047974797 -1.40628819121912  0.70500747464746
 6 -2.62518114421442 -2.34658880508051  1.62213752055206
 6 -1.27963360506051 -1.97246506050605  1.81085907450745
 6 -0.63303310561056 -1.22563375507551  2.84146216671667
 6  0.77904901750175 -1.22431743274327  2.55311650625063
 6  0.92228491469147 -1.73905033973397  1.26682148614862
 6 -4.76586153275328 -1.90353600230023  0.21605849314932
 6  1.81196578797880 -0.40276060566057  3.32885504000400
 6 -4.77938429982998 -2.04941364976498 -1.05362570307031
 6  2.01633959035904 -1.86882507470747  0.34380665936594
 6  2.01561758365837 -0.95151706390639 -0.65524942644264
 6 -3.52609727962796 -1.60307227252725 -1.72064934833483
 6  2.97667873107311 -0.64568531683168 -1.74277817671767
 6 -1.41170974317432 -0.52238609560956  3.89440494879488
 6 -5.84994021812181 -2.05231171147115  1.44357536313631
 6  2.59778943584358  0.35233260146015 -2.45858046804680
 6  1.97078651105110  1.03690938293829  2.80550719231923
 6  1.31395476197620  0.83341999059906 -1.83810991699170
 6  4.20803615271527 -1.55183461256126 -1.92886251635164
 6 -5.91019535563556 -2.36465855625563 -1.95239868806881
 6  5.50446599759976 -1.02788453365337 -1.15199861676168
 6  3.08172826822682  0.92549095169517 -3.66114262346235
 6  0.62561498559856  2.02775792269227 -2.02955470057006
 6  3.08501714201420  1.74881446694669  3.62222756795680
 6 -0.50854468606861  2.26859149134913 -1.29090437833783
 6 -6.99459338583858 -3.08519228332833 -1.64403296199620
 6  6.78818838843884 -1.79581783688369 -1.49616030603060
 6 -1.36373502830283  3.43266549974997 -1.27402547724772
 6 -2.15784987438744  3.40050052905291 -0.26577448364836
 6 -1.96757903030303  2.07098803230323  0.35217414941494
 6 -1.29622960136014  4.58889514971497 -2.22618438643864
 6 -3.35750638713871  4.24121460436044  0.14626886658666
 6 -1.91872576377638  5.73444886308631 -2.26018975177518
 1 -3.55810430363036 -0.44823031293129  1.31000520512051
 1 -2.50463208960896 -3.35331045604560  1.13829417851785
 1 -3.17757757755776 -2.39882332673267  2.65433482218222
 1 -0.35267057185719 -2.73832259735974 -0.00479346934693
 1 -1.92505089478948 -0.60828713221322 -0.82230633303330
 1  1.56763472487249 -0.38769022282228  4.17171927102710
 1  2.99132646554655 -0.85890778207821  3.33102803220322
 1  2.71775058895890 -2.80814239713971  0.22352540574057
 1 -1.99996262556256 -1.37403667766777  4.29449651145115
 1 -0.75883565156516 -0.29938414201420  4.68167452395239
 1 -2.04441375517552  0.38050049674968  3.63069183448345
 1 -5.53578436563656 -1.20168830003000  2.19853414641464
 1 -5.86788554925492 -3.09602370697070  1.79484233053305
 1 -6.83497087388739 -1.87110275367537  1.04908126982698
 1  2.46100223962396  0.92626256815682  1.73315092639264
 1  1.01310126162616  1.55364760906091  2.92970094379438
 1  0.27838609620962  0.47210157995800 -0.25452748504850
 1  4.40208592779278 -1.59825288428843 -3.05475107700770
 1  3.95328615841584 -2.64471625082508 -1.69085619361936
 1 -5.55265740414041 -2.05919684428443 -2.91254471827183
 1  5.36317423872387 -1.11781226112611 -0.14357113341334
 1  5.73057449874988 -0.06882387848785 -1.51025550805081
 1  3.96423633513351  0.47677416951695 -4.15566379587959
 1  3.30197594919492  2.21996307500750 -3.63460579597960
 1  2.26174196349635  0.76933143104310 -4.35345849784978
 1  0.81945585558556  2.79462095859586 -2.75156604860486
 1 -7.12781186728673 -3.68649083298330 -0.78997801900190
 1 -7.79675794069407 -3.25160649114911 -2.60898395189519
 1  3.76932065956596  3.47225658665867  3.64070732493249
 1 -0.47100097889789  4.48980025952595 -2.95446334173417
 1 -3.91979056865687  4.50815739753975 -0.66770792229223
 1 -3.84465321502150  3.79694448804880  1.06468728012801
 1 -2.95315363156316  5.25437572867287  0.61013678357836
 1  8.44088978247825 -2.05836899109911 -0.77028766376638
 1 -1.68977190179018  6.47583804090409 -3.19558441064106
 1 -2.76323867676768  6.05609698549855 -1.48779468696870

