%nproc=4
%Mem=3GB
# td=(NStates=1) B3LYP/SVP 

TD

0 1
 8 -3.35340225042504 -1.52633768926893 -2.81570222452245
 8  2.81274172897290  3.16071773027303  3.12496676757676
 8  3.79554386258626  1.48408553685369  4.28123256685669
 8  7.69143774667467 -1.66562267646765 -0.71022178397840
 8  6.74859901630163 -3.00609140404040 -2.17069351745174
 8 -2.54990589708971  1.66581207030703  1.50616067656766
 7 -0.29280502670267 -2.45548186248625  0.93453829462946
 7 -2.74494653265327 -1.10975611061106 -0.68382052665267
 7  1.19637118651865  0.20837174687469 -0.64991992919292
 7 -1.02855200070007  1.39409481738174 -0.20643154105411
 6 -3.34994014371437 -1.23781134353435  0.64648162206221
 6 -2.62600122622262 -2.33363750995099  1.60424573137314
 6 -1.23368901060106 -2.08624643864386  1.79543753235324
 6 -0.56923672597260 -1.19085027672767  2.81801982248225
 6  0.81543265586559 -1.11607660866087  2.46808800340034
 6  0.96314900110011 -1.87125356005601  1.25670047404740
 6 -4.74753970057006 -1.79664531323132  0.24754164146415
 6  1.86692128352835 -0.45664599419942  3.18701085558556
 6 -4.88451481288129 -2.02747145554555 -1.05039538003800
 6  2.07406536293629 -1.87352554475448  0.34635691439144
 6  2.05564158605861 -0.91056296849685 -0.67770167166717
 6 -3.57609227912791 -1.50746271157116 -1.69523680708071
 6  3.05829689288929 -0.62729347764776 -1.72257615651565
 6 -1.35513408560856 -0.59446330333033  3.95801130943094
 6 -5.74590981508151 -2.09198567886789  1.35595660126013
 6  2.63161281818182  0.40694806300630 -2.43610822082208
 6  1.84309374177418  1.08159385138514  2.75146178777878
 6  1.35394876137614  0.94055070367037 -1.73619972597260
 6  4.23658900800080 -1.60353978307831 -2.04440407050705
 6 -5.85448978507851 -2.58883097349735 -1.99098254645465
 6  5.44799035003500 -1.18458020322032 -1.19329274617462
 6  3.29623971937194  1.24878328092809 -3.64072058125813
 6  0.54577700180018  2.05914106100610 -2.03030477557756
 6  2.93805244554455  1.80915050055005  3.41750709590959
 6 -0.56309014061406  2.26357098929893 -1.27000228812881
 6 -6.90995492199220 -3.39908367246725 -1.75028358705871
 6  6.67588715831583 -2.04081233633363 -1.39384007400740
 6 -1.48026668146815  3.44732696589659 -1.34330240494049
 6 -2.39273336273627  3.44839531853185 -0.19835774197420
 6 -1.97052932533253  2.11999293279328  0.46129506150615
 6 -1.26907688608861  4.62630889108911 -2.20612238023802
 6 -3.45210584708471  4.43326380928093  0.23340758045805
 6 -1.79201309250925  5.76963238143814 -2.15220895369537
 1 -3.49677817101710 -0.25141063096310  1.23744794939494
 1 -2.74731635803580 -3.26476160116012  0.96656700580058
 1 -3.26048586838684 -2.30181362576258  2.56347573627363
 1 -0.49143444824482 -2.96686545164517  0.06372338233823
 1 -2.04254264396440 -0.17597390089009 -0.78246234863486
 1  1.78054601600160 -0.39802125592559  4.26154825392539
 1  2.98877621052105 -0.86932882418242  3.06524145354535
 1  2.84342315621562 -2.61250283318332  0.33335638883888
 1 -2.02205483478348 -1.38500777477748  4.29532659445945
 1 -0.62629239723972 -0.09078328192819  4.59292564906491
 1 -1.89883919771977  0.18782122882288  3.32749151445145
 1 -5.62991377857786 -1.44126225742574  2.23198749174917
 1 -5.47345610631063 -3.03630773537354  1.76966981328133
 1 -6.70281765856586 -2.03600924432443  0.95436179787979
 1  2.12052819221922  0.99900984288429  1.61990960226023
 1  0.86207615911591  1.48997124142414  2.69403737743774
 1  0.27117537513751  0.54451882168217 -0.12567459975998
 1  4.64366008520852 -1.56963002200220 -3.01091669356936
 1  3.89674050385038 -2.56624840404040 -1.77473458145815
 1 -5.62151428982898 -2.26538746334633 -2.99661312511251
 1  5.38891681298130 -1.19768024792479 -0.02336911321132
 1  5.74212565386539 -0.17853484958496 -1.55799028152815
 1  4.61050096159616  1.14281077317732 -3.78017624712471
 1  2.97558330993099  2.46178725742574 -3.46795913131313
 1  2.61872766206621  0.86859135703570 -4.58565171717172
 1  0.94574848484848  2.75143664016402 -2.85844673667367
 1 -7.19675876197620 -3.77892007590759 -0.70551957315732
 1 -7.71532979787979 -3.65918724922492 -2.54920797429743
 1  3.53304703220322  3.65655501650165  3.63845709990999
 1 -0.39092297109711  4.33194447394739 -3.07992588798880
 1 -4.26302489208921  4.27841442324232 -0.79973112461246
 1 -3.92856160586059  3.96908170177018  1.04715552695270
 1 -2.94793310951095  5.49868015911591  0.75284105400540
 1  8.49208490199020 -2.29283243744374 -0.65191582658266
 1 -1.72284520912091  6.48371882898290 -2.85246009820982
 1 -2.56832918581858  6.00804218001800 -1.25560146764676

