%nproc=4
%Mem=3GB
# td=(NStates=1) B3LYP/SVP 

TD

0 1
 8 -3.25685259545955 -1.50710576607661 -2.85902655695570
 8  2.96223667846785  3.26112777127713  3.32792706360636
 8  3.80120442864286  1.34323145144514  4.22791723532353
 8  7.69501810471047 -1.54646076027603 -0.84929569136914
 8  6.62735689208921 -3.11261205610561 -1.96919336743674
 8 -2.70275118161816  1.67805329442944  1.39647970847085
 7 -0.33020876707671 -2.30242655695570  0.86526136693669
 7 -2.67797983598360 -1.38321345634563 -0.66985913051305
 7  1.16306785618562  0.13440435013501 -0.69986492369237
 7 -1.00184933043304  1.45966137403740 -0.23299419731973
 6 -3.43252840254025 -1.42469003140314  0.59674664856486
 6 -2.62477110321032 -2.28983312951295  1.60186549334933
 6 -1.27446308800880 -1.98131594559456  1.80778876747675
 6 -0.51825162746275 -1.09716090779078  2.73796181668167
 6  0.75235634823482 -1.14011901290129  2.41605279987999
 6  0.89572225842584 -1.86561299599960  1.20453525752575
 6 -4.76191113771377 -1.91307695639564  0.24356124342434
 6  1.94600919231923 -0.44481481108111  3.16533868836884
 6 -4.85515187658766 -2.12647135553555 -1.07823816431643
 6  2.01545950235024 -1.86971516371637  0.25445772447245
 6  2.12588861076108 -0.85988790099010 -0.60663456495650
 6 -3.48771344124412 -1.66747871317132 -1.67886516991699
 6  3.07092815601560 -0.66845759405941 -1.76507040594059
 6 -1.24950352255226 -0.57772162916292  3.90098560686069
 6 -5.80852607670767 -2.18797527782778  1.45248625422542
 6  2.52502215911591  0.52143951215122 -2.40755536553655
 6  1.93541297369737  1.12870856285629  2.79449609120912
 6  1.29147251375138  0.92029867846785 -1.77626373237324
 6  4.29963531263126 -1.40639006810681 -2.06568619871987
 6 -5.85645998209821 -2.57993008340834 -2.05574902310231
 6  5.40386593759376 -1.19081082628263 -1.06907032393239
 6  3.12138223362336  1.23222162476248 -3.64863137233723
 6  0.51752417651765  2.05340048694869 -1.98743048814882
 6  2.98050669096910  1.89591917741774  3.53398874407441
 6 -0.65999983158316  2.25331996419642 -1.26869215711571
 6 -6.96530045654565 -3.29033279737974 -1.70655921462146
 6  6.67616718631863 -2.01786004110411 -1.37735842584258
 6 -1.33736239103910  3.54534676787679 -1.21269934463446
 6 -2.29766385578558  3.41865234423442 -0.25206311251125
 6 -2.02367463986399  2.09979091259126  0.41239017101710
 6 -1.18465844424442  4.52524878507851 -2.23355512351235
 6 -3.29123976047605  4.44748523142314  0.31458569826983
 6 -1.74898879007901  5.77107252545255 -2.27237096989699
 1 -3.51489998319832 -0.32856834673467  1.00078428302830
 1 -2.97715934233423 -3.29128425342534  1.29872022112211
 1 -3.34206402620262 -2.33013645804580  2.61702109080908
 1 -0.53859916471647 -2.84970373547355  0.13364037403740
 1 -2.24171256095610 -0.44266056955696 -0.99339344174417
 1  1.93274123552355 -0.63510496429643  4.28800089918992
 1  2.96711404430443 -0.98076996829683  2.80856578597860
 1  2.63050186408641 -2.73257484038404  0.27727078027803
 1 -2.03156578587859 -1.21062033603360  4.50780784258426
 1 -0.55954572257226 -0.21526573017302  4.60464682118212
 1 -1.86196551035104  0.16020846754675  3.62853161846185
 1 -5.55087587478748 -1.61280941214121  2.41729602260226
 1 -5.51049981068107 -3.32008611321132  1.77628047434743
 1 -6.77072444924492 -1.93098874227423  1.03137949964997
 1  1.98876501590159  1.42188213011301  1.68830644194419
 1  0.93843379487949  1.43043528782878  2.87115508920892
 1  0.07683594119412  0.20457482728273 -0.06416844914491
 1  4.40625634483448 -1.00350340934093 -3.28106370827083
 1  4.04257508730873 -2.46871865106511 -1.83577068506851
 1 -5.41651378977898 -2.39691061566157 -3.18972243604360
 1  5.03397131843184 -1.29533001290129  0.03848707240724
 1  5.73842528382838  0.04701770567057 -0.87108159065907
 1  4.21127103860386  0.70837732983298 -3.90290852035204
 1  3.33643939553955  2.25633671237124 -3.46467880328033
 1  2.33837962726273  1.12592709060906 -4.53393654565456
 1  0.56630054005401  2.92549404590459 -2.79981087308731
 1 -7.10933001910191 -3.39322150605061 -0.59216823802380
 1 -7.77409567446745 -3.50765209570957 -2.48090114361436
 1  3.57804153165317  3.83156251725173  3.83816707090709
 1 -0.50448432723272  4.39362064156416 -2.90065796119612
 1 -4.14220280988099  4.78067464926493 -0.27808896039604
 1 -3.89585833553355  4.14238903250325  1.32640345174517
 1 -2.76622493869387  5.27622791389139  0.69174494439444
 1  8.34235992949295 -2.34213736793679 -1.00549118411841
 1 -1.35236816141614  6.51184164126413 -3.24057891009101
 1 -2.32214456735674  6.15787716351635 -1.50773668116812

