%nproc=4
%Mem=3GB
# td=(NStates=1) B3LYP/SVP 

TD

0 1
 8 -3.25638254845485 -1.52719777527753 -2.88072872717272
 8  3.03274372917292  3.03615527402740  3.02731700260026
 8  3.60832514071407  1.37489461776178  4.50359480308031
 8  7.67238584148415 -1.64705081928193 -0.51997275907591
 8  6.71898605500550 -2.90220101500150 -2.25961240934093
 8 -2.66856776327633  1.77026251535154  1.48362842334233
 7 -0.31541728792879 -2.50717703200320  0.83008784958496
 7 -2.61730376837684 -1.21234636963696 -0.61260340494049
 7  1.19349089848985  0.14053496319632 -0.72306724392439
 7 -1.10501964746475  1.50565597349735 -0.19592048994899
 6 -3.43731888158816 -1.28757632003200  0.66082305620562
 6 -2.68615724182418 -2.20087423362336  1.67037234403440
 6 -1.21717735943594 -2.06619443344334  1.79152714131413
 6 -0.47019682198220 -1.22593378507851  2.78097611811181
 6  0.77930904350435 -1.23476847784778  2.43320451505151
 6  0.92393507970797 -1.96103253795380  1.11121592559256
 6 -4.72863781038104 -1.85901154985499  0.21135802310231
 6  1.93422801420142 -0.47671800140014  3.10105225972597
 6 -4.69391575297530 -2.03613232163216 -1.16281662216222
 6  2.09927788418842 -1.96472466466647  0.31463374207421
 6  2.04446046794680 -0.90952286448645 -0.62322622412241
 6 -3.47992266216622 -1.56335830113011 -1.70733801720172
 6  3.04422548574858 -0.64233498179818 -1.66709060796080
 6 -1.20801937413741 -0.45705956295630  3.83137864616462
 6 -5.78968419251925 -1.96154263456346  1.27544855045505
 6  2.57181683858386  0.51680904910491 -2.41445605560556
 6  1.99368880128013  1.03342903490349  2.66603324492449
 6  1.43949731623162  0.97041368996900 -1.72331843784378
 6  4.23755910501050 -1.46297572667267 -2.07421705180518
 6 -5.82360669676968 -2.59982207260726 -1.97465091329133
 6  5.42388793979398 -1.17433917911791 -1.15307872477248
 6  3.17431752715272  1.20792919551955 -3.58847535673567
 6  0.55339776387639  2.11100624752475 -1.94495624072407
 6  2.92145078537854  1.79918950445044  3.57225257045705
 6 -0.71209504110411  2.23937857005701 -1.24994028192819
 6 -6.89371329782978 -3.32182594669467 -1.52559111781178
 6  6.70157972757276 -2.03962221732173 -1.33079376937694
 6 -1.44302295709571  3.53653588678868 -1.20579865456546
 6 -2.34051814121412  3.50399087808781 -0.10471837803780
 6 -2.08679095149515  2.14059499299930  0.49281821382138
 6 -1.29144912331233  4.60860712091209 -2.28561032903290
 6 -3.37665830233023  4.36476695959596  0.37327156685669
 6 -1.99883377457746  5.68365378357836 -2.56147988078808
 1 -3.51878037123712 -0.40393588348835  1.37259146374637
 1 -2.82737436383638 -3.28373349834983  1.43149349844985
 1 -3.09835965576558 -2.35653909830983  2.72788217691769
 1 -0.70902620742074 -2.77810657575758 -0.09844283428343
 1 -2.09728811851185 -0.38323462696270 -0.60128423082308
 1  1.78477643904390 -0.62422387618762  4.11261336043604
 1  2.97576490939094 -0.74780667196720  2.51315624502450
 1  2.85465427932793 -2.83680526342634  0.25262831603160
 1 -1.80397302660266 -1.10744001800180  4.36327338913891
 1 -0.55091485948595 -0.19810401400140  4.58443479998000
 1 -1.90736004980498  0.31543399009901  3.65661442674267
 1 -5.56672745994599 -1.40034816601660  1.93857815081508
 1 -5.65181394209421 -2.95196930153015  1.63960680698070
 1 -6.80357773457346 -1.87904354775478  0.84607096879688
 1  2.33513965336534  1.28030797269727  1.78711632293229
 1  1.09980993249325  1.45449769406941  2.80914888858886
 1  0.32435069266927  0.18768313811381 -0.17976000830083
 1  4.67667338653865 -1.25617867686769 -3.16904250615061
 1  3.89637046684668 -2.50249202840284 -1.94447155515552
 1 -5.62318445684568 -2.20413133773377 -2.88027149094909
 1  5.10933885518552 -1.15242572247225 -0.15947272357236
 1  5.67640908220822 -0.17417441354135 -1.32605708820882
 1  4.00386029752975  0.69870636273627 -4.21648987848785
 1  3.59645539713971  2.11495257395740 -3.62771510691069
 1  2.37682347164716  1.23289778767877 -4.35629878187819
 1  0.85319922992299  2.80551204770477 -2.62656354835484
 1 -6.72003108920892 -3.51807399129913 -0.33991301250125
 1 -7.83746201110111 -3.56465779627963 -2.13741679517952
 1  3.62544627212721  3.43851321232123  3.69178243244324
 1 -0.38879275807581  4.40676195569557 -2.96837473287329
 1 -4.38477706730673  4.16067264906491 -0.35026617811781
 1 -3.73511226092609  4.01570636423642  1.38096890829083
 1 -3.22933124932493  5.65589588068807  0.34907067696770
 1  8.36823251675168 -2.24162731693169 -0.97707834283428
 1 -1.58378130273027  6.34221467856786 -3.56065091729173
 1 -2.92444479737974  5.93464484028403 -2.02248815631563

