%nproc=4
%Mem=3GB
# td=(NStates=1) B3LYP/SVP 

TD

0 1
 8 -3.26829373957396 -1.51183623912391 -2.88403905820582
 8  2.86344679947995  3.12366402490249  3.07940221112111
 8  3.66635094329433  1.39615674397440  4.20321476507651
 8  7.76979558245825 -1.68588470267027 -0.73392415421542
 8  6.46438059445945 -3.17130792569257 -1.81638808690869
 8 -2.63554446094609  1.57845333443344  1.47692775327533
 7 -0.29889563576358 -2.38307462176218  0.89404424522452
 7 -2.69951198919892 -1.21192632763276 -0.58177032163216
 7  1.12915446484648  0.03524443414341 -0.69989492669267
 7 -0.97951709720972  1.45031043894389 -0.29805070297030
 6 -3.39869501920192 -1.30761832423242  0.60937791169117
 6 -2.66351497759776 -2.22324647084708  1.65552085888589
 6 -1.14935057675768 -2.01604941894189  1.88753674227423
 6 -0.47040684298430 -1.37118831053105  2.81229925042504
 6  0.90655176777678 -1.16131113211321  2.39206040064006
 6  0.95400808700870 -1.87431386608661  1.12918772277228
 6 -4.72914786138614 -1.82884853355336  0.20832772007201
 6  1.87349194059406 -0.39509983958396  3.14430658515852
 6 -4.78672503390339 -1.98913762216222 -1.05686602710271
 6  2.11419937633763 -1.84378257045705  0.34032631133113
 6  2.11592761466147 -0.88373028522852 -0.62430633213321
 6 -3.61248591849185 -1.58286025132513 -1.66667395079508
 6  3.10928199139914 -0.61300204850485 -1.77440133903390
 6 -1.11465003720372 -0.62330618761876  4.03090859915992
 6 -5.89324454855486 -2.03175965626563  1.22182318791879
 6  2.61713137003700  0.57180454865487 -2.43245785578558
 6  1.90305973837384  0.94552024402440  2.57385402700270
 6  1.34535790229023  1.04873152175218 -1.63810991699170
 6  4.31299664876488 -1.28420784988499 -2.05509513961396
 6 -5.81757609370937 -2.47236932733273 -1.91565501370137
 6  5.59717526852685 -0.95587733293329 -1.23232664956496
 6  3.20426052145215  1.24372277487749 -3.61271778097810
 6  0.56360878497850  2.06165131203120 -2.00135188028803
 6  2.91052969326933  1.79483906940694  3.35554089928993
 6 -0.56652048364836  2.34885951815182 -1.15403069096910
 6 -6.95348927542754 -3.13442720682068 -1.63782234093409
 6  6.57207677727773 -2.03260151525152 -1.32089277927793
 6 -1.40648930373037  3.51741397459746 -1.23141121582158
 6 -2.38651274067407  3.29439991899190 -0.23241114731473
 6 -2.06583885628563  2.08361929542954  0.47706663866387
 6 -1.24449442784278  4.53835009520952 -2.10896266426643
 6 -3.44567520402040  4.21320180308031  0.23028726842684
 6 -1.96079997119712  5.67380279847985 -2.38283201600160
 1 -3.57974646784678 -0.28005349524952  1.29880408500850
 1 -2.82156378277828 -3.22047717271727  1.50378072717272
 1 -3.17813763356336 -2.08147159155916  2.56930631933193
 1 -0.52600790559056 -3.00451921702170  0.05456246624662
 1 -2.09509789948995 -0.45120142364236 -0.62706680908091
 1  1.82671063246325 -0.49133058685869  4.26395849494949
 1  2.90569790269027 -0.92109400070007  2.97930285968597
 1  2.81324013791379 -2.41571315421542  0.45482853605361
 1 -1.64153678297830 -1.36574584858486  4.65770283208321
 1 -0.41463123112311 -0.12295649924993  4.70691704820482
 1 -1.80465977977798  0.12913536023602  3.53178194349435
 1 -5.57603839103910 -1.37505563676368  2.04640893389339
 1 -6.02306106680668 -3.11100520512051  1.50756360266027
 1 -6.70857823462346 -1.44551019441944  0.78445480718072
 1  2.26317245664567  0.87082702460246  1.56681429272927
 1  0.95522547404740  1.65465771007101  2.40744871857186
 1  0.18468672627263  0.18560293009301 -0.11913394569457
 1  4.39299501870187 -1.29604266326633 -3.07227282918292
 1  4.00275110491049 -2.33119489868987 -1.93629073707371
 1 -5.66329846824682 -2.14627555215522 -2.99507297109711
 1  5.18953687498750 -1.17306778667867 -0.06605338163816
 1  5.89521096239624  0.11314431833183 -1.28282276477648
 1  3.95661557305731  0.61017750985098 -4.20146837633763
 1  3.33942969456946  2.46128720742074 -3.30273260866087
 1  2.49097488678868  1.45750024792479 -4.42050520252025
 1  0.71591550155015  2.96847834433443 -2.69052994499450
 1 -7.43263234933493 -3.45423760766077 -0.63116213741374
 1 -7.45216348124812 -3.63029435993599 -2.42104515801580
 1  3.41780550805081  3.49169853085309  3.64658791299130
 1 -0.19255313411341  4.63383466296630 -2.83087098249825
 1 -4.20169875947595  4.30084666646665 -0.62618376987699
 1 -4.11997074677468  3.49496429002900  1.03995480688069
 1 -2.98792710891089  5.19587987908791  0.64561033093309
 1  8.56238193169317 -2.18607176137614 -0.85654628962896
 1 -1.44586751135113  6.42400285738574 -3.10539539173917
 1 -3.05176752965296  5.90991236703670 -2.12686859435944

