%nproc=4
%Mem=3GB
# td=(NStates=1) B3LYP/SVP 

TD

0 1
 8 -3.27560447064706 -1.13812886838684 -2.76061671597160
 8  3.28628908370837  3.01084274277428  2.85465973687369
 8  3.63396770497050  1.39532666096610  4.53456790039004
 8  7.69016761966197 -1.59386550075008 -0.46997775957596
 8  6.67582173857386 -2.92738353325333 -2.08466491459146
 8 -2.66195710221022  1.80280576967697  1.46383644414441
 7 -0.12429817601760 -2.45441175547555  0.88160300110011
 7 -2.66771880988099 -1.20922605760576 -0.51829397399740
 7  1.06477802720272 -0.09664875517552 -0.82407734493449
 7 -1.18414756025603  1.38367377527753 -0.19490038793879
 6 -3.40608575827583 -1.50498806120612  0.76263323722372
 6 -2.58973759985999 -2.50454460066007  1.59258456525653
 6 -1.16784242594259 -2.01694950895090  1.73328131673167
 6 -0.57705750805080 -1.19750094179418  2.69714773527353
 6  0.75624673727373 -1.15115011601160  2.45937713231323
 6  1.00290297649765 -1.89264569926993  1.16187099109911
 6 -4.74621956855686 -1.94944059275928  0.33314020132013
 6  1.77948253965397 -0.46602693229323  3.22938509300930
 6 -4.73452981438144 -1.96573528192819 -1.06983732423242
 6  2.20261821822182 -1.92379057125713  0.33674595329533
 6  2.05305132703270 -0.96792870507051 -0.67529143064306
 6 -3.57080175007501 -1.34826679197920 -1.63721100450045
 6  2.96533759695970 -0.63611435973597 -1.81985588448845
 6 -1.26569514171417 -0.68017187418742  4.03075858415842
 6 -5.84429965406541 -2.21934841514151  1.31400240584058
 6  2.50400005690569  0.46692406060606 -2.40322493249325
 6  2.07884731713171  1.04900059205921  2.57200384198420
 6  1.27718108460846  0.77244389298930 -1.77345345134513
 6  4.27599294839484 -1.39635906500650 -1.98578820892089
 6 -5.83619795589559 -2.29508159855986 -1.95759920812081
 6  5.54732028302830 -0.97134888008801 -1.13185660256026
 6  3.12394248964896  1.37407581018102 -3.54032054125413
 6  0.39753217731773  1.89888503540354 -1.98301004610461
 6  3.11253989428943  1.81196078157816  3.48676402160216
 6 -0.73693752535254  2.26211084328433 -1.18839412731273
 6 -6.92292621912191 -3.07258102220222 -1.71391995069507
 6  6.73105267486749 -2.01418967406741 -1.36082677267727
 6 -1.45238389318932  3.52562479567957 -1.24810288498850
 6 -2.34449853925393  3.45407588658866 -0.25205311151115
 6 -2.12972524492449  2.09901083458346  0.39192812481248
 6 -1.19535951435144  4.57855411561156 -2.29574134213421
 6 -3.41796243274327  4.28729921282128  0.17368160786079
 6 -1.98797268846885  5.61895731393139 -2.62223595639564
 1 -3.66399489268927 -0.66660215011501  1.53712791739174
 1 -2.50538216461646 -3.64384950995099  1.14089443854385
 1 -2.99199901970197 -2.68922236663666  2.58179756845685
 1 -0.38747405220522 -2.87681644674467 -0.07077006700670
 1 -2.12275066476648 -0.25288159165917 -0.70105420782078
 1  1.52968092949295 -0.50322177597760  4.42500459955996
 1  2.75053238613861 -1.08248013931393  3.48102303170317
 1  2.93648246214621 -2.70479206210621  0.21351440464046
 1 -2.11321395069507 -1.13173244724472  4.43269033083308
 1 -0.42097186518652 -0.68014221782178  4.81176753325333
 1 -1.68351766556656  0.38484093079308  3.74081284658466
 1 -5.65228601580158 -1.91344947614762  2.37343163616362
 1 -5.96366512721272 -3.25317942254225  1.43818666496650
 1 -6.81196857365737 -1.92782842624262  0.79153551525153
 1  2.35040117951795  1.03155309720972  1.69339695099510
 1  1.11808175967597  1.65038728302830  2.59579755345535
 1  0.41866012361236  0.17973234303430 -0.07034906720672
 1  4.47025274447445 -1.36733979297930 -3.12507810971097
 1  4.17240807060706 -2.44341612081208 -1.68974608260826
 1 -5.72269440784078 -1.79397032163216 -3.03841730553055
 1  5.10300822212221 -0.87919839973997 -0.21174795109511
 1  5.86112755405540  0.07093009690969 -1.46140062256226
 1  4.13415332683268  1.00261675377538 -3.98863709320932
 1  3.31731748334834  2.51741281998200 -3.15088742414241
 1  2.61139692899290  1.25770026792679 -4.56479963196320
 1  0.78091200120012  2.55364686118612 -2.79149004100410
 1 -7.42623170927093 -3.41577376127613 -0.77812683388339
 1 -7.66882514741474 -3.34985631613161 -2.46828988248825
 1  3.86814054155416  3.49167852885289  3.48352160636064
 1 -0.38770264906491  4.46694797429743 -3.00214811021102
 1 -4.10269885948595  4.41240782258226 -0.63154430593059
 1 -3.87929667936794  3.90741553515352  1.19967077847785
 1 -3.11455977217722  5.47092738383838  0.31770754065407
 1  8.54386007950795 -2.05975913011301 -0.38018865386539
 1 -1.78892181678168  6.35069552665266 -3.41250610281028
 1 -3.00128248114811  5.71611298709871 -2.00106601410141

