%nproc=4
%Mem=3GB
# td=(NStates=1) B3LYP/SVP 

TD

0 1
 8 -3.19969687988799 -1.50659571507151 -2.90424107840784
 8  3.12162261706171  3.12170382888289  3.17465173607361
 8  3.57417172537254  1.41425855415542  4.41648609220922
 8  7.68820742364236 -1.89467558175818 -0.67243800560056
 8  6.56550070647065 -3.10830162506251 -2.29734618271827
 8 -2.69633053955396  1.66386187528753  1.35353541404140
 7 -0.21908765496550 -2.39065537983798  0.94657949874988
 7 -2.76723876187619 -1.19691482648265 -0.61908405300530
 7  1.07522907230723  0.14865577527753 -0.77556249344934
 7 -0.97113625912591  1.49618502640264 -0.20392129002900
 6 -3.24620977067707 -1.32256981938194  0.66807378127813
 6 -2.63513213931393 -2.33605775197520  1.61445675247525
 6 -1.18576421812181 -1.96945475947595  1.73635162376238
 6 -0.58498830113011 -1.18730992269227  2.85211323182318
 6  0.73930504310431 -1.04411941294129  2.47863905850585
 6  0.96395908210821 -1.76262269696970  1.27538234223422
 6 -4.71546649324933 -1.86527217591759  0.19689657695770
 6  1.80121471287129 -0.19232956255626  3.13610576507651
 6 -4.83397975937594 -2.09807851625163 -1.08989933043304
 6  2.07505546194619 -1.85229342154215  0.30737301600160
 6  2.09354537643764 -0.86618853105311 -0.62086598809881
 6 -3.54979964986499 -1.58007997329733 -1.75407269066907
 6  3.07528859205921 -0.61636238453845 -1.69545344424442
 6 -1.30642921512151 -0.52093595059506  3.93309881818182
 6 -5.71023624772477 -2.32985946624662  1.25967697329733
 6  2.47515717261726  0.56827419561956 -2.44497910791079
 6  1.78661809420942  1.20832652465247  2.77569421102110
 6  1.27903126962696  0.95373202180218 -1.77684379037904
 6  4.23394874397440 -1.46843627272727 -2.06163579367937
 6 -5.77119145524552 -2.57598968936894 -1.96690013821382
 6  5.45954150515051 -1.21212295749575 -1.21105452235224
 6  3.18000809620962  1.22286068866887 -3.49439594879488
 6  0.52585500960096  2.04657980488049 -2.02733447854785
 6  2.91358999929993  1.87486707220722  3.50882622782278
 6 -0.58164199579958  2.31674630683068 -1.23356864476448
 6 -6.85585951245125 -3.40794455855586 -1.61305986468647
 6  6.64499406900690 -2.10154840994099 -1.51085177517752
 6 -1.45662431723172  3.49454168736874 -1.20463853855386
 6 -2.31689577897790  3.46798727772777 -0.22165007120712
 6 -2.01257352975298  2.10778171167117  0.40780971297130
 6 -1.12014199259926  4.62202846304630 -2.18687045504550
 6 -3.29095973247325  4.36323680658066  0.36678091779178
 6 -1.91403529472947  5.69457487568757 -2.26358009080908
 1 -3.37020551375137 -0.37491298119812  1.22316652125213
 1 -2.76252787918792 -3.42066719171917  1.10152050115012
 1 -3.13523334313431 -2.19022246664666  2.48701809050905
 1 -0.45603090789079 -2.90290905600560 -0.07462045204520
 1 -2.13080146984698 -0.36368267176718 -0.82658676107611
 1  1.86981494289429 -0.48992044584458  4.14149624872487
 1  2.77805513841384 -0.87180907220722  3.01350628002800
 1  3.02243105700570 -2.42284386728673  0.48671172437244
 1 -2.13070569986999 -1.12593186718672  4.24651171297130
 1 -0.58965873387339 -0.24754895849585  4.76117247374737
 1 -1.82620193399340  0.46796924362436  3.65243400870087
 1 -5.49655044224422 -1.93136126732673  2.27964225722572
 1 -5.49565832653265 -3.45791989658966  1.47645049134913
 1 -6.73635101190119 -2.11033667706771  1.09296565826583
 1  1.82260840024002  1.61854179607961  1.75981359265927
 1  0.88019797129713  1.93056530083008  3.04039201290129
 1  0.27462572017202  0.40394476427643 -0.03969600190019
 1  4.62017773697370 -1.60795385438544 -3.22789839173917
 1  3.88504933473347 -2.52507428662866 -1.88291539953995
 1 -6.03549568796880 -2.16625755035504 -2.90785424922492
 1  5.07324524582458 -1.37956843674367 -0.02506928322832
 1  5.60134157545755 -0.16169316541654 -1.29919440194019
 1  4.02084199569957  0.76772326442644 -3.88682691219122
 1  3.39604535613561  2.32626370507051 -3.39387172257226
 1  2.51322711201120  1.35387988588859 -4.45291844384438
 1  0.98199210921092  2.81184268076808 -2.85406629862986
 1 -6.79494858095810 -3.89836202010201 -0.73980300150015
 1 -7.52617088198820 -3.40179150965097 -2.47183023652365
 1  3.71343507100710  3.52059142014201  3.79512276647665
 1 -0.34215809460946  4.42988426792679 -2.86787468286829
 1 -4.04846343594359  4.79303588538854 -0.32669382088209
 1 -3.89242799249925  3.92700749434944  1.10645145654565
 1 -2.93860217641764  5.25313560466047  0.94752052195220
 1  8.43057875137514 -2.51856501070107 -0.72853348834884
 1 -1.74848777337734  6.34553501060106 -3.25075992819282
 1 -2.72970532343234  6.11821319711971 -1.56108201570157

