%nproc=4
%Mem=3GB
# td=(NStates=1) B3LYP/SVP 

TD

0 1
 8 -3.24867177737774 -1.35232028752875 -2.85823647794779
 8  3.05550600540054  3.08480013851385  3.16967123802380
 8  3.69352366056606  1.37404453275328  4.39313375697570
 8  7.75039364226423 -1.44315042924292 -0.81896265806581
 8  6.68294245064506 -3.08440923582358 -1.97809425752575
 8 -2.69445035153515  1.69240472957296  1.39714977547755
 7 -0.30614636083608 -2.44123043734373  0.95947078787879
 7 -2.63347538553855 -1.22974810981098 -0.62665481008101
 7  1.11528307770777  0.11594250395040 -0.78623356055606
 7 -1.00070921642164  1.46436184408441 -0.19831072897290
 6 -3.37863301300130 -1.39704726712671  0.64773174707471
 6 -2.58786741284128 -2.36861100730073  1.59280458725873
 6 -1.20791643334333 -1.98290610461046  1.89719770837084
 6 -0.66201600390039 -1.18289948164816  2.88452647314731
 6  0.74071518411841 -1.08421342234223  2.51886308090809
 6  0.91041372757276 -1.92392882758276  1.27188199219922
 6 -4.68382332893289 -1.93161881058106  0.27785467276728
 6  1.90572516391639 -0.44043437303730  3.14455661016102
 6 -4.78136449784979 -1.95805451385138 -1.08386872737274
 6  2.09252720912091 -1.82304049624962  0.34922720142014
 6  2.11139716161616 -0.87046895909591 -0.64472837433743
 6 -3.54685935583558 -1.49124108940894 -1.71910919431943
 6  3.05821688488849 -0.70066081438144 -1.74130802970297
 6 -1.30364893709371 -0.49295315231523  3.98661416971697
 6 -5.63940916501650 -2.23233971427143  1.28285929152915
 6  2.57319697659766  0.38414578277828 -2.48178278827883
 6  1.84515394779478  1.09918561056106  2.87074371597160
 6  1.39816318281828  0.88282493109311 -1.88753485948595
 6  4.25379072817282 -1.51597102620262 -2.06491612171217
 6 -5.83306764286429 -2.38794088448845 -1.96304975317532
 6  5.41058660966097 -1.14146589178918 -1.19483290019002
 6  3.22649274467447  1.15474387698770 -3.62911942114211
 6  0.56400882498250  1.95915106200620 -2.13405515061506
 6  2.96363500380038  1.81912149764976  3.54178952415242
 6 -0.57482131373137  2.18242287448745 -1.31239652755276
 6 -7.01707563406341 -2.99166293039304 -1.64192275097510
 6  6.63902347194719 -1.97108536363636 -1.41125181518152
 6 -1.38131678647865  3.51090332353235 -1.24790286498650
 6 -2.31730581998200  3.41375185418542 -0.25209311551155
 6 -2.03546581898190  2.07379831333133  0.40033896589659
 6 -1.37273725212521  4.53073933413341 -2.33900566856686
 6 -3.53271390789079  4.15553603650365  0.21344558425843
 6 -1.86446033723372  5.78518393659366 -2.26591032383238
 1 -3.37764625782578 -0.48240373027303  1.22533673827383
 1 -2.52968459485949 -3.32344746974697  1.08023837293729
 1 -3.25360518031803 -2.75953939833983  2.46142553125313
 1 -0.51115642044204 -2.75389415451545  0.07822483248325
 1 -1.96928531823182 -0.43527983148315 -0.63552765516552
 1  1.98367632903290 -0.62471392519252  4.20459255835584
 1  2.87504483738374 -0.83700559185919  2.83156808620862
 1  2.81815062896290 -2.56517810071007  0.51988504170417
 1 -1.82655528482848 -1.37078635263526  4.52393945574557
 1 -0.58923869186919  0.08957475387539  4.67777413391339
 1 -1.95482479627963  0.27672011871187  3.65944470977098
 1 -5.52884367156716 -1.84337246844684  2.25835012801280
 1 -5.53570233093309 -3.38013211781178  1.48027087338734
 1 -6.70253763056306 -1.99884552795280  0.79438580028003
 1  1.78485462486249  1.36701664356436  1.78001561286129
 1  0.87943789528953  1.74155639993999  3.28298627232723
 1  0.09518777637764  0.44498886868687 -0.39879191149115
 1  4.53430915011501 -1.62916597559756 -3.08997459935994
 1  4.03672450225022 -2.51268304750475 -2.05399250725073
 1 -5.76691883028303 -1.93719464406441 -2.88091155495550
 1  5.30206812811281 -1.07315779567957  0.09010223392339
 1  5.61639308060806 -0.02189918601860 -1.47084156665667
 1  3.91774168566857  0.49799629172917 -4.28225645514551
 1  4.04057980958096  1.93193427212721 -3.12230456585658
 1  2.52778856815682  1.87678217611761 -4.27286043804380
 1  0.95181909190919  2.78079957645765 -2.61769266126613
 1 -6.97216630273027 -3.56664884878488 -0.79530855205520
 1 -7.85837410231023 -3.29437076757676 -2.33424647814781
 1  3.70556428392839  3.37578693969397  3.98609186338634
 1 -0.83955783458346  4.13645492499250 -3.36391428682868
 1 -4.33152174177418  4.43074965676568 -0.37359851135113
 1 -4.11950069976998  3.62373716731673  0.99235004640464
 1 -3.08449676587659  5.18471876297630  0.47323309320932
 1  8.60231592509251 -2.05779893409341 -1.23613424842484
 1 -2.01165409000900  6.39950040714071 -3.12721757395740
 1 -2.23470582348235  6.27362873867387 -1.14921082858286

