%nproc=4
%Mem=3GB
# td=(NStates=1) B3LYP/SVP 

TD

0 1
 8 -3.10456736693669 -1.35564061956196 -2.83502415671567
 8  3.25853630843084  3.06149780828083  2.94371864276428
 8  3.49836414461446  1.55916304460446  4.66419086268627
 8  7.64771337423742 -1.61204731893189 -0.65090585238524
 8  6.68561271767177 -3.01914270917092 -2.10825727382738
 8 -2.77174808130813  1.62711820092009  1.36532659315932
 7 -0.22498824502450 -2.48270458475848  0.91752659345935
 7 -2.69056109410941 -1.10263539853985 -0.66854899949995
 7  1.07579912931293  0.03924483418342 -0.68413335053505
 7 -1.02429157465747  1.43028843674367 -0.16045694359436
 6 -3.28896404610461 -1.33212077447745  0.63626059996000
 6 -2.61027965406541 -2.34042818901890  1.59862516931693
 6 -1.19172481418142 -2.05870368436844  1.86170415901590
 6 -0.53680348264826 -1.19350054175418  2.89510753125313
 6  0.77573868646865 -1.12190719171917  2.53628482308231
 6  0.99154184038404 -1.93606004070407  1.25535033903390
 6 -4.67544249084909 -1.84794044274427  0.17236412371237
 6  1.99255384678468 -0.45546587618762  3.09521167566757
 6 -4.74114047544755 -2.00833954235424 -1.13858419891989
 6  2.21210916731673 -1.92469066126613  0.39271154985499
 6  2.10448647054705 -0.92464437663766 -0.66127002850285
 6 -3.46329099899990 -1.59187115241524 -1.69676696009601
 6  2.95789685288529 -0.63126387468747 -1.78125202410241
 6 -1.32094066626663 -0.55601945894589  3.92755826412641
 6 -5.78239346344635 -1.99708618891889  1.27350835643564
 6  2.49806946384638  0.48536590479048 -2.44222883288329
 6  2.08933836623662  1.15029072107211  2.58557519911991
 6  1.31063442994299  0.89673632223222 -1.82880898689869
 6  4.13199854895490 -1.47941737083708 -2.09056868696870
 6 -5.79395373147315 -2.51210330073007 -2.03348679687969
 6  5.43043859485949 -1.12550429562956 -1.17929134603460
 6  3.03997409280928  1.04881328392839 -3.62618912811281
 6  0.49379180328033  1.94083923082308 -2.01112285738574
 6  2.98215685598560  1.90089967546755  3.58458380358036
 6 -0.70312414401440  2.27812244444444 -1.25882117001700
 6 -6.89612353885389 -3.17831159525953 -1.70844940364036
 6  6.54436400600060 -2.04698295339534 -1.36538722872287
 6 -1.46008466326633  3.52147438063806 -1.27079515421542
 6 -2.41935602500250  3.34245472447245 -0.19001690789079
 6 -1.99408168056806  2.09324025752575  0.41634056605661
 6 -1.34081405980598  4.55844210441044 -2.20155192319232
 6 -3.50610124662466  4.34347483038304  0.24996923662366
 6 -1.83818770997100  5.79697511571157 -2.10552428522852
 1 -3.43883237643764 -0.34934042394239  1.08174237883788
 1 -2.56685831223122 -3.45778090309031  1.24110445954595
 1 -3.01830164996500 -2.18023146754676  2.50280966966697
 1 -0.30288559335934 -2.94037280238024 -0.09149213921392
 1 -1.75004339403940 -0.65176147964796 -0.73423752615262
 1  1.76761472287229 -0.39995144894489  4.29997209630963
 1  2.92891022392239 -0.80736262756276  2.94964989438944
 1  2.88462727662766 -2.81280286318632  0.34397745094509
 1 -2.12905553485348 -1.04985425942594  4.41567862966297
 1 -0.62155192319232 -0.38070227382738  4.88054441094109
 1 -1.62739205300530  0.28819126582658  3.41767053235324
 1 -5.67561834903490 -0.90924905610561  1.92228652165217
 1 -5.54900366106611 -2.95672977757776  1.97171001730173
 1 -6.72004938173817 -2.03611925532553  0.80158652035204
 1  2.30060620002000  1.20792073397340  1.54002161346135
 1  1.16250620212021  1.78568081238124  2.74033200690069
 1  0.22967122472247  0.24231860166017 -0.16905893819382
 1  4.40738645784579 -1.45628868786879 -3.21271687358736
 1  3.79013984378438 -2.63972575177518 -2.14068117611761
 1 -5.49887202560256 -2.44458538313831 -3.07278074187419
 1  4.99856777807781 -1.10456093599360 -0.14305108140814
 1  5.77704914621462 -0.14349134523452 -1.61870635313531
 1  3.90958086958696  0.64662115421542 -4.00420865036504
 1  3.50054580618062  2.20295137383738 -3.51223355875588
 1  2.43815960526053  1.37874237213721 -4.49989314131413
 1  0.61904581458146  2.63141463796380 -2.89323021502150
 1 -7.00410949704971 -3.53315549944995 -0.70692971417142
 1 -7.69565783068307 -3.44232556305631 -2.54946800030003
 1  3.86459018651865  3.49426878787879  3.64752800700070
 1 -0.85060893969397  4.14228550805080 -3.07057495289529
 1 -4.20816940654065  4.62021860366037 -0.55848700020002
 1 -4.10424917461746  3.68017281088109  0.99671048244825
 1 -3.19611792799280  5.35438572967297  0.75461123102310
 1  8.26776246974697 -2.24029718391839 -0.75653628862886
 1 -1.74455738033803  6.63064352145215 -2.78424327652765
 1 -2.36650900380038  6.09239061486149 -1.22008791629163

