%nproc=4
%Mem=3GB
# td=(NStates=1) B3LYP/SVP 

TD

0 1
 8 -3.31377828802880 -1.42731778727873 -2.89515016931693
 8  2.73975443024302  3.24418607710771  3.47118138903890
 8  3.81813612181218  1.50583771207121  4.25965040864086
 8  7.76578518141814 -1.45856197039704 -0.75384614641464
 8  6.72798695509551 -3.10170096499650 -1.97161360946095
 8 -2.65863677017702  1.66838232733273  1.38964902540254
 7 -0.13951969816982 -2.39674598889889  0.88799364016402
 7 -2.75448748674867 -1.09485462046205 -0.69091123572357
 7  1.14932648204820 -0.07983707400740 -0.68245318251825
 7 -1.00156930243024  1.49198460636064 -0.18796969486949
 6 -3.32352750245024 -1.35252281468147  0.60113708760876
 6 -2.56420504660466 -2.45384953115312  1.48622392919292
 6 -1.15138077977798 -2.07580539453945  1.72709069766977
 6 -0.52080188248825 -1.30613180488049  2.77931595209521
 6  0.81751286388639 -1.11378637963796  2.48326952155216
 6  1.04618730493049 -1.87413384808481  1.23026783078308
 6 -4.76098104470447 -1.88375402410241  0.33623051035104
 6  1.93278787018702 -0.38475880548055  3.21788394289429
 6 -4.83284964636464 -2.05360406880688 -1.01935227572757
 6  2.14318227462746 -1.91682987518752  0.28846112481248
 6  2.13621964386439 -1.01946385858586 -0.70919482098210
 6 -3.59256392629263 -1.50371233653365 -1.71716900030003
 6  3.00465152835284 -0.67064781308131 -1.83852775167517
 6 -1.33958253045305 -0.58888274527453  3.85029053735374
 6 -5.79687491159116 -2.08975545584558  1.42065307090709
 6  2.44918457535754  0.43022039023902 -2.49826443644364
 6  1.81640107250725  1.06911260326033  2.82885952755276
 6  1.29869323582358  0.84206085468547 -1.71182728872887
 6  4.26604195329533 -1.45083451255126 -2.07161679177918
 6 -5.88464280038004 -2.46476856725673 -1.91227467566757
 6  5.47285283628363 -0.97430917611761 -1.26342975987599
 6  3.05006510191019  1.05454385698570 -3.67872438163816
 6  0.54653707780778  1.94641978887889 -1.99334107920792
 6  2.88268690899090  1.86825641114111  3.56192153735374
 6 -0.59167299889989  2.25098973117312 -1.18912420032003
 6 -7.06436036253625 -3.12724648874888 -1.63399195789579
 6  6.68410798039804 -2.01615987108711 -1.37537822782278
 6 -1.40551920672067  3.50712294549455 -1.29677775247525
 6 -2.33954804420442  3.49116959595960 -0.26673457965797
 6 -2.01409368176818  2.14480541404140  0.43205213721372
 6 -1.08566854525453  4.49705596579658 -2.36481824982498
 6 -3.45393603010301  4.31311179407941  0.27828206790679
 6 -1.68520241144114  5.74539995819582 -2.22531626442644
 1 -3.34453294649465 -0.45042053195320  1.23789799439944
 1 -2.50395202160216 -3.46696182118212  1.06941729082908
 1 -3.02891271107111 -2.56035948034804  2.51679106780678
 1 -0.28850415521552 -2.73312207730773  0.06477348734874
 1 -2.19703809350935 -0.31652795629563 -0.67602170457046
 1  1.66968492989299 -0.40825227902790  4.27866996609661
 1  2.83682101500150 -0.87066895819582  3.08989391879188
 1  3.00971978587859 -2.68892047494749  0.18439149234924
 1 -2.04146677597760 -1.14218349234923  4.42557961976198
 1 -0.83159292729273 -0.16421062466247  4.60743710021002
 1 -1.69264857865787  0.18830127682768  3.26726549184919
 1 -5.73170395759576 -1.59869800100010  2.24919921292129
 1 -6.02777153785379 -3.27060116471647  1.63298614491449
 1 -6.79039641644164 -1.65708135153515  0.88190455215522
 1  1.85990212961296  1.04790473237324  1.54843245454545
 1  0.74585453695369  1.47315956025603  3.05921389508951
 1  0.20229848744874  0.11424579437944 -0.09827185948595
 1  4.47385310451045 -1.68098115711571 -3.16754235613561
 1  4.17512834263426 -2.57140892009201 -1.75596270427043
 1 -5.88838097649765 -2.05805673027303 -3.07250071387139
 1  5.47491541284128 -1.05497597749775 -0.16849362566257
 1  5.77524896619662 -0.09164616071607 -1.79015349784978
 1  3.84566447794780  0.44862135423542 -4.14167239673968
 1  3.47708345994599  2.12318339703970 -3.50671300670067
 1  2.13993978327833  1.14004850275027 -4.37129028102810
 1  0.66166007600760  2.43347484398440 -2.95820671267127
 1 -7.23880296639664 -3.40903308720872 -0.65474449564957
 1 -7.96951521642164 -3.35934726522652 -2.39099215271527
 1  3.33491721922192  3.61764112511251  4.10488374257426
 1 -0.40593447224723  4.29293057255726 -3.22001989738974
 1 -4.19785837543754  4.70889747154716 -0.53568471997200
 1 -4.14073282298230  3.59699449304930  0.81225203660366
 1 -2.80441875807581  5.18211850295029  1.17027279717972
 1  8.59399509300930 -1.80771392559256 -1.06217685268527
 1 -1.27070999559956  6.46451690879088 -3.05391024322432
 1 -2.27476982988299  6.03001437723772 -1.38344425192519

