%nproc=4
%Mem=4GB
# td=(NStates=1) B3LYP/SVP 

TD

0 1
 8 -5.24386061606161  0.27609304890489 -3.25525531523152
 8  3.18361836733673  2.93739099379938  2.97191326972697
 8  3.41130947954795  0.72601800080008  2.91987387248725
 8  1.71464910441044 -7.23493976407641  1.35476398269827
 8  0.50590547854785 -7.01308773237324 -0.51853983688369
 8  1.73696074417442  4.01388451125112  0.13387289468947
 7 -2.33422303340334 -0.95931436163616  0.55447246384638
 7 -4.37964284568457  0.66854452095209 -1.09832818761876
 7  1.82185257685769 -0.63948552155216 -0.37214569216922
 7  2.53590913281328  1.89018476397640 -0.56103284998500
 6 -4.82507889908991  1.18815031203120  0.15887168696870
 6 -4.35350274307431  0.18024819011901  1.34067142484248
 6 -2.90008510411041 -0.07019676297630  1.35662767576758
 6 -2.03044214091409  0.71096605380538  2.14731790139014
 6 -0.64625123542354  0.11240580508051  1.78546922452245
 6 -0.99899408720872 -0.87109016791679  0.77465928532853
 6 -6.29344170027003  1.25855364466447 -0.11017623302330
 6  0.62045065166517  0.41436211271127  2.56291531163116
 6 -6.63779429392939  0.84377362576258 -1.33680940964096
 6 -0.14328058415842 -1.86930566746675  0.16183826532653
 6  1.05086198239824 -1.81228077467747 -0.25935751795180
 6 -5.40592119241924  0.51794000870087 -2.10309762126213
 6  2.00399448464846 -2.85190572897290 -0.76069307860786
 6 -2.15077077797780  1.91479723662366  3.01265565576558
 6 -7.31713920712071  1.55779390859086  1.00423440934093
 6  3.10807714141414 -2.39364931613161 -1.32859410451045
 6  1.22523855115512  1.75886437983798  2.44602823872387
 6  2.99127720302030 -0.92585121072107 -1.10181416961696
 6  1.47415118531853 -4.31663762816282 -0.93130484738474
 6 -7.94895080108011  0.54306594419442 -2.07007539533953
 6  1.58712627822782 -5.09402033663366  0.37588358385839
 6  4.19669527852785 -3.04796326512651 -1.93631286258626
 6  3.90943181378138  0.08277768126813 -1.45965064746475
 6  2.73568418961896  1.71969955815582  2.83659955985599
 6  3.73011738953895  1.45227063856386 -1.09372593989399
 6 -9.25665064846485  0.60621278157816 -1.60086490179018
 6  1.13473853855386 -6.45165181538154  0.32544120312031
 6  4.61467030163016  2.63423017791779 -1.36159324242424
 6  3.96199546794680  3.73770429412941 -0.96135743004300
 6  2.62566413721372  3.29324717581758 -0.42627138983898
 6  5.91203480878088  2.45767060766077 -1.91350330543054
 6  4.30281590139014  5.16929180498050 -1.06827884128413
 6  6.80930098769877  3.37504318911891 -2.37656213311331
 1 -4.47735222132213  2.19530061016102  0.26638967926793
 1 -5.11272592949295 -0.78136961306131  1.07121186538654
 1 -4.59772661256126  0.41298529822982  2.44062097179718
 1 -2.80128916881688 -1.50140753625363 -0.10426734853485
 1 -3.48662966026603  1.14744666176618 -1.47180473137314
 1  0.20749518421842  0.12103241524152  3.59269881798180
 1  1.41262527192719 -0.41369603700370  2.30725585838584
 1 -0.65310397129713 -2.87844530953095 -0.16812180988099
 1 -3.20616076137614  2.20835209930993  2.95854584428443
 1 -1.77910912601260  1.69172853675367  3.99229761766177
 1 -1.65923230433043  2.89678349814981  2.54585200700070
 1 -6.98849230013001  2.18485728922892  1.95851808480848
 1 -7.76129589658966  0.57583739293929  1.31634864556456
 1 -8.08058399559956  2.15646172927293  0.49383786398640
 1  1.13743645204520  2.06673871047105  1.38638670597060
 1  0.75710882338234  2.29049587158716  3.12613843804380
 1  1.79277360376038  0.53478412341234 -0.22303766906691
 1  1.85472326452645 -4.83892772317232 -1.84830944064406
 1  0.22848464596460 -4.35881572907291 -1.26983546694669
 1 -7.74808587038704  0.23454368496850 -2.99768570677068
 1  1.33214540344034 -4.57279845954595  1.26854443104310
 1  2.57517378747875 -5.22595980048005  0.64782259715972
 1  4.03391845414541 -4.16215366756676 -2.34263772487249
 1  5.14983608200820 -3.14583343354335 -1.30321393899390
 1  4.57791922502250 -2.49907213981398 -2.84343341694169
 1  4.82048166766677 -0.10922301680168 -2.05513168886889
 1 -9.42100570107011  0.88626608210821 -0.48863155295530
 1 -9.90174830843084  0.32814423012301 -2.26483258325833
 1  4.05524021052105  2.80856424012401  3.14227899359936
 1  6.23048651685168  1.44117626682668 -2.19957877287729
 1  5.35282598239824  5.21374413861386 -0.76532515241524
 1  4.36109813231323  5.58408517421742 -2.15870841574157
 1  3.50660833043304  5.66344595099510 -0.38848058965897
 1  1.41622893099310 -8.21572272937294  1.42003805870587
 1  7.69168161256126  3.10565610551055 -2.96470374367437
 1  6.63224511201120  4.38777428962896 -2.02157450995099

