%nproc=4
%Mem=4GB
# td=(NStates=1) B3LYP/SVP 

TD

0 1
 8 -5.35194142414241  0.18020345994599 -3.30600038973897
 8  2.95760576607661  2.94595184988499  3.28363444184418
 8  3.33527187578758  0.77820321932193  2.90284216931693
 8  1.84198183768377 -7.21133740384038  1.48520702700270
 8  0.69534442244224 -7.04570099369937 -0.46255423832383
 8  1.63827087518752  4.01967509030903  0.01400090749075
 7 -2.37284689578958 -0.98207663786379  0.61021803840384
 7 -4.28372325372537  0.62727039353935 -1.18972732753275
 7  1.75890628222822 -0.68906047904790 -0.47176565416542
 7  2.52216775867587  1.98969471497150 -0.54639138583858
 6 -4.73119951115112  1.11954345134513  0.05674147394739
 6 -4.34279167196720  0.21329149444944  1.31556891459146
 6 -3.03211830743074 -0.06237598089809  1.36301831483148
 6 -2.00050914761476  0.63318827602760  2.14199736933693
 6 -0.71306791709171 -0.02569800530053  1.80190086768677
 6 -0.97944213201320 -1.01523458235824  0.85787760716072
 6 -6.22283463956396  1.44662245154515 -0.17145236063606
 6  0.64377298389839  0.19635031153115  2.54402342244224
 6 -6.61458197269727  0.93581282968297 -1.28919464816482
 6 -0.20497675377538 -2.00134887178718  0.20391247274727
 6  1.06394329052905 -1.85276482308231 -0.30199178137814
 6 -5.39048964926493  0.49683789848985 -2.07976528802880
 6  1.92995708090809 -2.90222076047605 -0.93991100040004
 6 -2.15835153605361  1.68718447534753  3.23364775497550
 6 -7.07641513471347  1.91677980718072  0.92402638853885
 6  3.06162249594959 -2.27848779998000 -1.31471271637164
 6  1.05932195949595  1.63027152055206  2.55776941284128
 6  2.98727680298030 -0.93137176277628 -1.12198618681868
 6  1.60440421062106 -4.35811177557756 -0.94344606150615
 6 -7.89235514151415  0.72777441504150 -2.01263965176518
 6  1.84113167876788 -5.02072300690069  0.36637263276328
 6  4.22602821182118 -3.00181865066507 -2.02756198749875
 6  3.97749862046205  0.12088149164917 -1.38837351975198
 6  2.54857547874787  1.72281987018702  2.93986988688869
 6  3.66842121992199  1.42208762026203 -1.13147971527153
 6 -9.15258024142414  0.93572573287329 -1.55324013931393
 6  1.41225629032903 -6.52025867606761  0.39787844684468
 6  4.54548338293829  2.63765051995200 -1.53235031813181
 6  3.87635690409041  3.73068359205921 -1.15378667296730
 6  2.46676824762476  3.30150800190019 -0.41944070677068
 6  5.84207781308131  2.39551439203920 -2.06496845194519
 6  4.28606422622262  5.18965384118412 -0.96773878727873
 6  6.71432148974897  3.27593327812781 -2.52768724562456
 1 -4.25491997809781  2.13546462656266  0.34692773307331
 1 -4.93990864776478 -0.72095357145715  1.36357110131013
 1 -4.64459129902990  0.89301330103010  2.19021593129313
 1 -2.67608664856486 -1.57248464396440 -0.23923084488449
 1 -3.34220521782178  0.66399831693169 -1.58725627652765
 1  0.24815925062506 -0.25964565256526  3.44195374347435
 1  1.41210521992199 -0.39234390179018  2.15164029682968
 1 -0.73809247014702 -2.99415688068807  0.08033303560356
 1 -3.16831697699770  2.24822608670867  3.10906089578958
 1 -1.89555077017702  1.30126949084908  4.21448983688369
 1 -1.71540792189219  2.67956177597760  3.14568198999900
 1 -6.33188663956396  2.28662746624662  1.75731796479648
 1 -7.80598036503650  1.04573438263826  1.38881589228923
 1 -7.61718765596560  2.98735481858186  0.47383586378638
 1  0.96644935333533  2.13198523512351  1.47349541684168
 1  0.70194330683068  2.44730155215522  3.18047387158716
 1  1.36912123852385  0.28900954595460 -0.34018938423842
 1  2.43476126832683 -5.00420425082508 -1.61327593729373
 1  0.53205500300030 -4.46469631713171 -1.15138362176218
 1 -7.64065512731273  0.53926415701570 -3.17935387358736
 1  1.46104829372937 -4.68056923662366  1.39197677427743
 1  2.82670894099410 -5.06489369386939  0.66650446534654
 1  3.96706176847685 -3.99396684888489 -2.16113957505751
 1  5.04145524392439 -2.99498834903490 -1.40773439103910
 1  4.45171660476048 -2.40739297189719 -2.93421249484948
 1  5.03060267976798 -0.07364945944594 -1.92839901560156
 1 -9.39923352385239  1.20331778727873 -0.50088277807781
 1 -9.97465559915992  1.09303071877188 -2.41538763876388
 1  3.96028071457146  2.99589297299730  3.20766553225323
 1  6.26631009920992  1.31478362756276 -2.12180099509951
 1  5.22802350215022  5.13188595279528 -0.37885650555056
 1  4.44225624812481  5.78664543024302 -1.94172671757176
 1  3.35040270987099  5.76807641404140 -0.28940068166817
 1  1.14634194229423 -7.98546970407041  1.36519257415742
 1  7.78507095149515  3.06071161106111 -3.01267854115412
 1  6.58183007050705  4.39330484268427 -2.42094444694470

