%nproc=4
%Mem=4GB
# td=(NStates=1) B3LYP/SVP 

TD

0 1
 8 -5.39195542554255  0.00685612521252 -3.20334012371237
 8  2.85352535803580  3.11916917161716  3.27181325972597
 8  3.27161551015101  0.89373477247725  3.05510739583958
 8  1.46203384288429 -7.06540281038104  1.49362786908691
 8  0.67051193919392 -7.02593901750175 -0.66565454835484
 8  1.74137118521852  3.97631075387539 -0.02752324492449
 7 -2.34352396349635 -0.91559999019902  0.55003201980198
 7 -4.34113899529953  0.59559722622262 -1.26089444424442
 7  1.87020741234123 -0.72459403240324 -0.53044152175218
 7  2.71231677357736  1.91395714121412 -0.47299404610461
 6 -4.78902529372937  1.14923642064206  0.02892869266927
 6 -4.36676406920692  0.25755592089209  1.29988734643464
 6 -2.90112520812081 -0.01823156645665  1.39257127012701
 6 -1.94304340104010  0.69918487568757  2.09060222982298
 6 -0.73305991629163  0.07034159865987  1.79030970857086
 6 -0.97405159295930 -0.88760181908191  0.74156597599760
 6 -6.31842419851985  1.22215000430043 -0.06898211361136
 6  0.58731733833383  0.24476515301530  2.60958997909791
 6 -6.65691620612061  0.93024227262726 -1.37634336303630
 6 -0.18359461556156 -1.87813655055506  0.10194227572757
 6  1.15510240644064 -1.75893544014401 -0.41862344454445
 6 -5.42572317261726  0.43318153285329 -2.08751606310631
 6  1.96465055025503 -2.90350088848885 -1.02162917221722
 6 -2.21285698659866  1.76810256715672  3.02215660586059
 6 -7.04476196939694  1.81201933113311  1.07138112401240
 6  3.14954128782878 -2.40984093529353 -1.39771101620162
 6  0.96148217551755  1.74587308070807  2.72637627352735
 6  3.04812288758876 -0.98216684228423 -1.17083107130713
 6  1.54161793199320 -4.29234519891989 -1.02859457635764
 6 -7.95710161616162  0.75833747134713 -1.98351673947395
 6  1.67336490209021 -5.03719465406541  0.36680267576758
 6  4.22822843184318 -3.10723919271927 -2.01707093839384
 6  3.92798366896690  0.03562296579658 -1.38818350075007
 6  2.55051567276728  1.86879446764676  2.98013391329133
 6  3.76340071787179  1.41382679417942 -1.08149471677168
 6 -9.15225020842084  0.47014917521752 -1.32298711401140
 6  1.21250631533153 -6.54431108130813  0.34249290829083
 6  4.66672550715072  2.64682143704370 -1.45408249134914
 6  3.94825409380938  3.71890241394139 -0.99638093239324
 6  2.74215578637864  3.30226807790779 -0.39928869156916
 6  5.92824642994299  2.35615045564556 -2.10914286938694
 6  4.34941056085609  5.18702357815782 -1.01422343574357
 6  6.92522257985799  3.29532521732173 -2.45952042894289
 1 -4.29114360046005  2.27992907300730  0.15666870717072
 1 -4.98369302620262 -0.45736721282128  1.16833157735774
 1 -4.74401124102410  0.76768076777678  2.23619052875288
 1 -2.79129816971697 -1.29124652015202 -0.12380930273027
 1 -3.40720171747175  0.58144006110611 -1.63861141204120
 1  0.29801423612361  0.00756106810681  3.75004455255526
 1  1.43434744414441 -0.52168683608361  2.25777090989099
 1 -0.71167982888289 -2.68867633263326 -0.27656265396540
 1 -3.28390853615362  1.78551981608161  3.33927391709171
 1 -1.83940515561556  1.51910127402740  4.06226461436144
 1 -1.66347272837284  2.63326714651465  3.01599902170217
 1 -6.45678912981298  2.51112991649165  1.46576880988099
 1 -7.31483125012501  1.01289109830983  1.85644265496550
 1 -8.17682361956196  2.11017710081008  0.75792427262726
 1  0.92229493789379  2.26351838843884  1.88020608790879
 1  0.43333644614461  2.48075489748975  3.46814263846385
 1  1.62405673207321  0.16434707970797 -0.32701806710671
 1  2.07721551375138 -4.85717954835483 -1.72564717441744
 1  0.45246704420442 -4.21984183168317 -1.24930341374137
 1 -8.05303636543654  0.69811004160416 -3.13282922112211
 1  1.02850503940394 -4.45717689738974  0.93093066966697
 1  2.79564583468347 -5.15736294079408  0.53900171507151
 1  3.86953201550155 -4.04890234243424 -2.22861632273227
 1  5.22785388378838 -3.00680953115312 -1.52913653125313
 1  4.33419485258526 -2.63202543514351 -2.98947802140214
 1  4.73945356485649 -0.30637273177318 -2.06472264796480
 1 -9.06909050955096  0.31950940644064 -0.17552024182418
 1 -10.15082321592159  0.52301371707171 -1.98653475347535
 1  3.85257994449445  3.15363874757476  3.59437420312031
 1  6.10242371057106  1.32587473667367 -2.42778159315932
 1  5.28376907670767  5.38987175137514 -0.48531715161516
 1  4.62040406290629  5.62950971667167 -1.86002854775478
 1  3.36140380998100  5.88603821022102 -0.72935467706771
 1  1.14085139323932 -8.06293745084508  1.51837789268927
 1  7.80903334773477  2.87624316421642 -2.98347562086209
 1  7.02725461296130  4.42274778697870 -2.22506485898590

