%nproc=4
%Mem=4GB
# td=(NStates=1) B3LYP/SVP 

TD

0 1
 8 -5.14195042504250 -0.05407996839684 -3.26976676637664
 8  3.00402040754075  2.79955721042104  3.20901698009801
 8  3.47168551715172  0.60033543254325  3.00075196029603
 8  1.75555319481948 -7.23172944304430  1.30390889718972
 8  0.38915380338034 -6.87707413101310 -0.46809479237924
 8  1.84627167526753  4.03399652245225  0.29147865526553
 7 -2.42385199629963 -0.97044547474747  0.71712872947295
 7 -4.25210009140914  0.62955062156216 -1.16805516031603
 7  1.75771616321632 -0.62456402940294 -0.45922440004000
 7  2.68474401630163  1.91147689318932 -0.39975672237224
 6 -4.85348173937394  1.24817631463146  0.05016081588159
 6 -4.43152054485449  0.48058822412241  1.28226558425843
 6 -2.97056215181518  0.08533879057906  1.44522653565357
 6 -2.00732982968297  0.55214017121712  2.23063623322332
 6 -0.74854146444644  0.06239080358036  1.82496317391739
 6 -1.01188537633763 -1.01996505540554  0.84403622302230
 6 -6.27040939703970  1.28396618591859 -0.18908412381238
 6  0.60023863046305  0.15061573807381  2.47600662076208
 6 -6.63706422092209  0.88870811921192 -1.44238996769677
 6 -0.21617787388739 -1.97216595349535  0.22749483098310
 6  1.11343824002400 -1.80669021562156 -0.28243982618262
 6 -5.35832643294329  0.40820903560356 -2.12494980648065
 6  1.99142322752275 -2.86069660806081 -0.85928293759376
 6 -2.23199890079008  1.67341309820982  3.24722911311131
 6 -7.09883737693769  1.89547767696770  0.82386637253725
 6  3.09108544224422 -2.22866281748175 -1.33930517561756
 6  1.20802682998300  1.60674916831683  2.72976661256126
 6  3.01628970427043 -0.83673229882988 -1.07992198039804
 6  1.59417318751875 -4.37372333673367 -0.82361407830783
 6 -7.94741064706471  0.72567420502050 -2.12589097689769
 6  1.71318888448845 -5.06122705730573  0.49502549804980
 6  4.31077668666867 -3.04969343814381 -1.89330856215622
 6  3.87423829442944  0.14546394989499 -1.38060274267427
 6  2.64896551775177  1.52004959315932  2.97073297319732
 6  3.78248262606261  1.56459187068707 -1.13039960726073
 6 -9.13157814121412  0.74672683298330 -1.62226704200420
 6  1.25493055775578 -6.45721237143714  0.33802246124612
 6  4.54577341194119  2.71895865076508 -1.56680376347635
 6  3.85579484788479  3.79824034773477 -1.17950924522452
 6  2.68401997279728  3.34497234833483 -0.34990375307531
 6  5.75103870917092  2.42949779037904 -2.35077703280328
 6  4.19201482128213  5.27558243404340 -1.21436344974497
 6  6.56006606420642  3.43525921072107 -2.74958943584358
 1 -4.68120260636064  2.35135621572157  0.16533957425743
 1 -4.99125378227823 -0.50004148024802  1.27192193639364
 1 -4.67416425632563  1.00715471517152  2.22144905460546
 1 -2.77437647754776 -1.61735913141314  0.09889296749675
 1 -3.22470346764676  0.70187210431043 -1.59513706460646
 1  0.60444487918792 -0.36688637663766  3.68186773487349
 1  1.29188319771977 -0.46998166556656  1.94724985778578
 1 -0.74124278517852 -2.96588405340534 -0.30058505620562
 1 -3.33921406670667  1.89742100620062  3.30605059475948
 1 -1.95305652075208  1.15482484638464  4.35407379527953
 1 -1.58205458655866  2.59723354315432  3.18279570137014
 1 -6.64491794269427  2.94436323982398  1.35236746974698
 1 -7.20186995399540  1.16935674487449  1.69554656535654
 1 -8.26766270347035  2.01763784688469  0.35647412761276
 1  1.19842255065507  2.20935297189719  1.84610267756776
 1  0.71791490399040  2.29769659165917  3.53710953515352
 1  1.35988031443144  0.26961760676068 -0.12469783508351
 1  2.56637442964296 -4.73330716111611 -1.41210582028203
 1  0.65113691119112 -4.66526637413741 -1.42984146754675
 1 -7.89605066686669  0.68337856845685 -3.29495543374337
 1  1.05393758265827 -4.53404458415842  1.21147872447245
 1  2.73067933803380 -5.17329453395339  0.85842365726573
 1  4.08525358765877 -4.22283973617362 -2.05911937303730
 1  5.19116021442144 -2.91451030123012 -1.27899151675167
 1  4.41270270337034 -2.52833506610661 -2.94907398099810
 1  4.74678429792979 -0.19383147764776 -2.11780795649565
 1 -9.41311491199120  0.52141959745975 -0.44210690049005
 1 -10.03279141274127  0.90999241494149 -2.38235433543354
 1  3.87813249974998  2.90903428712871  3.44864963066307
 1  6.03022649084908  1.45710785998600 -2.68014682968297
 1  5.09835053485348  5.53674643884388 -0.35081370127013
 1  4.66202822532253  5.61662842854285 -2.19050159505951
 1  2.99620729032903  5.77039664606461 -1.00694243584358
 1  1.46374368246825 -8.28783994109411  1.21758781368137
 1  7.53527597199720  3.29650519041904 -3.27149442274227
 1  6.58198008550855  4.52906841904190 -2.40984333683368

