%nproc=4
%Mem=3GB
# td=(NStates=1) B3LYP/SVP 

TD

0 1
 8 -3.13736064626463 -1.36094114961496 -2.91800245454545
 8  3.15277573237324  3.28175983448345  3.05853012391239
 8  3.51929623782378  1.45336246454645  4.55235967956796
 8  7.65753435633563 -1.71349746394639 -0.81644240604060
 8  6.45926008240824 -3.27125792069207 -1.86311275937594
 8 -2.52414332083208  1.58848433753375  1.48901896239624
 7 -0.21431717791779 -2.43841015531553  0.95983082388239
 7 -2.68238027602760 -1.16548168316832 -0.67592973757376
 7  1.11774332373237  0.14659556925693 -0.71965690289029
 7 -1.04265341084108  1.41434684258426 -0.26485738363836
 6 -3.28831398109811 -1.29958752115212  0.59233620752075
 6 -2.64909353545355 -2.36880102630263  1.52733804060406
 6 -1.19575521722172 -2.01630944494449  1.73804179277928
 6 -0.57000680298030 -1.20194138583858  2.76242426292629
 6  0.79581069366937 -1.15500050105010  2.49099029362936
 6  0.97936062226223 -1.81901833653365  1.27912271627163
 6 -4.63476842344234 -1.90580622932293  0.22935982328233
 6  1.90069466086609 -0.32976330593059  3.18840099459946
 6 -4.66999336073607 -2.04200290869087 -1.07586792729273
 6  2.15849380578058 -1.84206239843984  0.32314459315932
 6  2.02730875277528 -0.82077398959896 -0.73032693419342
 6 -3.45076974687469 -1.49938190349035 -1.78211549494949
 6  3.02759382258226 -0.69879062736274 -1.85638953785379
 6 -1.27847641984198 -0.46365022202220  3.85466097439744
 6 -5.67596282038204 -2.14935141544154  1.29702070767077
 6  2.60481013791379  0.47657502570257 -2.43694830483048
 6  1.89743917631763  1.20349604160416  2.76046268786879
 6  1.39034240074007  0.95826247484748 -1.84919102510251
 6  4.19098444754475 -1.49132856195620 -2.01099072917292
 6 -5.77316165226523 -2.52396448684868 -1.97013046124612
 6  5.41449700070007 -1.12284402960296 -1.18576199309931
 6  3.12738283368337  1.11983038563856 -3.71805831503150
 6  0.45126755085509  1.98923407030703 -2.08994073917392
 6  2.93479211951195  1.96088567406741  3.59355470067007
 6 -0.63315714731473  2.30948558075808 -1.24687997589759
 6 -6.89174310081008 -3.24549831393139 -1.70351891059106
 6  6.51044061366137 -2.14788304340434 -1.39791048104810
 6 -1.49304795959596  3.49321155435544 -1.22407048174817
 6 -2.33818790819082  3.34239471847185 -0.11459936613661
 6 -2.01974424682468  2.10679161266127  0.48913784578458
 6 -1.39675965436544  4.59575583578358 -2.21219298729873
 6 -3.40563119961996  4.19235971887189  0.32947718741874
 6 -1.97127101830183  5.80191560976098 -2.04052778557856
 1 -3.41235972917292 -0.35857134703470  1.04646885148515
 1 -2.84230585698570 -3.45501062606261  1.18504885398540
 1 -3.13979379917992 -2.48343178757876  2.55117450615062
 1 -0.44859016381638 -2.94195296039604  0.08696570657066
 1 -1.87108549824982 -0.55146144964496 -0.83737784018402
 1  1.94974293569357 -0.21450290409041  4.34210630973097
 1  2.70432776567657 -0.86586847814782  2.87318224762476
 1  2.90040885478548 -2.72773435633563  0.28638169136914
 1 -2.32424505380538 -0.90338961296130  3.99931699349935
 1 -0.55837560556056 -0.43755795939594  4.80306666316632
 1 -1.50043935773577  0.63877632433243  3.59114788008801
 1 -5.36373716091609 -1.78284641584158  2.37964225722572
 1 -5.77989675037504 -3.22022612721272  1.63699654595460
 1 -6.56558393519352 -1.74072971637164  0.77154351605161
 1  2.17032317171717  1.25799574147415  1.72564017531753
 1  0.85617556905691  1.72250449474947  2.68347632133213
 1  0.20461871947195  0.36379074887489 -0.15290732303230
 1  4.44999071827183 -1.13111617061706 -3.11829743164316
 1  4.02786361616162 -2.50435221442144 -2.00243735173517
 1 -5.59159129752975 -2.26622754735474 -2.90723418721872
 1  5.27509543084309 -1.02036251615162  0.00354357805781
 1  5.89001044234423 -0.09103609970997 -1.50999548204820
 1  4.09690960246025  0.62743923602360 -4.05655388488849
 1  3.31410716231623  2.16166724542454 -3.30257259265927
 1  2.32254804410441  1.51487598549855 -4.37197034903490
 1  0.53495740574057  2.65189668616862 -2.93733462546255
 1 -7.24262334843484 -3.73094527842784 -0.85544456565657
 1 -7.60012827772777 -3.32280361086109 -2.54322737623762
 1  3.88408213571357  3.77849721072107  3.60474372857286
 1 -0.84768864766477  4.35878715821582 -3.12150004540454
 1 -4.07492608220822  4.52339892169217 -0.48985013651365
 1 -3.88664741444144  3.59880467406741  1.21214202560256
 1 -3.04073238943894  5.09081937303730  0.78269403930393
 1  8.31754744824483 -2.70211336553655 -1.00304093909391
 1 -1.89944286888689  6.35189564666467 -2.89529438163816
 1 -2.59017137003700  6.20707208300830 -1.32063797129713

