%nproc=4
%Mem=4GB
# td=(NStates=1) B3LYP/SVP 

TD

0 1
 8 -5.31796802680268  0.30897633723372 -3.29964975467547
 8  3.09165917141714  2.83487074177418  3.29580565896590
 8  3.33666201480148  0.63317871687169  3.18666055115512
 8  2.01318895839584 -7.26463273337334  1.47037554385439
 8  0.56219110711071 -6.95157158075808 -0.32327030993099
 8  1.55315236333633  3.94097722052205  0.13819332673267
 7 -2.35875548664866 -1.09345777597760  0.62070908750875
 7 -4.28563344474447  0.77207487398740 -1.30880923572357
 7  1.86173656525653 -0.78498007100710 -0.35669414701470
 7  2.41473701560156  1.79815556105611 -0.50325707240724
 6 -4.67282367356736  1.20439193619362  0.02062786258626
 6 -4.37634502730273  0.26557672297230  1.07534489218922
 6 -2.96886198179818 -0.06700644394439  1.27649966296630
 6 -1.86499559625963  0.58931388858886  2.02597576717672
 6 -0.71643825412541 -0.04139957545755  1.69959063666367
 6 -0.96983117091709 -1.05882894179418  0.72369418881888
 6 -6.19017137323732  1.33877166646665 -0.10172538793879
 6  0.65120372697270  0.15025570207021  2.55705472557256
 6 -6.60133064756476  1.01845109350935 -1.36205193389339
 6 -0.13349960606061 -2.10126886378638  0.01464354585459
 6  1.18009490569057 -1.96764631123112 -0.33555513771377
 6 -5.36155675597560  0.67053526822682 -2.17961527302730
 6  2.01163524872487 -2.97938847724772 -0.86996400570057
 6 -2.12144784568457  1.63273903080308  3.11584597479748
 6 -7.15398289148915  1.77980610981098  1.07517150305031
 6  3.19740607430743 -2.34170412161216 -1.30534177927793
 6  1.16698272557256  1.69112760616062  2.65119875577558
 6  3.00907898319832 -0.94529315491549 -1.06040002820282
 6  1.63537730793079 -4.37644360876088 -0.80320203710371
 6 -7.93255916191619  0.99592122972297 -2.10674906270627
 6  1.76788435403540 -5.12239317391739  0.58655465096510
 6  4.46343195219522 -3.09529799859986 -1.85804503580358
 6  3.90095096569657  0.14701410491049 -1.42074675707571
 6  2.59940056125613  1.65562315051505  3.05816171607161
 6  3.68408278607861  1.50382579407941 -1.02874944224422
 6 -9.08258324172417  1.24147630793079 -1.53669848514851
 6  1.33836890159016 -6.51898854905491  0.52513117211721
 6  4.35332416701670  2.63470022492249 -1.68076515961596
 6  3.64998426682668  3.72635315901590 -1.23006430073007
 6  2.47003857465747  3.24160201130113 -0.44749351205121
 6  5.66953055835584  2.55185002560256 -2.28851080618062
 6  4.04338995879588  5.23586846264626 -1.05186720012001
 6  6.48038809640964  3.56972265706571 -2.71963644054405
 1 -4.20733521962196  2.01515259535954 -0.02547950765077
 1 -5.12789744664466 -0.42108358445845  1.03596834103410
 1 -4.79459629952995  0.50026402610261  2.07706461616162
 1 -2.69225826572657 -1.67195459095910 -0.18961588338834
 1 -3.29305030233023  0.56055797289729 -1.46926447734773
 1  0.59361379607961 -0.16716640464046  3.56206575467547
 1  1.51153516291629 -0.55860052745275  2.00875600840084
 1 -0.54362302320232 -3.12660012501250  0.11502650495049
 1 -3.23059320462046  1.82848411251125  3.33130312001200
 1 -1.66223743884388  1.19937930183018  3.97572596049605
 1 -1.60867724882488  2.56280009980998  2.92645006680668
 1 -6.63993744464446  2.38623742724273  1.80174240724072
 1 -7.40521028802880  0.85869567876788  1.69021603230323
 1 -8.02057799499950  2.34148023112311  0.87404588478848
 1  0.72799550795080  2.39626166276628  1.72585065236524
 1  0.71634474697470  2.06624344634463  3.60961678587859
 1  1.51422574897490  0.29252989798980 -0.45941130643064
 1  2.19295708790879 -4.83837766816682 -1.72151676137614
 1  0.61226302380238 -4.48262811031103 -0.93806228962896
 1 -7.89433049484949  0.71349157975798 -3.13638957715772
 1  1.27747993689369 -4.56708788848885  1.30852842944294
 1  2.90032630273027 -4.91550875537554  0.99511732663266
 1  4.12094715701570 -4.19729718191819 -2.07626108720872
 1  5.23273437183718 -2.98597744794479 -1.34520813841384
 1  4.61122255535554 -2.49631186378638 -2.91848092169217
 1  4.85679529902990 -0.05703779827983 -1.80795697139714
 1 -9.44495809630963  1.66362381788179 -0.68728141794179
 1 -10.15253338693869  1.44611602730273 -2.08252435243524
 1  4.12325701220122  2.65779916361636  3.44565933163316
 1  6.08479194739474  1.56010816001600 -2.61747056205621
 1  4.85588628842884  5.39009177337734 -0.41858047794780
 1  4.17891991449145  5.57409417511751 -2.11034357925793
 1  3.30709837943794  5.61754136053605 -0.37642938453845
 1  1.50808811691169 -8.26314747184719  1.36285234013401
 1  7.45913835823582  3.30910645054505 -3.11574884818482
 1  6.42291417891789  4.70311582378238 -2.34377673017302

