%nproc=4
%Mem=4GB
# td=(NStates=1) B3LYP/SVP 

TD

0 1
 8 -5.58307453745375  0.00430587018702 -3.31940172987299
 8  3.00467047254725  2.98157541224122  3.26674275267527
 8  3.35023337193719  0.73768916791679  2.87774966006601
 8  1.58730637013701 -7.26947321742174  1.53266177247725
 8  0.88179306730673 -7.08450487408741 -0.65362334523452
 8  1.65575262336234  3.95792891569157  0.13576308370837
 7 -2.42219183028303 -1.05564399459946  0.79431644824482
 7 -4.40348522992299  0.20301796829683 -1.27650600540054
 7  1.90689108070807 -0.72828440144014 -0.46977545514551
 7  2.59945548744875  1.89951569706971 -0.50641738843884
 6 -4.71314770597060  1.07896939393939 -0.07452165236524
 6 -4.45757315011501  0.24210437573757  1.30815817351735
 6 -2.94881997759776  0.03979423612361  1.40237225022502
 6 -1.96345544224422  0.66221117831783  2.12956612621262
 6 -0.71327793809381 -0.00192562806281  1.88226890449045
 6 -0.99983417121712 -0.95183824272427  0.90981280068007
 6 -6.14488684478448  1.42579036833683 -0.20980619601960
 6  0.56865547214721  0.29612028852885  2.48809782988299
 6 -6.62743325782578  0.93239248764876 -1.43339906860686
 6 -0.16842309840984 -2.03507224412441  0.27593967546755
 6  1.10898779497950 -1.89934948154815 -0.30876245844584
 6 -5.48865946624662  0.29174738943894 -2.14600191169117
 6  1.96421050625063 -2.88264880328033 -0.86052306160616
 6 -2.09756545744574  1.75340109700970  3.18543293349335
 6 -6.96089358255826  2.06959508870887  0.91063504940494
 6  3.13300963466347 -2.42751270247025 -1.35443668876888
 6  1.17284331163116  1.72782127552755  2.47920155605561
 6  3.10371844714471 -0.93509213481348 -1.04866885508551
 6  1.51375514571457 -4.33521948634863 -0.96914863176318
 6 -7.88272417841784  0.84870650825083 -1.99122751055106
 6  1.73261082668267 -5.13722465706571  0.42601859735974
 6  4.27404301330133 -2.99147761656166 -2.00209944124412
 6  3.98465933653365  0.09280868436844 -1.37427210961096
 6  2.57946856805681  1.79829741794179  2.91117701760176
 6  3.64702908070807  1.48159357085709 -0.99944651195120
 6 -9.21072605600560  1.22157431773177 -1.40405522082208
 6  1.38989405410541 -6.57506415661566  0.30575923492349
 6  4.55536437103710  2.64535129002900 -1.44203128622862
 6  3.84716398479848  3.77587811151115 -1.03291458575858
 6  2.55027659845985  3.29105695679568 -0.39472823552355
 6  5.81789539483948  2.57004184478448 -2.10796275137514
 6  4.26000161996200  5.29692456825683 -1.05456747014701
 6  6.72727278487849  3.52229791459146 -2.50507498439844
 1 -3.93535802190219  2.03617469756976 -0.02984994469447
 1 -5.07018167506751 -0.81324280038004  1.24021876607661
 1 -5.03256009590959  0.68489248894889  2.14141105080508
 1 -3.00251929182918 -1.32475987148715  0.00525360356036
 1 -3.56800779807981  0.07335925302530 -1.75851340224022
 1  0.44536897159716  0.11392170417042  3.66523607170717
 1  1.20001401080108 -0.38295296269627  2.09365449824983
 1 -0.71716037693769 -2.98904636963696  0.09182418471847
 1 -3.42138228352835  1.71934319841984  3.30229021872187
 1 -1.61314252935294  1.72967233113311  3.97272566046605
 1 -1.84104048514851  2.79445326512651  2.92475989778978
 1 -6.29426287718772  2.37263606710671  1.72054428742874
 1 -7.60494026102610  1.21269107830783  1.47033404410441
 1 -7.58794473167317  2.86253233633363  0.38774725492549
 1  1.13963667206721  2.12574461106111  1.50403847114711
 1  0.63269638213821  2.47752457445745  3.16784260846085
 1  1.71721604800480  0.18487913291329 -0.28507387268727
 1  2.10634842704270 -4.78305213561356 -1.62007661736174
 1  0.37802960046005 -4.54268411591159 -1.03656213961396
 1 -7.87096815861586  0.76623685428543 -3.05812175037504
 1  1.19618180708071 -4.48411959165917  1.30774835143514
 1  2.79563583368337 -5.07442464696470  0.89079689458946
 1  3.95269033133313 -3.97341479367937 -2.14852831393139
 1  5.12003310171017 -3.06186503670367 -1.23364698229823
 1  4.54046547964796 -2.56307854045405 -2.94250332393239
 1  4.77967758725873 -0.09000109460946 -2.00359653535354
 1 -9.49713331383138  1.39815727122712 -0.55798848864886
 1 -10.18863699729973  1.18113952965297 -2.07190329032903
 1  4.08674336083608  2.79574295799580  3.20026479217922
 1  5.97995146334633  1.43749589878988 -2.80590940594059
 1  5.20144084388439  5.22458522272227 -0.43613223312331
 1  4.37972999549955  5.44295106080608 -2.18806135103510
 1  3.42645031463146  5.87123673007301 -0.69992173377338
 1  1.14539184728473 -8.32280343744374  1.28148420332033
 1  7.57136958135814  3.33316885678568 -2.98358563186319
 1  6.39879176667667  4.45291080328033 -1.94255660816082

