%nproc=4
%Mem=4GB
# td=(NStates=1) B3LYP/SVP 

TD

0 1
 8 -5.51789801980198  0.20678611821182 -3.36723651335134
 8  2.97816782228223  2.94721197589759  3.33374945334533
 8  3.42151049964997  0.72963836283628  3.21774365946595
 8  1.53696133563356 -7.22595886598660  1.52381088738874
 8  0.74109899789979 -7.11552797639764 -0.61555953885389
 8  1.65347239533953  4.04014713751375  0.00831033843384
 7 -2.26381599269927 -0.94713314351435  0.67484450105010
 7 -4.36458133953395  0.62610027652765 -1.32734108890889
 7  1.93641403300330 -0.69382095509551 -0.42920139773977
 7  2.50168571047105  1.91253699919992 -0.58472521922192
 6 -4.76796318751875  1.20706220322032 -0.03106730693069
 6 -4.33461085388539  0.25212537783778  1.13475083278328
 6 -2.84151924752475  0.02303255995600  1.34234624762476
 6 -1.91722081878188  0.78256321352135  2.07771094069407
 6 -0.63449005930593  0.09344390889089  1.76264694229423
 6 -0.90021420922092 -0.95566862576258  0.92608442784278
 6 -6.32959531563156  1.27962575187519 -0.10857607300730
 6  0.61463006960696  0.22901357785779  2.50466948704870
 6 -6.68584909940994  0.89591884028403 -1.33404913361336
 6 -0.18916517261726 -1.88666740364036  0.17917999949995
 6  1.12714961116112 -1.76619616621662 -0.25638722092209
 6 -5.52164276457646  0.60112832753275 -2.17175448694870
 6  1.94711879707971 -2.95126566496650 -0.82078908820882
 6 -2.12351805270527  1.79175493239324  3.05434982518252
 6 -7.12216971017102  1.77726585578558  1.05852983888389
 6  3.13600993469347 -2.40368031923192 -1.32269351445145
 6  1.28728475577558  1.63463195659566  2.58463209910991
 6  3.05327340264026 -0.88038666426643 -1.15180916911691
 6  1.59560333053305 -4.36134209860986 -0.90163188008801
 6 -8.01576748274828  0.72599423702370 -2.00205859365937
 6  1.75447301290129 -5.22461339593959  0.39985598109811
 6  4.31821743074307 -3.09897836663666 -1.93157238853885
 6  3.94960583118312  0.16635603910391 -1.48966364876488
 6  2.72474309550955  1.71732932113211  3.03894979487949
 6  3.60301467926793  1.53065847734773 -1.19964653195320
 6 -9.27141212461246  0.70377253755376 -1.46357117241724
 6  1.24026909160916 -6.57887453765377  0.30388904790479
 6  4.51259009360936  2.61635839073907 -1.56794387748775
 6  3.79267853625363  3.79837036073607 -1.09018031233123
 6  2.57966953775378  3.34023187428743 -0.44079284198420
 6  5.89137274257426  2.44868970957096 -1.97755971107111
 6  4.19889550935094  5.18634351015101 -1.04777679107911
 6  6.75807586518652  3.35143082788279 -2.48816329322932
 1 -4.37542202830283  2.21257233733373  0.13263630393039
 1 -5.00053471037104 -0.62659413551355  0.98307305150515
 1 -4.60462730263026  0.91933593329333  2.07894480418042
 1 -2.84423346324632 -1.52789018451845 -0.16063298509851
 1 -3.36975797309731  0.58200011711171 -1.68119567046705
 1  0.56741117581758 -0.20204989298930  3.43110265836584
 1  1.45280929032903 -0.26691135853585  2.08559369216922
 1 -0.66249491039104 -2.73844130913091  0.03393839613961
 1 -3.20211035633563  1.84174543864386  3.27165715541554
 1 -1.67647886298630  1.50232959685969  3.97980636853685
 1 -1.73553993509351  2.70338415821582  2.91778920072007
 1 -6.57091054195419  2.59838864236424  1.72039427242724
 1 -7.36059582658266  0.99009881908191  1.76541355205521
 1 -7.97125306250625  2.33215929902990  0.62660114031403
 1  1.15632834123412  1.95145718231823  1.55386345364536
 1  0.64531764426443  2.36325314731473  3.03766959115912
 1  1.47856218261826  0.28072871787179 -0.01416678197820
 1  2.19474726692669 -5.00487431783178 -1.78397300700070
 1  0.54594639213921 -4.41467131463146 -1.06131461486149
 1 -7.81065212701270  0.48240847144714 -3.09794573277328
 1  1.36636882578258 -4.78283946364636  1.49113669026903
 1  2.84637090719072 -5.16360356485649  0.91691950685069
 1  3.94396945924592 -4.22217967016702 -2.06493995509551
 1  5.22334343274327 -3.02039088928893 -1.36164978257826
 1  4.53183461656165 -2.89230146274627 -2.90592966656666
 1  4.72411203070307 -0.27786988148815 -2.04918109380938
 1 -9.53565716621662  0.66830428592859 -0.23557624742474
 1 -10.07441557515752  0.87896931263126 -2.16708280828083
 1  3.84758944544454  2.90855423912391  3.84122888858886
 1  6.16658012621262  1.30805295449545 -1.76322513751375
 1  5.17490819061906  5.54388715291529 -0.32397101700170
 1  4.47718974147415  5.68047481318132 -2.12800534543454
 1  3.50412808240824  5.77397700410041 -0.42482422402240
 1  1.10097740584058 -8.04610576767677  1.14696075097510
 1  7.74686713111311  3.02617815771577 -2.93744101740174
 1  6.56354824232423  4.44011952415242 -2.63193554605461

