%nproc=4
%Mem=3GB
# td=(NStates=1) B3LYP/SVP 

TD

0 1
 8 -3.31967887808781 -1.23539859535954 -2.80204085838584
 8  3.40894134893489  3.01241289978998  3.08421269216922
 8  3.60569487768777  1.37569469776978  4.74293873747375
 8  7.84801340424042 -1.42091820602060 -0.87824858665867
 8  6.66150030643064 -3.09250004490449 -2.00597704580458
 8 -2.72801370787079  1.70070555965597  1.33740380088009
 7 -0.31227697389739 -2.44388070237024  0.95155999679968
 7 -2.75284732273227 -1.21006614161416 -0.66454859945995
 7  1.12511406080608 -0.03175226552655 -0.77693263046305
 7 -0.98455760126013  1.45440084798480 -0.11703260116012
 6 -3.34083923362336 -1.40069763216322  0.67944491839184
 6 -2.60371899799980 -2.32251639783978  1.68800410721072
 6 -1.16609225092509 -2.09639745374537  1.85650363896390
 6 -0.53441324362436 -1.25532672437244  2.80790881138114
 6  0.81970308290829 -1.17494249524952  2.50808200280028
 6  0.95113779998000 -1.85914234893489  1.24909971397140
 6 -4.75860080668067 -1.87676332503250  0.26117300460046
 6  1.86349094049405 -0.37216754635464  3.21364351885189
 6 -4.80691705310531 -2.01919062746275 -1.15830617111711
 6  2.07149510591059 -1.97026521872187  0.28590086878688
 6  2.11391741364136 -1.00422233443344 -0.64778868036804
 6 -3.58810348024802 -1.49367133243324 -1.67315459885989
 6  3.06063712691269 -0.60815156345635 -1.78715261416142
 6 -1.35647421962196 -0.55040889788979  3.94671017931793
 6 -5.78383360746075 -2.19504598489849  1.19166017161716
 6  2.47160681758176  0.46446381458146 -2.48068267826783
 6  1.90191962436244  1.08921461346135  2.88113475507551
 6  1.25160852735274  0.80513716231623 -1.81618772477248
 6  4.23209855895590 -1.42111154025403 -1.98005763586359
 6 -5.87511184728473 -2.42233432383238 -1.99931337953795
 6  5.51219677067707 -0.89143088828883 -1.31660507740774
 6  3.11281137653765  1.17034543714371 -3.63833034223422
 6  0.48396082018202  1.98145329222922 -1.95647739283928
 6  3.03456209650965  1.76218580408041  3.71704704990499
 6 -0.58444227582758  2.26566119831983 -1.16994228212821
 6 -6.92640656715672 -3.12897666176618 -1.69332789148915
 6  6.66147571717172 -1.94064231933193 -1.50360105010501
 6 -1.41332998779878  3.52854508770877 -1.25546362106211
 6 -2.31582567196720  3.41719219821982 -0.22316022222222
 6 -2.06764903730373  2.13415434893489  0.41922085408541
 6 -1.23864384278428  4.53319958015802 -2.37472924092409
 6 -3.40149078557856  4.42990347324732  0.11796603630363
 6 -2.06771066226623  5.56698211641164 -2.49246297909791
 1 -3.44043253645364 -0.34975046494649  1.27575177977798
 1 -2.61932355875588 -3.30853597859786  1.42081243034303
 1 -3.12160197999800 -2.20960440484048  2.54114350305031
 1 -0.48456376117612 -2.87135590069007  0.12969997999800
 1 -1.89448783848385 -0.52711901540154 -0.82635673807381
 1  1.95194315571557 -0.74530598439844  4.27304940404040
 1  2.76397373027303 -0.72920481178118  2.96837176657666
 1  2.73330214411441 -2.88342992589259  0.40512356555656
 1 -2.17079970927093 -1.08153742774277  4.54556161796180
 1 -0.57926769476948 -0.22203640724072  4.63334969146915
 1 -1.76997631143114  0.53093554025403  3.52489125442544
 1 -5.78566935413541 -1.59977810901090  2.02470676367637
 1 -5.80453921462146 -3.20137424202420  1.54739758605861
 1 -6.74856223302330 -1.87043268666867  0.69831619331933
 1  2.03350949034903  0.92245218711871  1.68905651695170
 1  0.91529148064806  1.51946419071907  3.11034900860086
 1  0.39341759935994  0.20589495929593 -0.00739277157716
 1  4.38595431463146 -1.51052411141114 -3.09747534943494
 1  4.07508833863386 -2.55929770897090 -1.64670177817782
 1 -5.44885702410241 -2.17281820642064 -2.99700316411641
 1  5.16511443274327 -0.78699917981798 -0.16810358665867
 1  5.69299074037404  0.15920892479248 -1.73246772927293
 1  4.08683859535954  0.70102659475948 -3.92862109160916
 1  3.48008375997600  2.15455653435344 -3.22180451585159
 1  2.54939072837284  1.21045554345434 -4.43416656865686
 1  0.88837274727473  2.50236173267327 -2.75094598659866
 1 -7.20084917101710 -3.73576576047605 -0.75334435563556
 1 -7.66558482338234 -3.43890522102210 -2.32525557905791
 1  3.90620434793479  3.67254661566157  3.81770502470247
 1 -0.57492137093709  4.38385966546655 -3.08506640204020
 1 -4.02877146674667  4.37975455725573 -0.73555470697070
 1 -3.88518726842684  3.95297009060906  0.88646945834583
 1 -3.02038035423542  5.44268455955596  0.44627039693969
 1  8.52753844734474 -1.99889304350435 -0.82379301430143
 1 -2.00857378197820  6.00973143024302 -3.54066891909191
 1 -2.86645899879988  5.76363773957396 -1.92558846634663

