%nproc=4
%Mem=4GB
# td=(NStates=1) B3LYP/SVP 

TD

0 1
 8 -5.43169939993999  0.11025646524652 -3.29261905160516
 8  2.90643064856486  2.87942519721972  3.28247432583258
 8  3.42952130073007  0.74109950895090  2.83370525562556
 8  1.73911155065507 -7.17500377047705  1.56568507480748
 8  0.71227611561156 -7.08913533713371 -0.39294727762776
 8  1.77657470557056  3.95113823662366 -0.01683217581758
 7 -2.46102571367137 -0.92797122732273  0.52040905750575
 7 -4.42082696409641  0.64247191369137 -1.18584693949395
 7  1.86581697329733 -0.58833040604060 -0.38616709430943
 7  2.67471301320132  1.92743848934893 -0.48253500020002
 6 -4.79220561176118  1.22295379237924  0.00944674447445
 6 -4.41628902170217  0.22767293259326  1.26303366106611
 6 -3.01285638123812  0.03564382108211  1.29630164316432
 6 -1.96394549124912  0.56878183538354  2.09885305490549
 6 -0.71746835713571  0.00063462796280  1.76524720232023
 6 -1.08244243204320 -1.04813787268727  0.74771659105911
 6 -6.36111846794679  1.39381717101710 -0.11390660606061
 6  0.54112271887189  0.15365604210421  2.50357937803780
 6 -6.74891540604060  0.87868711711171 -1.36777250595060
 6 -0.20285654175418 -1.96780551745175  0.03662574407441
 6  1.20243713991399 -1.82401194779478 -0.30388197039704
 6 -5.47435803610361  0.52433064776478 -2.16807411891189
 6  2.01101518671867 -2.84085462386239 -0.90049705900590
 6 -2.15736143704370  1.64797055395540  3.15118950915092
 6 -7.12960045324532  1.91372950215022  0.98357234313431
 6  3.16971330503050 -2.32768271947195 -1.31982322742274
 6  1.14746077337734  1.50082857625763  2.52940657655766
 6  3.09617769306931 -0.83829245484548 -1.01041502970297
 6  1.44910868106811 -4.32076804120412 -0.90732244914491
 6 -8.05795170117012  0.80563220082008 -1.99645803360336
 6  1.70460802640264 -5.05733666826683  0.40211620712071
 6  4.34627023602360 -2.99742821162116 -2.02768199949995
 6  4.03853472407241  0.04198360186019 -1.33791847424742
 6  2.60727134833483  1.61876946514651  2.88165406530653
 6  3.74870924872487  1.49696510801080 -1.04223079037904
 6 -9.29705468886889  0.77313947424742 -1.29669448474847
 6  1.29235430013001 -6.47491414161416  0.38697735673567
 6  4.62528136273627  2.66890364526453 -1.48238532163216
 6  3.86485575397540  3.76071659535954 -1.11182247654765
 6  2.61884345514551  3.31269912101210 -0.53234199689969
 6  6.00050365566557  2.52614745534553 -1.97587954305431
 6  4.29006462626263  5.21001587738774 -1.16138815221522
 6  6.93963402100210  3.43003868866887 -2.37621209810981
 1 -4.23284777087709  2.23321440154015 -0.02221918161816
 1 -4.93742839973997 -0.65297677377738  1.36136088028803
 1 -4.53231007090709  0.66432043174317  2.17497440714071
 1 -2.79370841074107 -1.64064145964596 -0.10415733753375
 1 -3.62196319361936  0.88404032113211 -1.75137268816882
 1  0.45331976667667 -0.03082277027703  3.49020856895690
 1  1.20519452885289 -0.65754042144214  2.27943307610761
 1 -0.44939360026003 -2.91220868586859 -0.05209020672067
 1 -3.20665081038104  1.61951321542154  3.73579356905691
 1 -1.16897811291129  1.54317368126813  3.95263365126513
 1 -2.11330771187119  2.70350417021702  2.63268068986899
 1 -6.72345579647965  2.69834863836384  1.69069130213021
 1 -7.47918768576858  1.19110892009201  1.68497550825083
 1 -7.98981491869187  2.26842292539254  0.63389186938694
 1  0.94852756115612  1.95811784838484  1.60015808310831
 1  0.54691780428043  2.07794461646165  3.20764658885889
 1  1.60927525392539  0.35598624362436 -0.33106847214721
 1  1.85126291849185 -5.00186401680168 -1.92060667036704
 1  0.41645344284428 -4.47114696219622 -1.09036752015201
 1 -8.04491555335534  0.58140837143714 -2.99742568076808
 1  1.28170035893589 -4.56918809850985  1.15530310691069
 1  2.82319858995900 -5.08129533403340  0.67446526142614
 1  3.77871293359336 -3.89239669186919 -2.43795725682568
 1  5.18249934833483 -3.04387323752375 -1.43088670627063
 1  4.49407084018402 -2.49966219881988 -3.11702077567757
 1  4.91713133263326 -0.09037113161316 -1.91485766146615
 1 -9.45195879637964  0.95651310681068 -0.14879756955696
 1 -10.04569270287029  0.44304572027203 -1.98673477347735
 1  3.86074076057606  3.09269265296530  3.43645841154115
 1  6.21297476567657  1.34184633383338 -2.22836165116512
 1  5.14702540234023  5.50090285448545 -0.61465008490849
 1  4.15609763226323  5.65960272597260 -2.18512105700570
 1  3.64676234583458  5.81223082948295 -0.63914565616562
 1  1.23184049214921 -8.10952210931093  1.44183023792379
 1  7.98288073247325  3.11290683058306 -2.57561483478348
 1  6.73836572407241  4.56495200740074 -2.35775812831283

