%nproc=4
%Mem=4GB
# td=(NStates=1) B3LYP/SVP 

TD

0 1
 8 -5.28933516351635 -0.07572213261326 -3.17060685038504
 8  3.07220722622262  2.96590384508451  3.29886596499650
 8  3.37893624222422  0.73782918191819  3.03861574667467
 8  1.37150478997900 -7.08557482758276  1.40191869816982
 8  0.67985287328733 -7.15462188578858 -0.68125610851085
 8  1.79938698679868  3.97879100190019  0.02193170057006
 7 -2.28179779087909 -0.81217964816482  0.62521953855386
 7 -4.29129401080108  0.63693135963596 -1.11883023782378
 7  1.87467785938594 -0.64652622562256 -0.32935141274127
 7  2.65233077497750  1.84481022652265 -0.51623837053705
 6 -4.85531192239224  1.24307580458046 -0.01430563076308
 6 -4.42482987578758  0.40923108840884  1.19666702440244
 6 -2.96346144174417  0.05769602630263  1.43942595559556
 6 -1.90686978367837  0.67216217341734  2.18920208980898
 6 -0.70948755905591  0.03440800530053  1.82525320292029
 6 -0.99308349614961 -0.92606566546655  0.79685150455046
 6 -6.29820217631763  1.27528531783178 -0.16357157255726
 6  0.66705531213121  0.23459413591359  2.61377039713971
 6 -6.63615412991299  0.65154440284028 -1.31057678637864
 6 -0.20536679277928 -1.95289402630263  0.16736881838184
 6  1.11646854305431 -1.76599614621462 -0.31304288648865
 6 -5.35842644294429  0.28761697639764 -2.04983229472947
 6  1.90990507570757 -2.81340187858786 -1.01923893319332
 6 -2.08527422832283  1.69140489738974  3.39220361056106
 6 -7.26310380358036  1.99311744094409  0.83613759965997
 6  3.07139347304730 -2.24603455465547 -1.33219446454645
 6  1.16981300860086  1.71373986738674  2.62587622352235
 6  3.04381245654565 -0.90320894649465 -1.03211719991999
 6  1.41021479167917 -4.26035199959996 -1.05055677257726
 6 -7.85285119111911  0.57940957855786 -2.08360674847485
 6  1.62459002460246 -4.99833076767677  0.31253724922492
 6  4.17041265026503 -3.06586505530553 -1.99151838313831
 6  4.05103597419742  0.05709511301130 -1.24297898029803
 6  2.67743836503650  1.72665025322532  3.00692659255926
 6  3.73638801660166  1.44527993949395 -1.03769033633363
 6 -9.17682266566657  0.58614077437744 -1.52946776207621
 6  1.16616168086809 -6.51072772297230  0.31429008800880
 6  4.61611044564456  2.61350810571057 -1.53472055515552
 6  3.94210347874788  3.72603312701270 -1.08658995329533
 6  2.67747931873187  3.25344319541954 -0.51878064076408
 6  5.91120472577258  2.40853569416942 -2.08970092519252
 6  4.23169878967897  5.21743661946195 -1.19075108850885
 6  6.62944300190019  3.57748343314331 -2.50130460736074
 1 -4.50851533763376  2.25518659875988  0.01922496279628
 1 -5.13167782468247 -0.52949442554255  1.17140188438844
 1 -4.94382122202220  0.89431343104310  2.14849175887589
 1 -2.49660870077008 -0.96603399889989 -0.55615253705370
 1 -3.31006200350035  0.74916683378338 -1.37592514341434
 1  0.46148058275828 -0.24202389038904  3.70955050315032
 1  1.44840885028503 -0.31129579697970  2.11566669946995
 1 -0.54057271817182 -2.87790525552555 -0.18479347704770
 1 -3.16924707000700  1.52153341744174  3.86767675737574
 1 -1.25327654275428  1.54375373927393  4.11133952185219
 1 -2.06608298939894  2.85452927272727  2.95801322312231
 1 -6.63183663456346  2.81656045954595  1.40232246524652
 1 -7.76162592959296  1.30083989318932  1.53491050175017
 1 -8.10647658485849  2.45663174627463  0.30692917311731
 1  1.26018872727273  2.24588662526253  1.56416448374838
 1  0.81938505100510  2.28802562456246  3.27092291649165
 1  1.44731905830583  0.16023666866687 -0.24218958425843
 1  1.85919371157116 -4.73641747214721 -1.91986659635964
 1  0.38094989248925 -4.20234008150815 -1.25971445484548
 1 -7.63442450425043  0.38375860646065 -3.14205014321432
 1  1.08903109200920 -4.40045122482248  1.04095167176718
 1  2.70528679877988 -5.08206541104110  0.67696551145114
 1  4.03188825112511 -4.20168762096210 -2.18718217931793
 1  5.01041213961396 -3.07306615681568 -1.19457307490749
 1  4.36254768786879 -2.55629786238624 -3.13979305290529
 1  5.07201682118212 -0.15368746324632 -1.53892006770677
 1 -9.46484008450845  0.76940439593959 -0.45030772057206
 1 -10.05221335493549  0.26585800150015 -2.18809490949095
 1  4.11221590809081  3.08934231793179  3.63381814751475
 1  6.40855432363236  1.35561771097110 -2.40823963896390
 1  5.08865956575658  5.52239500370037 -0.69148776867687
 1  4.27855987848785  5.62298906460646 -2.28042058695870
 1  3.33922159175918  5.68007761416142 -0.91087282888289
 1  0.84788209630963 -7.89723088018802  1.45798185308531
 1  7.54942738713871  3.48899443934393 -3.21136841014101
 1  6.37855974347435  4.64465997819782 -2.21489384188419

