%nproc=4
%Mem=3GB
# td=(NStates=1) B3LYP/SVP 

TD

0 1
 8 -3.36524343454345 -1.23263831933193 -2.79928058235824
 8  2.95816627142714  3.13775543404340  3.20734500540054
 8  3.51283559175918  1.45037216551655  4.63151759535954
 8  7.77723632653265 -1.48021413561356 -0.88571933373337
 8  6.78235239163916 -2.91644243914391 -2.28965541364136
 8 -2.60782168866887  1.52613810291029  1.40670073057306
 7 -0.40390613681368 -2.35944225852585  0.92623746454645
 7 -2.68251028902890 -1.08764389938994 -0.65499764436444
 7  1.14006555595560  0.00347125682568 -0.78402333953395
 7 -0.98532767826783  1.41556696459646 -0.27513841174117
 6 -3.42953810351035 -1.36225378777878  0.69582655655566
 6 -2.69565819191919 -2.37407155335534  1.63987929472947
 6 -1.24050969266927 -1.97611542554255  1.93076106470647
 6 -0.61359116141614 -1.10805199689969  2.90388840934093
 6  0.75963707630763 -1.08294329532953  2.53600479507951
 6  0.91852453865387 -1.79488592329233  1.27688249224922
 6 -4.78227317391739 -1.93107875657566  0.33244013131313
 6  1.83127771917192 -0.41448177777778  3.22280443494349
 6 -4.77881424282428 -2.04866357475748 -1.07670801130113
 6  1.99889784618462 -2.00399859205921  0.18961123982398
 6  2.11643766566657 -0.95628754095410 -0.67463136463646
 6 -3.52028669856986 -1.58242020732073 -1.70563784718472
 6  3.09068013121312 -0.67490823912391 -1.84622852175218
 6 -1.18700727292729 -0.48308216521652  4.10327583588359
 6 -5.88643386748675 -2.11727820812081  1.27326833243324
 6  2.60993064996500  0.40887825602560 -2.49518412841284
 6  1.87540697309731  1.04983067506751  2.80156679827983
 6  1.43452681918192  0.95541218981898 -1.80232633863386
 6  4.33738908800880 -1.49679910901090 -2.04388401850185
 6 -5.77652198829883 -2.48336042644264 -1.99843329152915
 6  5.52859841084108 -1.19810155535554 -1.18012142904290
 6  3.10052014741474  1.04139254185419 -3.71756826602660
 6  0.60897332143214  2.02130727762776 -2.01358310341034
 6  2.83359199949995  1.86993657915792  3.78503384858486
 6 -0.50886471807181  2.28618325052505 -1.24985027292729
 6 -6.98828275477548 -3.09872363646365 -1.70066862556256
 6  6.76290586018602 -1.94633288838884 -1.55445613561356
 6 -1.32822147694769  3.53640587378738 -1.25886396109611
 6 -2.22820691009101  3.37438791779178 -0.24106201240124
 6 -1.96128840124012  1.98784971847185  0.41211014301430
 6 -1.25027500590059  4.54812107230723 -2.20665243324332
 6 -3.34496513301330  4.18443892679268  0.22180642034203
 6 -1.97239113031303  5.65563098129813 -2.46994072687269
 1 -3.54143263646365 -0.32088757865787  1.17224142874287
 1 -2.89108073447345 -3.43643876887689  1.30301065016502
 1 -3.33460328012801 -2.35304874927493  2.60799018771877
 1 -0.70988629342934 -2.78763752885289  0.10588759875988
 1 -2.07302569226923 -0.27488379187919 -0.58199230163016
 1  1.84076203760376 -0.32997445124512  4.41979407850785
 1  2.72309964286429 -1.10828271957196  2.75495042444244
 1  2.90636945084508 -2.72586416931693  0.37207026022602
 1 -1.86668929822982 -1.23450272427243  4.57476453825383
 1 -0.42084185218522 -0.22027623122312  4.81455781228123
 1 -1.72283159695970  0.36469891659166  3.67371613691369
 1 -5.97524831203120 -1.22758088928893  2.11102539553955
 1 -5.65635439613961 -2.94965907050705  1.81238408470847
 1 -6.84981235803580 -2.22696834023402  0.81714807650765
 1  2.32791893129313  1.22101204310431  1.73810142144214
 1  0.80177012851285  1.50137238153815  2.98921689538954
 1  0.14915317291729  0.23824819461946 -0.28296032833283
 1  4.68575429462946 -1.53807686668667 -3.00038564046405
 1  4.19269009880988 -2.66004778397840 -1.87482459045905
 1 -5.48346048444844 -2.32008293289329 -2.99817328112811
 1  5.25487340864086 -1.49217969786979 -0.13534031033103
 1  5.92511395269527 -0.20185718181818 -1.15326980948095
 1  3.95434534603460  0.53153964606461 -4.33584181368137
 1  3.47439319091909  2.29012009070907 -3.49995233063306
 1  2.33843963326333  1.03001749964997 -4.25346849884988
 1  0.87384129412941  2.70268176467647 -2.77117800980098
 1 -7.41572065816582 -3.52546473037304 -0.69015803700370
 1 -7.74278254315432 -3.42200353085308 -2.42654570807081
 1  3.53283701120112  3.55519488048805  3.82087534173417
 1 -0.37160103890389  4.24607588708871 -2.99383727912791
 1 -4.11909049864987  4.22150873267327 -0.46117726922692
 1 -3.59321807150715  3.51509630323032  1.15588640004000
 1 -2.96140445664566  5.13554384548455  0.76523229312931
 1  8.45264095759576 -2.11824497869787 -0.96647728272827
 1 -1.71230415501550  6.18244870197020 -3.43576842904290
 1 -2.94185653855386  5.82824420022002 -1.83853976147615

