%nproc=4
%Mem=3GB
# td=(NStates=1) B3LYP/SVP 

TD

0 1
 8 -3.27727463766377 -1.22472752825283 -2.91757241154115
 8  3.06582703750375  3.17685934443444  2.91602587348735
 8  3.80488479667967  1.50183731203120  4.30315475907591
 8  7.80987959085909 -1.73394950915092 -0.78385914771477
 8  6.51032518891889 -3.22560335523552 -1.90744719281928
 8 -2.63790469696970  1.54615010411041  1.44413447394739
 7 -0.26194194039404 -2.43874018831883  0.92522736353635
 7 -2.65411744974497 -1.18829396439644 -0.66602874747475
 7  1.04066561596160  0.02133304300430 -0.72154709190919
 7 -1.00136928242824  1.49261466936694 -0.18774967286729
 6 -3.35159030873087 -1.38245580798080  0.64101107500750
 6 -2.55753437953795 -2.36455060126013  1.62255756255626
 6 -1.10773641534153 -2.05593340734073  1.85012300090009
 6 -0.53273307560756 -1.29111030273027  2.84360238073807
 6  0.77627874047405 -1.20981598259826  2.48665986058606
 6  1.02652533873387 -1.88597503220322  1.20992579657966
 6 -4.69624457105711 -1.92873852255226  0.25500238753875
 6  1.79032362376238 -0.36668699829983  3.15407756225623
 6 -4.87627398879888 -1.92295100350035 -1.14624496499650
 6  2.04624258065807 -1.86319451165117  0.29357163586359
 6  2.12126814871487 -0.94204611681168 -0.67214111561156
 6 -3.50167483738374 -1.47570953625363 -1.68241552495250
 6  3.11623268646865 -0.63149389768977 -1.71259515841584
 6 -1.33937250945095 -0.62753661066107  3.94332984128413
 6 -5.82190741484148 -2.17017349764976  1.28723972957296
 6  2.61077073397340  0.54265163336334 -2.26811142114211
 6  1.75734516691669  1.14050974297430  2.96507314891489
 6  1.32982634913491  0.98609525812581 -1.75022112811281
 6  4.30102545164516 -1.41821125022502 -2.08342797289729
 6 -5.93987832393239 -2.31961405180518 -1.98705215341534
 6  5.55907145814581 -1.08095984118412 -1.22623604050405
 6  3.22222231763176  1.26820522312231 -3.43839034823482
 6  0.55791821592159  2.06858200510051 -2.03166491159116
 6  3.09711835213521  1.85251483698370  3.41069641484148
 6 -0.59081291289129  2.30520515271527 -1.16397168506851
 6 -6.87977190369037 -3.32481624572457 -1.65952451115111
 6  6.68749831943194 -2.06215447054705 -1.40809149914991
 6 -1.41028968376838  3.49285151835184 -1.23445151985199
 6 -2.43439752915292  3.37214769376938 -0.30390829702970
 6 -2.10385265766577  2.07846878037804  0.45272420442044
 6 -1.25508548694869  4.56848310851085 -2.23209497749775
 6 -3.47095773227323  4.30142062496250  0.18283252295230
 6 -2.12814670587059  5.69301471967197 -2.37733146594659
 1 -3.42274076727673 -0.35376086598660  1.17122132673267
 1 -2.50020164656466 -3.51289641464146  1.63024337343734
 1 -3.00123994379438 -2.20906435083508  2.67514690339034
 1 -0.38134343914391 -2.83923268836884 -0.12868585858586
 1 -1.85181357105711 -0.38974527802780 -0.71240534293429
 1  1.65228318971897 -0.51884333813381  4.28008010711071
 1  2.78193552645265 -0.83577546884688  2.90893582298230
 1  2.98295710961096 -2.52683426632663  0.19417247044704
 1 -2.08856148544854 -1.31223049704971  4.32099916171617
 1 -0.69858962696270 -0.09959416301630  4.67823417991799
 1 -1.70347966176618  0.23588603530353  3.67833659895990
 1 -5.62905369256926 -1.35655378657866  1.97929222222222
 1 -6.06743550425042 -3.19334343894389  1.57890073637364
 1 -6.95112248904890 -1.78308395179518  1.04902126382638
 1  1.73809994939494  1.34150409230923  1.86819443074307
 1  0.74654460596060  1.50346259055906  3.51668964266427
 1  0.37927618521852  0.37811218101810 -0.00772280458046
 1  4.47803352255226 -1.22899595859586 -3.22706830873087
 1  3.87965879567957 -2.43884566376638 -2.10482759075908
 1 -5.62498463686369 -1.83598452305230 -2.99026249004900
 1  5.20676859815982 -1.16307678757876 -0.19162593889389
 1  5.83012445374537  0.00548355225523 -1.44470895339534
 1  4.21576148764876  0.80094658675868 -3.82148037753775
 1  3.79964571617162  2.16855793449345 -2.95685802120212
 1  2.48445423472347  1.64115861376138 -4.32790594259426
 1  0.97936184618462  2.78212970947095 -2.66399729172917
 1 -6.92231131723172 -3.88078026192619 -0.61998101930193
 1 -7.78697696259626 -3.59524085458546 -2.42206526002600
 1  3.78513224072407  3.63636299729973  3.39510276447645
 1 -0.45325920472047  4.26012729222922 -2.88589648504850
 1 -4.26309489908991  4.42880946274627 -0.54670582208221
 1 -4.13397214691469  3.91897669126913  1.02711352275228
 1 -2.94358267446745  5.21688197929793  0.74014978487849
 1  8.48570426392639 -2.47580073427343 -1.04341497649765
 1 -1.81444436903690  6.51340179727973 -3.08788364056406
 1 -3.17057941084108  5.56115749154915 -1.64355026252625

