%nproc=4
%Mem=4GB
# td=(NStates=1) B3LYP/SVP 

TD

0 1
 8 -5.32012824282428  0.04020946054605 -3.25200499019902
 8  3.00659066456646  2.90193744844484  3.33003908230823
 8  3.28957730633063  0.70958635763576  2.85857774287429
 8  1.90293793329333 -7.20169643974397  1.26489499579958
 8  0.38724361236124 -6.93812023562356 -0.42901088398840
 8  1.84010105820582  3.97324044684468  0.15834534193419
 7 -2.29963957505751 -1.02201063126313  0.65772278887889
 7 -4.41032591399140  0.56150381688169 -1.13478183298330
 7  1.88573896549655 -0.65970754375438 -0.38594707230723
 7  2.57130267216722  1.94081982748275 -0.56036278297830
 6 -4.77042343354335  1.10894239123912  0.01521732153215
 6 -4.47970536333633  0.25994615991599  1.20093745144514
 6 -3.00895599119912 -0.02753249654965  1.34053606660666
 6 -1.97975707240724  0.64872983018302  2.11483465306531
 6 -0.76220283058306  0.08543310781078  1.73853453105311
 6 -0.99973416121612 -0.93704676357636  0.83812563196320
 6 -6.30248260436044  1.37374516381638 -0.16249146454645
 6  0.59568817541754  0.27291796829683  2.60188920902090
 6 -6.65346586108611  0.94467371577158 -1.42709843854385
 6 -0.18637489358936 -1.90457919481948  0.13567564906491
 6  1.14312120832083 -1.82078162476248 -0.25178676087609
 6 -5.46040664096410  0.48623683838384 -2.16185349684969
 6  1.96178026322632 -2.91262180058006 -0.86524353365337
 6 -2.24298999989999  1.74192994989499  3.06414080428043
 6 -7.11043853705371  1.79612774197420  0.94542852875288
 6  3.17147348104810 -2.31749170037004 -1.26351759685969
 6  1.05624165146515  1.72258075147515  2.66890052595259
 6  3.03485156045605 -0.85042366796680 -1.03607759595960
 6  1.44188795899590 -4.28231419581958 -0.88482019891989
 6 -7.94648055405541  0.82884452205221 -2.01842022982298
 6  1.86099366496650 -5.13744467906791  0.30628662416242
 6  4.21173678267827 -3.07122559135914 -1.92883211451145
 6  3.90636150675068  0.09570897439744 -1.35392007440744
 6  2.57140776197620  1.68009559775978  2.94423032293229
 6  3.70368474627463  1.39100451195119 -1.11811837913791
 6 -9.06066104950495  0.79893205350535 -1.37840265556556
 6  1.28375344004400 -6.52148879907991  0.33884254325433
 6  4.60556939153915  2.59321607650765 -1.47364444754475
 6  3.94777404580458  3.74276480018002 -1.06430772507251
 6  2.68304987578758  3.29323717481748 -0.41859062176218
 6  5.90300390569057  2.52752759335934 -2.21380333543354
 6  4.25950156995700  5.22883775957596 -1.27518953235324
 6  6.80234029162916  3.45075075987599 -2.48225270217022
 1 -4.15055954205421  2.08372945304530  0.22306534683468
 1 -5.10748540544054 -0.66993846994699  1.13058780298030
 1 -4.83410024992499  0.95580958065807  2.00622753245325
 1 -2.81635067496750 -1.55010240574057  0.10448352655265
 1 -3.55581657895790  0.35478739583958 -1.43859141004100
 1  0.41774620932093 -0.22386207420742  3.53786333443344
 1  1.21069507890789 -0.31454612201220  2.14106923972397
 1 -0.47798645954595 -2.84294175917592 -0.26180117781778
 1 -3.27194734003400  1.55083634773477  3.73303329302930
 1 -1.37141835693569  1.68084744864486  3.87210559845985
 1 -2.19860624172417  2.82018583838384  2.74078149994999
 1 -6.69331278217822  2.37089589308931  1.64973720672067
 1 -7.60623039003900  0.91691150035003  1.66296330703070
 1 -7.87141307850785  2.45140122322232  0.51050953115312
 1  0.90946365476548  2.23098513511351  1.64885295259526
 1  0.57558067056706  2.24573139513951  3.46394221842184
 1  1.97434176057606  0.33840448544855 -0.10034539983998
 1  1.74546233843384 -4.86413024342434 -1.78405301500150
 1  0.41795359285929 -4.51866171367137 -0.93348183158316
 1 -7.84206526832683  0.58581881248125 -3.14870080828083
 1  1.54878706760676 -4.59701088078808  1.32584016061606
 1  2.92020829092909 -5.26727393189319  0.52003981888189
 1  3.98132319461946 -4.06227367956796 -2.21263472457246
 1  4.99931102950295 -3.22216106630663 -1.12882650025002
 1  4.75377681078108 -2.50815304790479 -2.83728280188019
 1  4.97941756125613 -0.14014610911091 -1.71153732943294
 1 -9.15343894439444  0.84318177367737 -0.39894258405841
 1 -10.04454258785879  0.46321773747375 -1.91773787378738
 1  3.93131781828183  2.91440482418242  3.77749251495150
 1  6.09223269146915  1.46607875707571 -2.20268908390839
 1  5.15347604740474  5.44998776297630 -0.72916153605361
 1  4.53562558505851  5.35336210191019 -2.40672321722172
 1  3.31117878747875  5.85302490889089 -1.04931667326733
 1  1.34414172227223 -8.01521267836784  1.49030508540854
 1  7.82211465586559  3.25039057895790 -2.77647492079208
 1  6.73538542604260  4.54089960216022 -2.15451780428043

