%nproc=4
%Mem=4GB
# td=(NStates=1) B3LYP/SVP 

TD

0 1
 8 -5.46265249524953  0.01089652925293 -3.32741253095310
 8  2.99757976347635  2.79969722442244  3.10845692409241
 8  3.31692004060406  0.54520991999200  2.93352523762376
 8  1.78009564906491 -6.95197146724672  1.69460796709671
 8  0.86294118211821 -7.19435585918592 -0.53152113501350
 8  1.61811885998600  3.98850197299730  0.05991549894989
 7 -2.31257086818682 -0.90228865906591  0.50332734933493
 7 -4.39474435583558  0.61485915241524 -1.26433478827883
 7  1.84297468906891 -0.77749932293229 -0.48317679527953
 7  2.40956649854986  1.90848659415942 -0.61854860156016
 6 -4.83399979117912  1.29774127112711 -0.06079027922792
 6 -4.34766215901590  0.35669583488349  1.17703506120612
 6 -2.92985808140814  0.10116037273727  1.33906591959196
 6 -1.93040213691369  0.61214617181718  2.04471764136414
 6 -0.72593920422042 -0.09810524602460  1.76563724132413
 6 -1.00867505530553 -1.02787584648465  0.78658047744774
 6 -6.33879623572357  1.41768955825583 -0.07519273467347
 6  0.63198180478048  0.09813048954895  2.51954097419742
 6 -6.69002951745175  0.94432368076808 -1.29210493919392
 6 -0.09665592169217 -2.15362409930993  0.25232731423142
 6  1.14747164336434 -1.91151069766977 -0.31655323752375
 6 -5.46500710101010  0.54103231793179 -2.16689400090009
 6  2.04774886008601 -2.94613515191519 -0.84519152845285
 6 -2.18085378627863  1.79899565646565  3.03740813101310
 6 -7.06929442264226  2.15965409460946  1.05327931383138
 6  3.18548488218822 -2.36584653585359 -1.28195944104410
 6  1.15396142344234  1.44613310671067  2.37365100100010
 6  3.08843691899190 -0.90481910751075 -1.12796678487849
 6  1.65399917011701 -4.41114707910791 -0.91663338023802
 6 -8.02249815581558  0.83983562116212 -1.96675506330633
 6  1.85791335693569 -5.06133706830683  0.44840083558356
 6  4.35818142714272 -3.03430189898990 -1.84820405170517
 6  3.91440231083108  0.13873327682768 -1.51637632003200
 6  2.56857747894789  1.53558114631463  2.84790068996900
 6  3.54552893069307  1.48756416791679 -1.24542110941094
 6 -9.20653563696370  0.97574973527353 -1.26625144044404
 6  1.35572063676368 -6.49500615081508  0.32939159815982
 6  4.50511934653465  2.70058681358136 -1.37345442854285
 6  3.78754802320232  3.84879540324032 -1.05137643194319
 6  2.50512208300830  3.34694254535454 -0.38512727542754
 6  5.92321592689269  2.43268810941094 -1.90926288138814
 6  4.20131575137514  5.28052292809281 -1.04166618001800
 6  6.75244530213021  3.47795348014801 -2.20666514341434
 1 -4.40033451955196  2.36123720382038  0.17752079237924
 1 -5.18152280918092 -0.49163063916392  1.07527227142714
 1 -4.70863770367037  1.07245124482448  2.01076798649865
 1 -2.65360440034003 -1.24987238273827 -0.54280120192019
 1 -3.45313631093109  0.90646256335634 -1.66970452135213
 1  0.50246468116812 -0.07250693869387  3.59356890499050
 1  1.28940294969497 -0.71065573297330  2.26301143394339
 1 -0.54613327422742 -3.13475094009401  0.06321132343234
 1 -3.34912505780578  1.72825408950895  3.42669265896590
 1 -1.60425164026403  1.74068343224323  4.04337272517252
 1 -1.79324570567057  2.77087090689069  2.94843226502650
 1 -6.33880733163316  2.33910271377138  2.01813404640464
 1 -7.92307207420742  1.46111592079208  1.48794580528053
 1 -7.46130206740674  3.04301038413841  0.49259773997400
 1  1.30612332073207  1.70502253885389  1.24801286858686
 1  0.54832794529453  2.14978180018002  2.96109193339334
 1  1.78317264366437  0.06000664566457 -0.12738810411041
 1  2.16749454165417 -5.07819164956496 -1.75562017171717
 1  0.50910270777078 -4.34706455395540 -1.23608209160916
 1 -7.97251831363136  0.58681891249125 -3.00872681088109
 1  1.23765595449545 -4.80965214491449  1.26186376297630
 1  3.05040131023102 -4.91477868236824  0.83847166206621
 1  4.21989705200520 -4.05060251245124 -2.14187764886489
 1  5.25702680108011 -2.84458330853085 -1.13814743234323
 1  4.66363779687969 -2.68040027262726 -2.88319739333933
 1  4.77742736223622 -0.16318841334133 -2.05125130083008
 1 -9.28268186868687  1.05876333183318 -0.14808749854985
 1 -10.18300643424342  0.93151456715672 -1.86619271927193
 1  3.86600128662866  2.66814019771977  3.41857662336234
 1  6.15974944314431  1.44123627282728 -2.08107692269227
 1  4.96138683848385  5.56900966516652 -0.61565018491849
 1  4.45147717021702  5.54769153485349 -2.06310885578558
 1  3.20137780738074  6.02258186458646 -0.90858259985999
 1  1.75918322642264 -7.98567972507251  1.74640069496950
 1  7.69001144554456  3.24609014891489 -2.87793506680668
 1  6.53112500000000  4.57502301450145 -2.14855720822082

