%nproc=4
%Mem=4GB
# td=(NStates=1) B3LYP/SVP 

TD

0 1
 8 -5.52533876387639  0.26352179177918 -3.40005979567957
 8  3.00514051955196  2.89060631533153  3.34883096149615
 8  3.40309865846585  0.70885628462846  3.18309019411941
 8  1.52357999749975 -7.13963023312331  1.65244375067507
 8  0.84094898289829 -7.11173759735974 -0.57567555045505
 8  1.81168821692169  4.07891101390139  0.01779128652865
 7 -2.24412402350235 -0.95790422062206  0.53926094269427
 7 -4.39611449284928  0.71158882538254 -1.33948230303030
 7  1.85292568416842 -0.64880645364536 -0.45683416101610
 7  2.55340088198820  2.00646639213921 -0.63471021772177
 6 -4.85761215241524  1.20567206420642 -0.02111631183118
 6 -4.35380277307731  0.22238240354035  1.21753911161116
 6 -2.88268336393639  0.05294555125513  1.24106611961196
 6 -1.86570566726673  0.66526148334833  2.08804197379738
 6 -0.66159276957696  0.06055061956196  1.79721039863986
 6 -0.84596878467847 -1.02146520542054  0.89764158355836
 6 -6.29724208030803  1.24703249254925 -0.15066028142814
 6  0.54740334693469  0.31697237373737  2.52551157125713
 6 -6.71968248274827  0.86525577397740 -1.39245497419742
 6 -0.09453570967097 -1.92934167106711  0.31356343784378
 6  1.21655855205521 -1.75997554415442 -0.30290187238724
 6 -5.51355195549555  0.60234844954495 -2.23323063456346
 6  1.97471155635564 -2.87821836023602 -0.94985199449945
 6 -2.16356205710571  1.77624338123812  3.02235662586259
 6 -7.13698119131913  1.58385651485149  1.10153413931393
 6  3.00938727242724 -2.30729068026803 -1.45147639273927
 6  1.12876890419042  1.69933842724272  2.66823045894589
 6  3.05529360466047 -0.90029865546555 -1.07671165936594
 6  1.55289906010601 -4.37297326172617 -0.94873659055906
 6 -8.01741764776478  0.71578321592159 -1.96816520432043
 6  1.83433099869987 -5.19595052965296  0.38998499399940
 6  4.13373898289829 -3.00692916171617 -2.09069830113011
 6  3.91951282188219  0.03868327182718 -1.37221190359036
 6  2.60448106930693  1.68893648184818  3.05637153705371
 6  3.59594397219722  1.51216662816282 -1.12069863716372
 6 -9.25611059445945  0.75309747004701 -1.40923573887389
 6  1.27036210091009 -6.60949759996000  0.43087174617462
 6  4.55110394499450  2.58500525542554 -1.53548063116312
 6  4.04784405280528  3.71621214491449 -0.99212050635064
 6  2.68571014181418  3.38392624372437 -0.43213197589759
 6  5.71896550185019  2.39830467106711 -2.15903785888589
 6  4.33403902370237  5.18764364016402 -0.99049106250625
 6  6.75055511311131  3.31014669946995 -2.47055153205320
 1 -4.36019050515052  2.15161624172417  0.06802984328433
 1 -4.79590424732473 -0.60306178227823  1.04192893709371
 1 -4.73360019991999  0.83774777447745  2.15139204890489
 1 -2.76399543944394 -1.52368976447645 -0.26987390919092
 1 -3.48911990929093  0.81393331043104 -1.64445199609961
 1  0.43669810451045  0.02078239023902  3.49048859695970
 1  1.24595860526053 -0.49618428582858  2.25019015181518
 1 -0.61107976887689 -2.89120658565857  0.08984398669867
 1 -3.27820796609661  1.93260452455246  3.30677066676668
 1 -1.73386460156016  1.53758312221222  4.17426581448145
 1 -1.66680306140614  2.66292011181118  2.64005142694269
 1 -6.56598004890489  1.98626743024302  1.98827106010601
 1 -7.55819558655866  0.69983979317932  1.47337434813481
 1 -8.11891782898290  2.21492757585759  0.63104158435844
 1  1.16049875827583  2.34972700930093  1.87929599689969
 1  0.56184929742974  2.33261008300830  3.29425524972497
 1  1.39290361676168  0.31504214921492 -0.28460382568257
 1  2.13605139733973 -4.87877170757076 -1.70546515621562
 1  0.49774157165717 -4.44151399889989 -1.14619310271027
 1 -8.06107716951695  0.51071130173017 -3.01016695489549
 1  1.32319450835083 -4.77666884658466  1.50080765736574
 1  2.93836010611061 -5.06526373087309  0.83347116201620
 1  3.98346340864086 -3.92279973217322 -2.50912437353735
 1  4.87358845724572 -3.14192304250425 -1.38932254985499
 1  4.82272370547055 -2.25814804740474 -2.96564563816382
 1  4.62128174767477 -0.39181127562756 -1.97756393209321
 1 -9.60401400190019  0.95255271077108 -0.32335502530253
 1 -10.03270140374038  0.60777219291929 -1.96010211021102
 1  4.05374006050605  2.88723210691069  3.28162292799280
 1  6.07093056125613  1.45631778097810 -2.44062287728773
 1  5.32191289108911  5.30490325452545 -0.47267588748875
 1  4.72785480798080  5.51568833453345 -2.12101464636464
 1  3.61235890549055  5.74537414381438 -0.61952369396940
 1  1.04540184828483 -8.04197535463546  1.76382243714372
 1  7.47850029442944  2.80910645054505 -3.10580785408541
 1  6.63164505200520  4.45829134133413 -2.38151050355036

