%nproc=4
%Mem=3GB
# td=(NStates=1) B3LYP/SVP 

TD

0 1
 8 -3.39553646384638 -1.41278633413341 -2.94279493379338
 8  3.12746320112011  3.08234989348935  3.02240651155115
 8  3.72589689788979  1.44054118241824  4.40364480808081
 8  7.76650525342534 -1.50586670087009 -0.59736049784978
 8  6.71207536393639 -2.78102889778978 -2.03231968006801
 8 -2.53158406490649  1.61948743784378  1.47955801630163
 7 -0.21052679887989 -2.50951726602660  0.87714255505551
 7 -2.63370540854085 -1.20903603860386 -0.63695584018402
 7  1.16889843924392  0.04887579727973 -0.71284622182218
 7 -0.93498264376438  1.48456386428643 -0.15420631853185
 6 -3.32192734243424 -1.25246280868087  0.59639661356136
 6 -2.70929955605561 -2.39725387158716  1.49265457225723
 6 -1.24029967166717 -2.10513832783278  1.74089207780778
 6 -0.59851965426543 -1.29459065076508  2.82980100060006
 6  0.73199431203120 -1.15044004500450  2.55335653025303
 6  1.04100678687869 -1.97270370507051  1.29180398439844
 6 -4.75883082968297 -1.80058570727073  0.33150003730373
 6  1.93159775117512 -0.45110544014401  3.15410756525653
 6 -4.78464482588259 -1.93938264666467 -1.06278661916192
 6  2.12855081148115 -1.90880907310731  0.40836311501150
 6  2.16408243014301 -0.94093600580058 -0.56871077257726
 6 -3.55880054995500 -1.46802876817682 -1.70549783318332
 6  3.01252231543154 -0.69821056935694 -1.74416831573157
 6 -1.50358893109311 -0.49565342234223  3.78514402270227
 6 -5.85996122022202 -2.00184666496650  1.29569057465747
 6  2.51983164006401  0.44323169136914 -2.46289089908991
 6  1.95072450485048  1.00931662366237  2.72242888448845
 6  1.40164353085309  0.89296594519452 -1.79794590059006
 6  4.27992334143414 -1.48039746884688 -1.94612424252425
 6 -5.87614195029503 -2.51639372977298 -1.99620306850685
 6  5.36999255025503 -1.05857760296030 -1.12593601050105
 6  3.06960705610561  0.98535693829383 -3.76381289048905
 6  0.54676710081008  2.03318846574657 -1.95469721482148
 6  3.05282392269227  1.78424801030103  3.43773911911191
 6 -0.59795362696270  2.26403103530353 -1.14365965386539
 6 -6.95794972147215 -3.10781454555456 -1.62534109280928
 6  6.66402597219722 -1.85620387548755 -1.40716140614061
 6 -1.48757741254125  3.53607584078408 -1.23414148884888
 6 -2.34913900330033  3.36626710571057 -0.21366927312731
 6 -1.99946221862186  2.09750068356836  0.41365029702970
 6 -1.28220819921992  4.61648790899090 -2.20155192319232
 6 -3.40552118861886  4.32991347424742  0.33845808550855
 6 -2.06086997819782  5.70087550575058 -2.45956968976898
 1 -3.30027852105210 -0.43960945084508  1.24562876747675
 1 -2.64858648504851 -3.35164028902890  0.90502085118512
 1 -3.15199501930193 -2.63442688708871  2.36086547524753
 1 -0.15134043884388 -3.34045281038104  0.07237424742474
 1 -1.89576796649665 -0.51202750625062 -0.77896199859986
 1  1.82908086948695 -0.61612306610661  4.33293539263926
 1  2.91891922482248 -1.10556244754475  2.91475640504050
 1  2.93035184908491 -2.83261484438444  0.10899395259526
 1 -2.15765839513951 -1.33097237123712  4.02531959375938
 1 -0.91249101710171 -0.04633883748375  4.53044940144014
 1 -2.07671698549855  0.36150859755976  3.41308007330733
 1 -5.79712049924992 -1.19319745094509  2.13713800680068
 1 -5.62777153785378 -2.94883898849885  1.98056090239024
 1 -6.86557393419342 -2.02940858425843  0.71821818351835
 1  1.83660980038004  1.10716065796580  1.62617022832283
 1  0.93070302180218  1.27463970827083  3.07788576227623
 1  0.37208546614661  0.18757312711271 -0.28178021032103
 1  4.57650336953695 -1.67325038403840 -3.05801140304030
 1  3.96341717151715 -2.42098387758776 -1.57697480548055
 1 -5.78729086748675 -2.26875780038004 -3.10227369116912
 1  5.04874279557956 -1.25234571447145 -0.05326210251025
 1  5.59878131943194  0.13253625752575 -1.30998548104811
 1  3.49619953145315 -0.02137564546455 -4.31428965846585
 1  4.03054880648065  1.72730380908091 -3.56785912131213
 1  2.28619440874087  1.48706320422042 -4.38112126412641
 1  0.67692160216022  2.61681317781778 -2.90461135313531
 1 -7.00914000010001 -3.33517570147015 -0.48312733393339
 1 -7.68476674157416 -3.68902023252325 -2.37711076457646
 1  3.76638036553655  3.69515887688769  3.68469172337234
 1 -0.33038691749175  4.59017029652965 -2.80095799119912
 1 -4.22248083768377  4.49500608240824 -0.28584973647365
 1 -3.65221397109711  4.05554034763476  1.40393120452045
 1 -3.06248456465647  5.30364065516552  0.52537830773077
 1  8.60003569706971 -2.22757591179118 -1.08603923892389
 1 -1.72390531513151  6.28371882898290 -3.30509536173617
 1 -2.83965631853185  5.87325870167017 -1.89476538403840

