%nproc=4
%Mem=4GB
# td=(NStates=1) B3LYP/SVP 

TD

0 1
 8 -5.33543977397740  0.26415185478548 -3.26112590229023
 8  2.97056706220622  2.80611786648665  3.29538561696170
 8  3.33248159675968  0.63436883588359  3.18957084218422
 8  1.95385302480248 -7.28535480558056  1.37937644394439
 8  0.84347923592359 -7.10739716331633 -0.51484946784678
 8  1.78317536563656  4.06331945474547  0.10749025642564
 7 -2.38231784288429 -0.93590202040204  0.63460047664766
 7 -4.28611349274928  0.66414408090809 -1.18973732853285
 7  1.84737512911291 -0.76579815281528 -0.27484596219622
 7  2.47546308820882  1.91405715121512 -0.49229597629763
 6 -4.79117550875088  1.20743224022402 -0.01866606680668
 6 -4.42726011881188  0.28109827512751  1.22000935863586
 6 -3.01159625522552  0.02426268296830  1.36352836583658
 6 -1.95737483418342  0.60880583778378  2.11610478007801
 6 -0.75617222752275  0.01507607210721  1.85357603520352
 6 -1.02317650545055 -1.02179523842384  0.94129594899490
 6 -6.17650000610061  1.50533832313231 -0.19729494489449
 6  0.49455806240624  0.23884456095610  2.54253327342734
 6 -6.63538405290529  1.05375462386239 -1.33303903260326
 6 -0.20836709280928 -1.99636837373737  0.19265134663466
 6  1.13173006920692 -1.87254680128013 -0.18668025022502
 6 -5.37862846314632  0.59694790949095 -2.08807611911191
 6  1.98204228942894 -2.89073961236124 -0.82662967226723
 6 -2.32390809170917  1.61744750165016  3.14501889208921
 6 -7.14909240244024  2.04734286348635  0.93420740664066
 6  3.10241657535754 -2.39305925712571 -1.25353659875988
 6  1.14103013031303  1.60631912531253  2.56019965586559
 6  3.01133920922092 -0.95259388498850 -0.94313830203020
 6  1.42793656385639 -4.32283824822482 -0.85862757965797
 6 -7.94169007500750  1.05164680228023 -2.12948133593359
 6  2.01923948954895 -5.14406534113411  0.37259325482548
 6  4.26460206920692 -3.03328179697970 -1.90081931323132
 6  3.84252512311231  0.08605800930093 -1.29929461186119
 6  2.56470709190919  1.53950153835384  3.06649254915492
 6  3.67410178797880  1.42380779227923 -1.04586115341534
 6 -9.12594757815782  0.77121928222822 -1.52677749304930
 6  1.51033609830983 -6.61173782398240  0.33427208620862
 6  4.54229306390639  2.59994674957496 -1.58428551165117
 6  3.85124439283928  3.75877640134013 -1.11535282958296
 6  2.62415398619862  3.26545439653965 -0.44241300400040
 6  5.78910251555155  2.46569140974097 -2.38615057015702
 6  4.09999561936194  5.21116599239924 -1.45271728512851
 6  6.61581163876388  3.52459814461446 -2.57737221412141
 1 -4.02690717681768  2.03720480058006  0.09901294159416
 1 -5.06943160006001 -0.54445592169217  0.94669941414141
 1 -4.76197303720372  0.76539053875388  2.19771668136814
 1 -2.77953699359936 -1.45213260876088 -0.09062598439844
 1 -3.45102609990999  0.68243016011601 -1.60821837273727
 1  0.14877931263126 -0.11845153315332  3.46841638973897
 1  1.23489749914992 -0.50157482488249  2.05822095489549
 1 -0.79585824672467 -2.83495096009601 -0.03861885958596
 1 -3.39064921022102  1.30175143924392  3.89285927562756
 1 -1.48560977607761  1.57791715561556  3.82973136103610
 1 -2.49920630173017  2.88074189398940  2.72358978077808
 1 -6.62650610151015  2.63364216771677  1.71598383138314
 1 -7.72824259125913  1.28854866406641  1.46399341004100
 1 -7.75875181238124  2.69276535963596  0.30062854305431
 1  1.25159786818682  2.05555759235924  1.62116018331833
 1  0.68682179467947  2.19501632363236  3.32206803100310
 1  1.49954428082808  0.17727837283728 -0.22932829812981
 1  1.84273206540654 -4.70307413781378 -1.94970958065807
 1  0.32249404690469 -4.34203405090509 -0.98814729812981
 1 -7.71611267306731  1.03513374397440 -3.07256319451945
 1  1.61983417231723 -4.61296247594759  1.20869844644464
 1  3.26860313041304 -5.10697790229023  0.44995281018102
 1  4.11055611791179 -4.15065251745174 -2.04703816491649
 1  5.12121321972197 -2.93958280848085 -1.43853747134713
 1  4.26713814691469 -2.55219745234523 -3.07637671127113
 1  4.65909552905291 -0.12350444494449 -1.90627680338034
 1 -9.43295689618962  0.41787924342434 -0.63091578137814
 1 -10.10690882448245  0.72665408110811 -2.15661176117612
 1  3.98915360186019  2.90009339303930  3.15751051675168
 1  5.90702417061706  1.38627077627763 -3.11603041804181
 1  5.08649934973497  5.61135389958996 -1.06494511441144
 1  4.19802182468247  5.29007577327733 -2.67672021692169
 1  3.07955562516252  5.85490509690969 -1.23639538113811
 1  1.50505781388139 -8.16381753885389  1.16015207010701
 1  7.55910835523552  3.50257579747975 -3.13343061636164
 1  6.50876276377638  4.58946445864587 -1.87500985348535

