%nproc=4
%Mem=3GB
# td=(NStates=1) B3LYP/SVP 

TD

0 1
 8 -3.41416832703270 -1.25099015451545 -2.85711636593659
 8  2.93871432623262  3.24381604010401  3.06702097299730
 8  3.62022633083308  1.50741787008701  4.33572801640164
 8  7.76799540244024 -1.42870898509851 -0.83781454325433
 8  6.52030618701870 -3.21785258015802 -1.79157560566057
 8 -2.75831673817382  1.61814730383038  1.23605366586659
 7 -0.17166291249125 -2.47391370567057  0.92031687248725
 7 -2.66985902390239 -1.15699083408341 -0.60909305390539
 7  1.05639718911891  0.04134504420442 -0.77929286648665
 7 -0.98908805430543  1.42620802870287 -0.25496639453945
 6 -3.36863201290129 -1.33680124252425  0.67260423432343
 6 -2.61535016111611 -2.41886603280328  1.58684399119912
 6 -1.16582222392239 -2.08098591259126  1.76768475707571
 6 -0.58898870117012 -1.33025421712171  2.82121014151415
 6  0.77757887048705 -1.18453345434543  2.46784797939794
 6  0.98504119031903 -1.87203363806381  1.30673547754775
 6 -4.71786673327333 -1.93807945664566  0.27826471377138
 6  1.83882847424742 -0.50571090069007  3.12813496799680
 6 -4.81842820422042 -2.17185589398940 -1.03458379887989
 6  2.09499745614561 -1.95019321152115  0.27822010071007
 6  2.09621564346435 -0.96796870907091 -0.64628853035304
 6 -3.56331100100010 -1.52688465376538 -1.66761404480448
 6  2.96620768396840 -0.69708045634563 -1.76056995589559
 6 -1.33533210541054 -0.60729458645865  3.80159566786679
 6 -5.71903712781278 -2.31961844214421  1.45244625022502
 6  2.53181283818382  0.52165953415342 -2.37700231023102
 6  1.97351678407841  1.03616930893089  2.70172681428143
 6  1.36398976547655  0.96716336493649 -1.73102920892089
 6  4.26534188328833 -1.47575700480048 -2.09616924702470
 6 -5.85074941104110 -2.45963805420542 -1.92978642684268
 6  5.38947449844984 -1.14659640484048 -1.08214163106311
 6  3.12963305870587  1.24613301590159 -3.59027553675368
 6  0.56788921302130  2.11551669856986 -2.02214395949595
 6  2.90865950625063  1.95438502400240  3.41533687888789
 6 -0.51409524112411  2.27695232743274 -1.30282557045705
 6 -6.92609653615362 -3.29557332143214 -1.63424198289829
 6  6.64681425102510 -1.97119537463746 -1.35487617761776
 6 -1.40582923772377  3.52686491969197 -1.30964903960396
 6 -2.33399748914891  3.43579405840584 -0.25678358455846
 6 -2.03611588398840  2.09555048854885  0.28570750275028
 6 -1.14223420182018  4.69889614981498 -2.17420918891889
 6 -3.29945058155816  4.35103558645865  0.25452969266927
 6 -1.68731262246225  5.92083750195020 -2.15256898969897
 1 -3.35134362756276 -0.42087757765777  1.31139534413441
 1 -2.73342496889689 -3.30256538153815  0.97207755685569
 1 -3.02758257805781 -2.40824426882688  2.63383277197720
 1 -0.45491079587959 -2.95208397349735  0.08545555555556
 1 -1.89881827152715 -0.50298660216022 -0.86500060246025
 1  1.86638459985999 -0.35239669346935  4.27508960806081
 1  2.84609194209421 -0.75721761306131  2.79419434883488
 1  2.96451526542654 -2.73523510641064  0.43222627582758
 1 -2.27302993229323 -1.14840411441144  4.17100416221622
 1 -0.59201896989699 -0.51185538913891  4.60152650915092
 1 -1.67910722452245  0.49843228992899  3.53501226652665
 1 -5.19875066226623 -1.81715984718472  2.44369866286629
 1 -5.78767752845285 -3.44532863746375  1.66046889318932
 1 -6.65547292409241 -1.83294893829383  1.12938930063006
 1  2.24109024842484  1.24821476337634  1.66699431073107
 1  1.00384033553355  1.58149039333933  2.79556753045305
 1  0.28375663326333  0.27591196099610 -0.21322335463546
 1  4.64850056925693 -1.17460051905190 -3.17155275717572
 1  3.99882071187119 -2.62928470767077 -1.99816692469247
 1 -5.89163130153015 -1.90395131973197 -3.01840530433043
 1  4.87914583588359 -1.36580706060606 -0.03942071837184
 1  5.74129557085709 -0.13252024812481 -1.12912739523952
 1  4.00764067556756  0.52268876097610 -3.81953018251825
 1  3.26733248484849  2.30875195389539 -3.32208454385438
 1  2.23333912321232  1.23634813271327 -4.30039319131913
 1  0.85543945394540  2.66863836033603 -2.88242913491349
 1 -6.85554464056406 -3.88502068596860 -0.57610663186319
 1 -7.77978624352435 -3.32072340284028 -2.20575362886289
 1  3.72385611311131  3.44547390839084  3.58441169536954
 1 -0.39264314311431  4.51044232373237 -3.01816971237124
 1 -3.92746133573357  4.75291187298730 -0.51053220472047
 1 -3.59994874457446  3.75503029662966  1.22645345674567
 1 -2.65827414361436  5.22648293939394  0.83420919081908
 1  8.47145283878388 -2.12743589778978 -1.10623125812581
 1 -1.48413133773377  6.67449790689069 -2.82229708190819
 1 -2.57506985988599  5.99322069786979 -1.41387729522952

