%nproc=4
%Mem=3GB
# td=(NStates=1) B3LYP/SVP 

TD

0 1
 8 -3.15991290149015 -1.31375643114311 -2.78615927022702
 8  3.12737319211921  3.08038969746975  2.90688495939594
 8  3.67156146434643  1.51678880718072  4.35991043464346
 8  7.61110971387139 -1.69239535373537 -0.58385914771477
 8  6.70420457685769 -2.85377617251725 -2.27423387148715
 8 -2.70083098959896  1.77616310541054  1.46159622012201
 7 -0.29338508470847 -2.27739405370537  0.78238307910791
 7 -2.62095413341334 -1.34090922592259 -0.51151329592959
 7  1.17853940334033  0.10329123882388 -0.59797473467347
 7 -0.96386553205321  1.53777918581858 -0.10059095699570
 6 -3.36810195989599 -1.37574513691369  0.69212618651865
 6 -2.68216684278428 -2.42366651285128  1.62486779357936
 6 -1.21152679437944 -2.04504231823182  1.76217420602060
 6 -0.60574037633763 -1.45179637133713  2.90095811631163
 6  0.83918503110311 -1.29189419041904  2.51516271087109
 6  0.92876556275628 -1.85448188288829  1.24965976997700
 6 -4.72337728432843 -1.93569921862186  0.26043293059306
 6  1.79565415681568 -0.39431976157616  3.23490564506451
 6 -4.70305666706671 -1.99243795219522 -1.10262060256026
 6  2.11919987638764 -1.88395658785879  0.38909118781878
 6  2.10573659555956 -0.90320223242324 -0.63366726822682
 6 -3.41627629752975 -1.52903486878688 -1.64247153055306
 6  2.95764682788279 -0.63526427472747 -1.79416331523152
 6 -1.40200877307731 -0.80383424042404  3.97475298359836
 6 -5.91867709180918 -1.99610609090909  1.29751075667567
 6  2.56525618251825  0.42362973117312 -2.49542415241524
 6  1.86314574697470  1.03842953495350  2.77280392199220
 6  1.35638900540054  0.85152180078008 -1.70922702870287
 6  4.22806815591559 -1.52626205530553 -2.14439406950695
 6 -5.71162549864987 -2.47665975637564 -2.02920636883688
 6  5.49811536253625 -1.15076682188219 -1.16665008190819
 6  3.22289238463846  1.14552295489549 -3.60369687888789
 6  0.48150057415742  2.01139628652865 -2.04581632673267
 6  2.93449208950895  1.86910649614961  3.49766511171117
 6 -0.56101993359336  2.33168780098010 -1.21963725162516
 6 -6.87283120962096 -3.19145290939094 -1.64567312601260
 6  6.65417498709871 -1.99806806190619 -1.44692538253825
 6 -1.35753440824082  3.51764399759976 -1.31566964166417
 6 -2.34072816221622  3.42115259425943 -0.20995890209021
 6 -2.02801507390739  2.13365429892989  0.48928786078608
 6 -1.36164614301430  4.60094635483548 -2.31523329132913
 6 -3.37995863236324  4.41702218511851  0.32825706540654
 6 -2.00386427762776  5.75289070727073 -2.49504323712371
 1 -3.41205969916992 -0.34026951685168  1.21213541814181
 1 -2.80217184358436 -3.39704482948295  1.12132248134814
 1 -3.02816263606361 -2.46318976337634  2.69283867256726
 1 -0.25471077587759 -2.86120488558856 -0.00904389438944
 1 -1.93696208590859 -0.45606190969097 -0.55342944534453
 1  1.51051901330133 -0.08824027782778  4.48754085318532
 1  2.69486681958196 -0.84953684498450  3.11548647804781
 1  2.54240305420542 -3.03419500240024  0.12226527972797
 1 -2.37916054535454 -1.27364663866387  4.20013707550755
 1 -0.81860162816282 -0.66205040864086  4.99742609910991
 1 -1.78222753655366  0.11715416211621  3.60621938723872
 1 -5.86311709890989 -1.33202133333333  2.17113140614061
 1 -6.21225998669867 -3.06172027662766  1.72986583288329
 1 -6.74532190899090 -1.69262490589059  0.84192055375538
 1  1.74486062546255  1.36377631953195  1.56553416471647
 1  0.81356130763076  1.71751399569957  3.01613958765877
 1  0.34367262486249  0.38314268406841 -0.08550058235824
 1  4.67810352955296 -1.30485354435443 -3.18530413231323
 1  3.96589741954195 -2.51635341454145 -1.96015312331233
 1 -5.37595973437344 -2.25409633423342 -3.08514197799780
 1  5.48132605390539 -1.00369084898490 -0.02154893119312
 1  5.92049349064906 -0.06015301140114 -1.25320980348035
 1  3.92487239873987  0.31957844994500 -3.96904513401340
 1  3.71058681028103  2.15227630633063 -3.25016735213521
 1  2.40564635393539  1.37415191309131 -4.20901405340534
 1  0.83136704670467  2.72226372287229 -2.74165505750575
 1 -6.88102718881888 -3.37263944784478 -0.59203822502250
 1 -7.43946221112111 -3.68685001550155 -2.38136118961896
 1  3.86418014551455  3.55861522252225  3.37356061026103
 1 -0.62994687348735  4.44180546004600 -3.18310620602060
 1 -4.21736032563256  4.56275285708571 -0.32451360286029
 1 -3.78887763746375  3.74803959755976  1.06650746214622
 1 -3.20278859505951  5.46001629272927  0.72262803270327
 1  8.39471516501650 -2.25634878907891 -0.81936257125713
 1 -2.04901782638264  6.46139659675968 -3.48722357455746
 1 -2.50699305220522  6.03404478027803 -1.67483339083908

