%nproc=4
%Mem=3GB
# td=(NStates=1) B3LYP/SVP 

TD

0 1
 8 -3.33567047724772 -1.54361941744174 -2.82477313161316
 8  3.37689814461446  2.96713837233723  2.93505777667767
 8  3.62835714391439  1.39359648794879  4.44779922352235
 8  7.79955855875588 -1.29518563276328 -0.71270203200320
 8  6.77409156555656 -2.84652544744474 -1.89018546664666
 8 -2.68513942044204  1.69546503560356  1.40679073957396
 7 -0.28912465866587 -2.50595690999100  0.95489032983298
 7 -2.76834887288729 -1.22339747474747 -0.58900104470447
 7  1.09243079247925 -0.04551364166417 -0.86818175537554
 7 -1.01001014651465  1.35633104100410 -0.19394029192919
 6 -3.52766791649165 -1.31487905030503  0.67818479237924
 6 -2.70379900600060 -2.26947109330933  1.56498180498050
 6 -1.31096673837384 -2.01231904590459  1.76653464206421
 6 -0.61349115141514 -1.20357154885489  2.79625764626463
 6  0.70849196179618 -1.18512351335134  2.45070626522652
 6  0.92778546474647 -1.90746718141814  1.19820462446245
 6 -4.72877782438244 -1.89056470517052  0.32528941624162
 6  1.79779437083708 -0.40674100370037  3.07362951745174
 6 -4.89988635003500 -2.06771547994799 -0.99028936943694
 6  2.08156611301130 -1.95253344554455  0.30789306800680
 6  2.05867188908891 -0.98559047124712 -0.75249915141514
 6 -3.56850152005200 -1.53672563786379 -1.65492277567757
 6  3.05886694989499 -0.69007975627563 -1.76596049494949
 6 -1.40909948214821 -0.53259711671167  3.72002751105110
 6 -5.80765598969897 -2.14248072837284  1.35326633223322
 6  2.66625628252825  0.51156852505251 -2.51229583958396
 6  2.01240067246725  1.05769146114611  2.72703934553455
 6  1.41065443194319  0.95679232783278 -1.85482158815882
 6  4.29062441154115 -1.51714114321432 -1.99933956405641
 6 -6.00951528762876 -2.46903899429943 -1.91124457265727
 6  5.43035858685869 -0.91007275247525 -1.10448386528653
 6  3.42863295869587  1.14767316991699 -3.53983049224922
 6  0.52060448454845  1.95224037093709 -2.14359610471047
 6  3.13857249754976  1.76615620112011  3.44270961616162
 6 -0.53920775237524  2.22501713391339 -1.17667295519552
 6 -7.11336526302630 -3.05433919801980 -1.59064762346235
 6  6.74607417701770 -1.80134838993899 -1.26310700070007
 6 -1.30104875967597  3.47055928912891 -1.14730280498050
 6 -2.27175126452645  3.35656613561356 -0.25182308850885
 6 -2.05902817521752  2.02027296079608  0.45104403640364
 6 -1.34272425082508  4.60398665886589 -2.16840860886089
 6 -3.31807244374437  4.29426990989099  0.16132037173717
 6 -1.97671156235624  5.76750216841684 -2.19314304710471
 1 -3.59230772397240 -0.41432692259226  1.19572377697770
 1 -2.68636026242624 -3.31210633563356  1.26765711481148
 1 -3.15371519131913 -1.99276272067207  2.54695408410841
 1 -0.75849115391539 -2.89497826292629  0.14692170217022
 1 -2.20804919461946 -0.49942624612461 -0.66035013741374
 1  1.58486644804480 -0.45683713751375  4.13389548864886
 1  2.74693202610261 -1.15092698399840  2.84674960436044
 1  3.03963277717772 -2.66635821872187  0.56442949614961
 1 -2.15300793009301 -1.01621089508951  4.23296035783578
 1 -0.77985775377538  0.08247404380438  4.54287064356436
 1 -1.98028734253425  0.44063651035104  3.21163992929293
 1 -5.96805759295930 -1.30071820302030  2.21907620062006
 1 -5.62857161786179 -3.24323842844284  1.72927577387739
 1 -6.87589496629663 -2.02985862926293  0.61365772747275
 1  2.23463960336034  1.18774871677168  1.64906251755176
 1  1.11272122362236  1.64359660396040  2.92562053575358
 1  0.08137639523952  0.08328269806981 -0.45580761306131
 1  4.55167088628863 -1.42348540754075 -3.01699730163016
 1  4.12117294709471 -2.57739951915192 -1.72983009100910
 1 -5.73312545094509 -2.35638656325633 -2.97934139793979
 1  4.92927084838484 -0.93488396829683 -0.14753152945294
 1  5.60326176747675  0.16285928982898 -1.43173765626563
 1  4.24508441994199  0.36534302640264 -4.04241247074707
 1  4.28265401700170  1.89066014471447 -3.31644397979798
 1  2.68643443274327  1.54878937683768 -4.34614776677668
 1  0.74906881688169  2.71496299279928 -3.03263415541554
 1 -7.43680276637664 -3.36885906980698 -0.60751977317732
 1 -8.06915518041804 -3.27142847334733 -2.32616567006701
 1  4.04158788628863  3.41445080608061  3.45629888408841
 1 -0.78194207300730  4.34314559405941 -3.06859475487549
 1 -3.80210880048005  4.86156273807381 -0.69343049454945
 1 -4.20710946064607  3.87071186478648  0.77064787618762
 1 -2.78584690089009  5.08697898899890  0.90757652755276
 1  8.58690438393839 -1.91973512771277 -0.89196983198320
 1 -1.81890481508151  6.50123058015802 -2.94339919211921
 1 -2.46517887078708  6.30976235203520 -1.18428433593359

