%nproc=4
%Mem=3GB
# td=(NStates=1) B3LYP/SVP 

TD

0 1
 8 -3.17052396259626 -1.25337039253925 -2.87083773807381
 8  2.86934738953895  3.10933259175918  2.94740901180118
 8  3.35060936913691  1.63581070937094  4.63998844244424
 8  7.84888349124912 -1.57223333753375 -0.86610737253725
 8  6.61577573397340 -3.03008380328033 -2.24418086618662
 8 -2.61171207770777  1.61949743884388  1.54538459895990
 7 -0.33898964516452 -2.50068638293829  0.93801864266427
 7 -2.71376341434143 -1.09864499949995 -0.54947709230923
 7  1.14682623202320 -0.00601969226923 -0.78114305150515
 7 -0.98317746324632  1.47640304820482 -0.14465536343634
 6 -3.45398054775477 -1.26992455485549  0.70970794469447
 6 -2.64995362146215 -2.35418956515652  1.61191649844985
 6 -1.21002664436444 -2.15845365936594  1.81145913451345
 6 -0.56834663696370 -1.20801199289929  2.72918093859386
 6  0.72134324692469 -1.07145214621462  2.44023521812181
 6  0.91948463466347 -1.91392782748275  1.19303410741074
 6 -4.78632357895790 -1.89433508220822  0.26968385568557
 6  1.84248884028403 -0.33667399699970  3.11476363086309
 6 -4.78047440884088 -2.05826453485349 -1.05058539903990
 6  2.05458341474147 -1.93083127532753  0.28620089878988
 6  2.06121214311431 -1.02673458565857 -0.72598650015001
 6 -3.46988165806581 -1.35461742704270 -1.69297658105811
 6  3.07735879907991 -0.65375612391239 -1.78277217611761
 6 -1.29528810101010 -0.61122497949795  3.95404091239124
 6 -5.73904912901290 -2.08390487078708  1.36600760636064
 6  2.62843250015001  0.42151952015202 -2.42503711371137
 6  1.79800923332333  1.08989468146815  2.74768140974097
 6  1.29419278577858  0.84292094069407 -1.81803790979098
 6  4.22829817891789 -1.57714714381438 -1.96754638473847
 6 -5.79180351645164 -2.48962105250525 -1.98172162036204
 6  5.48376392739274 -1.05025677087709 -1.28685210211021
 6  3.16404650005001  1.12003040564056 -3.54309081828183
 6  0.54491691579158  1.92299744664466 -2.04396614171417
 6  2.76086472677268  1.88402798829883  3.60457580278028
 6 -0.57751158275828  2.26988162036204 -1.17387267516752
 6 -6.75154908140814 -3.38661242534253 -1.64637319601960
 6  6.68052762236224 -2.01153940904090 -1.51660235023502
 6 -1.33764241904190  3.43683591679168 -1.25910398509851
 6 -2.25073916331633  3.40810128912891 -0.18003590979098
 6 -1.97205947834783  2.15159609310931  0.57748668066807
 6 -1.19037901630163  4.54425068526853 -2.29587135513551
 6 -3.31831246774677  4.38321880478048  0.24296853655366
 6 -1.73785767696770  5.79617503570357 -2.29109284208421
 1 -3.46292478567857 -0.35174066396640  1.21495570017002
 1 -2.78920054645465 -3.32053717871787  1.13342369146915
 1 -3.05809562936294 -2.38794223862386  2.61649103780378
 1 -0.50393569836984 -3.03483224832483  0.05472248224822
 1 -1.90706909660966 -0.42154845834584 -0.46881098349835
 1  1.82414037543754 -0.51773322712271  4.32037413651365
 1  2.73205053795380 -0.86588848014802  2.50542547194719
 1  2.98680749464947 -2.65915749864986  0.35041809500950
 1 -1.87477010631063 -1.58552782678268  4.40753781558156
 1 -0.49221898989899 -0.15569977357736  4.75791214771477
 1 -2.09762907670767  0.20197264396440  3.66906567186719
 1 -5.83074386158616 -1.14034216541654  2.10465475847585
 1 -5.63892265296530 -3.21694579917992  1.78299114541454
 1 -6.84947232403240 -2.03934957835784  0.97598396009601
 1  1.95803194259426  1.06007594949495  1.74410202150215
 1  0.84805475697570  1.46816906120612  2.96052402610261
 1  0.34971322892289  0.09593396319632 -0.20426245854585
 1  4.44750046924692 -1.69921298029803 -3.05465106700670
 1  4.31013184298430 -2.58405018421842 -1.53965107310731
 1 -5.52470460886089 -2.09736066066607 -2.96470993479348
 1  5.34879280058006 -0.97903838373837 -0.12234901120112
 1  5.81304274557456 -0.16579357545755 -1.45554003650365
 1  4.07945785728573  0.70901739383938 -4.06443467296730
 1  3.40836658825883  2.33435451415142 -3.39809214461446
 1  2.33927971727173  1.32376687458746 -4.30807395939594
 1  0.82902681268127  2.30887238373837 -2.89641053305330
 1 -6.67296638273827 -3.74167635153515 -0.65883490469047
 1 -7.69752801770177 -3.57109844034403 -2.13916697019702
 1  3.38415214271427  3.69389875087509  3.65194844904490
 1 -0.57052093089309  4.40668194769477 -3.04212210761076
 1 -4.02770135973597  4.83735031683168 -0.63308445994599
 1 -3.86605535523552  3.81723651725173  1.00778158955896
 1 -3.00153847004700  5.32249254035404  0.79848561846185
 1  8.56848254175418 -2.17695084928493 -1.04198483348335
 1 -1.47584050865087  6.48143860096010 -3.15703055525553
 1 -2.68733108600860  6.22992436823682 -1.66686259375938

