%nproc=4
%Mem=4GB
# td=(NStates=1) B3LYP/SVP 

TD

0 1
 8 -5.46498272827283  0.03592903250325 -3.31818160786079
 8  3.23888389388939  2.64439169386939  3.07049312771277
 8  3.38633698229823  0.35445084408441  2.88922080718072
 8  1.72582022152215 -7.22446871697170  1.48767727402740
 8  0.47755264326433 -6.96705312891289 -0.29634761766177
 8  1.70431747984798  4.09522264506451  0.20140964836484
 7 -2.40739035013501 -1.05649407960796  0.67229424602460
 7 -4.38898377977798  0.46459412591259 -1.32299065386539
 7  1.82464285588559 -0.68224979797980 -0.36845532313231
 7  2.61763730563056  2.00944669016902 -0.25610235693569
 6 -4.74667105830583  1.16002749974997 -0.15282948314831
 6 -4.42917030983098  0.30830099539954  1.19549690739074
 6 -2.99798489408941 -0.02463220652065  1.37411942494249
 6 -2.00033913061306  0.61372632983298  2.09720288988899
 6 -0.71654826512651  0.02316688118812  1.74919559715972
 6 -1.02463665146515 -0.97193025192519  0.76874869426943
 6 -6.21043339943994  1.45307309660966 -0.23066828222822
 6  0.52313091969197  0.19988066456646  2.50329935003500
 6 -6.61997251175118  0.88779802820282 -1.36666239493949
 6 -0.23333959005901 -1.95832456935694  0.20192227372737
 6  1.10858775497550 -1.87253680028003 -0.32383396559656
 6 -5.50154075437544  0.39119733443344 -2.17900521202120
 6  1.97480156535654 -2.87601814021402 -0.92632964226423
 6 -2.21219692059206  1.68164392129213  3.09308369856986
 6 -6.98017551075108  2.00842897209721  0.85155914181418
 6  3.21506784048405 -2.26238618981898 -1.25518676377638
 6  1.16923295059506  1.58863735713571  2.73337697359736
 6  3.12580065536554 -0.85666429202920 -0.93523751195120
 6  1.61838560876088 -4.36829279367937 -1.01401311821182
 6 -8.00785669166917  0.93759539713971 -2.00671905970597
 6  1.92536010161016 -5.09093002760276  0.41716771227123
 6  4.39018462746275 -2.81994046284628 -1.94709394069407
 6  3.99167003760376  0.15031443494349 -1.21219590199020
 6  2.69723034423442  1.41841943014301  2.88654455435544
 6  3.75158953675368  1.57424283578358 -0.87574414171417
 6 -9.18591357475748  0.95465762606261 -1.39526434173417
 6  1.35415047974797 -6.50249689988999  0.47927658665867
 6  4.57892672727273  2.68716547144714 -1.36431351445145
 6  3.77860712911291  3.79775029872987 -1.07712900720072
 6  2.52429400020002  3.36998484958496 -0.30515927862786
 6  5.74953855915592  2.52741758235824 -2.23227518261826
 6  4.09984560436044  5.23856873267327 -1.42362437583758
 6  6.61289134673467  3.54688037283728 -2.71995647254725
 1 -4.21113559965997  2.20444152425242 -0.00702766246625
 1 -5.01258591549155 -0.55464694079408  1.00297504170417
 1 -4.56239307920792  0.98409240894089  1.99886679637964
 1 -2.78110715061506 -1.73694108960896  0.03074615281528
 1 -3.44381537883788  0.43856577367737 -1.76955450635064
 1  0.49822425712571 -0.23004269226923  3.62638218631863
 1  1.23215722512251 -0.64862953035304  1.99711484428443
 1 -0.68654731563156 -2.96271373637364  0.09441444374437
 1 -3.33841398669867  1.55365662976298  3.41409139883988
 1 -1.68938015311531  1.61268063196320  4.03453184108411
 1 -1.89086546764676  2.70141396119612  2.62307972977298
 1 -6.57871132203220  2.80030883438344  1.55391762476248
 1 -7.37367713471347  1.18705851505151  1.53917092779278
 1 -8.00292622982298  2.61155723882388  0.29679816001600
 1  1.12615532393239  2.31037307390739  1.97154522182218
 1  0.72563567606761  2.03225004700470  3.72566839103910
 1  1.63890821722172  0.25411605660566 -0.09455482078208
 1  2.13154094629463 -4.94012784318432 -1.77955256495650
 1  0.45700749824983 -4.50522036953695 -0.98584706810681
 1 -7.94166522832283  0.65140537113711 -3.01222716091609
 1  1.08829101800180 -4.45037621732173  1.05673324992499
 1  3.02317858795880 -5.12780998549855  0.61547936283628
 1  4.24460952325233 -3.80757821002100 -2.40427388848885
 1  5.28227932633263 -2.87913676387639 -1.24526814441444
 1  4.77580901400140 -2.24526675927593 -2.79218829242924
 1  5.06873649314932  0.12046995249525 -1.52813898959896
 1 -9.13691729222922  1.09275673117312 -0.17997068686869
 1 -10.17446558015802  0.82739415511551 -1.95002110211021
 1  4.22602728922892  2.56182956665667  3.19052381808181
 1  6.05995946414641  1.49018116731673 -2.31511032603260
 1  4.85361606140614  5.71581434563456 -0.73277189708971
 1  4.20807282978298  5.24824158985899 -2.47143968886889
 1  3.20688835843584  5.93427303370337 -1.08439018061806
 1  1.25841314941494 -7.97765892299230  1.51175723062306
 1  7.41077352175217  3.26244178407841 -3.36986425972597
 1  6.30020190769077  4.65592110431043 -2.56956930943094

