%nproc=4
%Mem=3GB
# td=(NStates=1) B3LYP/SVP 

TD

0 1
 8 -3.25409231943194 -1.38566362186219 -2.93735438973897
 8  3.10044049884988  3.13557521602160  3.00744501540154
 8  3.50283459165917  1.50534766306631  4.45366981058106
 8  7.72262086498650 -1.62444855905591 -0.83747450925092
 8  6.59305346174617 -3.30901169606961 -1.84566101420142
 8 -2.56338724522452  1.66483197229723  1.52946300680068
 7 -0.22603835003500 -2.36364267856786  0.86848168896890
 7 -2.62855489348935 -1.09569470447045 -0.69586173077308
 7  1.23457500690069  0.23442435213521 -0.68126306350635
 7 -1.06797594309431  1.56594200210021 -0.21464236213621
 6 -3.35945109480948 -1.16069363176318  0.57536451035104
 6 -2.54183280938094 -2.33546769296930  1.58782408920892
 6 -1.10408605030503 -2.11745955995600  1.76264425302530
 6 -0.50689049134913 -1.29512070377038  2.78723674417442
 6  0.83395450805080 -1.15577057805781  2.41176237083708
 6  1.00557324352435 -1.89478591329133  1.27038184218422
 6 -4.69434438103810 -1.78344399309931  0.28595548284828
 6  1.81801639303930 -0.39675000460046  3.24590674517452
 6 -4.78201456285629 -2.07802651105110 -1.07969831033103
 6  2.13110106650665 -1.82102029422942  0.32063434213421
 6  2.13042906480648 -0.84837674987499 -0.63840774227423
 6 -3.50738540844084 -1.52008397369737 -1.71927921132113
 6  3.00019108230823 -0.66487723602360 -1.82409630853085
 6 -1.30058863106311 -0.50654451145115  3.74264977327733
 6 -5.71687691179118 -2.25114159445945  1.25188619421942
 6  2.55642529942994  0.52073944214421 -2.36831144114411
 6  1.89099853225323  1.01432712471247  2.69893653525353
 6  1.32421578807881  0.98880552915292 -1.72560866686669
 6  4.10565591469147 -1.51868129722972 -2.21358098819882
 6 -5.78564290039004 -2.62860495089509 -1.90628407660766
 6  5.39917546854686 -1.21093283848385 -1.18203162006201
 6  3.08836893229323  1.19136753935394 -3.58387489668967
 6  0.46273869796980  2.09929507640764 -1.96118786388639
 6  2.88495713601360  1.91049063456346  3.51962730793079
 6 -0.58964279587959  2.38686331853185 -1.22074736263626
 6 -6.94641856835684 -3.35564932903290 -1.61134969366937
 6  6.57252682228223 -2.18646690179018 -1.23560425042504
 6 -1.43344199899990  3.55139737293729 -1.18044611931193
 6 -2.23822791219122  3.44846532553255 -0.17086499269927
 6 -2.06979925232523  2.09048998249825  0.46861579357936
 6 -1.33280325872587  4.60949720992099 -2.17398916691669
 6 -3.33514415091509  4.25064554745475  0.34410865056506
 6 -2.01466535773577  5.75522094029403 -2.33488722152215
 1 -3.30407890109011 -0.20395588548855  1.13646785138514
 1 -2.58153978037804 -3.22566769176918  0.99012936203620
 1 -3.00942076187619 -2.38254169856986  2.60157954665467
 1 -0.57361266606661 -2.79964872997300 -0.11295428542854
 1 -1.92396078577858 -0.47906420992099 -0.78815291769177
 1  1.39830779217922 -0.23568502230223  4.24290638973897
 1  2.81244857775778 -0.98676056735674  3.15413034243424
 1  2.94894370827083 -2.61435301820182  0.14961801500150
 1 -2.26633926322632 -1.18677795179518  4.02892995479548
 1 -0.63080284828483 -0.24516872047205  4.54530088658866
 1 -1.76369568336834  0.42276472317232  3.27042580788079
 1 -5.59623041024102 -1.72603073427343  2.17394168716872
 1 -5.61246000670067 -3.32493659825983  1.52070491679168
 1 -6.62750012681268 -2.08820446384638  0.95719208090809
 1  2.08546468586859  1.08805874777478  1.74961257255726
 1  0.79914986648665  1.42012425672567  2.67986596029603
 1  0.25310356795680  0.32473684348435 -0.28360039233923
 1  4.59117483668367 -1.16748980798080 -3.40076567846785
 1  3.83362419221922 -2.60469224842484 -2.16020312831283
 1 -5.62944508290829 -2.49807073167317 -3.00576404020402
 1  4.95779370067007 -1.04115459535954 -0.14377115341534
 1  5.77976941824182 -0.20902789888989 -1.27918240074007
 1  4.32235214671467  0.87472396449645 -3.57993622312231
 1  3.27367311891189  2.40878195689569 -3.50577291269127
 1  2.53150894019402  0.78920341824182 -4.49142229422942
 1  0.91364527452745  2.78301979847985 -2.78253914591459
 1 -7.11782086818682 -3.51718390229023 -0.62664168536854
 1 -7.62887115201520 -4.13813514401440 -2.26156921042104
 1  3.81157488498850  3.37625698669867  3.50738399259926
 1 -0.71063494229423  4.47129840934093 -3.11627952335234
 1 -4.11255984558456  4.42793937573757 -0.51658280978098
 1 -3.90558930863086  3.75878067166717  1.07526833823382
 1 -2.99527784398440  5.19361965306531  0.89446521642164
 1  8.36775246874688 -2.25963911811181 -1.16324695969597
 1 -1.79760268486849  6.25474593169317 -3.46186103830383
 1 -2.59224157705771  6.27401877767777 -1.40930683818382

