%nproc=4
%Mem=3GB
# td=(NStates=1) B3LYP/SVP 

TD

0 1
 8 -3.36752366256626 -1.21371642714271 -2.81160181448145
 8  2.77682813761376  3.23332499099910  3.04285855675568
 8  3.77053136133613  1.53627075537554  4.15291973557356
 8  7.65569417231723 -1.45104121832183 -0.72200296209621
 8  6.65436959335934 -3.09498029292929 -1.96601304940494
 8 -2.55175608210821  1.59020450955095  1.50753081358136
 7 -0.20322606880688 -2.45802211651165  0.94741958275828
 7 -2.71558359635964 -1.12175731073107 -0.58210035463546
 7  1.14347589698970  0.17559846954695 -0.70586552375238
 7 -0.98208735423542  1.44917032493249 -0.20624152205221
 6 -3.48281343104310 -1.24449201160116  0.71343831773177
 6 -2.64124275037504 -2.30344449064906  1.50302560936094
 6 -1.25852149384939 -2.08843665766577  1.80189817841784
 6 -0.55215501780178 -1.35697688938894  2.84682270277028
 6  0.82202331493149 -1.27824282528253  2.51819301390139
 6  1.03046573277328 -1.98867530223022  1.24801960596060
 6 -4.77358230483048 -1.94024967366737  0.19980686798680
 6  1.87314190559056 -0.42826315591559  3.19639179367937
 6 -4.86025238663866 -2.05511421982198 -1.10092043254325
 6  2.13081103750375 -1.97058525072507  0.25536781548155
 6  2.12287830973097 -0.86863877607761 -0.64663856535654
 6 -3.56459112901290 -1.42660462576258 -1.68364564796480
 6  3.10857192039204 -0.68211896019602 -1.68468236713671
 6 -1.21524009620962 -0.58410226722672  3.89851535983598
 6 -5.69972519661966 -2.33983046334633  1.28582958855886
 6  2.59560921782178  0.42170953915392 -2.46753136313631
 6  1.79402883528353  1.09873556555656  2.81734837643764
 6  1.37393075957596  1.00241689028903 -1.78506461246125
 6  4.30361571067107 -1.55523495259526 -2.09685931603160
 6 -5.87866220232023 -2.52545463586359 -2.06259970817082
 6  5.43129868086809 -1.11780352555256 -1.23006642354235
 6  3.10269036443644  0.98646704930493 -3.74599110831083
 6  0.47867029112911  2.03722886978698 -2.07147889298930
 6  2.86687532783278  1.91191077657766  3.43712905810581
 6 -0.63577740934093  2.31792642484248 -1.17671295919592
 6 -6.82937686418642 -3.31404516861686 -1.59536809550955
 6  6.55676524612461 -2.08956721182118 -1.25046573657366
 6 -1.44172282708271  3.51905413861386 -1.29256733143314
 6 -2.26297038643864  3.47345782478248 -0.15818372457246
 6 -1.97679995239524  2.07014794829483  0.45312424442444
 6 -1.17652763116312  4.59315557575758 -2.16190795879588
 6 -3.33217385388539  4.30163064596460  0.18018225792579
 6 -1.68546243744374  5.89524494269427 -2.18048178097810
 1 -3.59599809300930 -0.40812630253025  1.36426063066307
 1 -3.08156978337834 -3.32684780978098  1.06599694879488
 1 -3.19162898269827 -2.31944538893889  2.50189957865787
 1 -0.43140844564456 -2.83774253935394  0.10724773477348
 1 -2.09153754345434 -0.31839814331433 -0.64070817321732
 1  1.62608056945695 -0.37590904470447  4.30598269736974
 1  2.81208854175418 -0.88970086138614  3.03519844924492
 1  2.78453726762676 -2.79180076297630  0.47803085628563
 1 -2.26880951025103 -1.02608188218822  4.35684274607461
 1 -0.58303807180718 -0.31619582318232  4.70893725022502
 1 -1.75078439223922  0.41060350705070  3.60059882518252
 1 -5.57057784498450 -1.62717084828483  2.22492678567857
 1 -5.78485724642464 -3.43322742734273  1.66827967426743
 1 -6.64217159395940 -2.26565220862086  0.71614797649765
 1  1.70647678707871  1.26446638853885  1.71098871017102
 1  0.81630158165817  1.68951119541954  3.03721169486949
 1  0.48202646024602  0.52878724852485  0.02733070077008
 1  4.47891361056106 -1.47967102610261 -3.09213481538154
 1  4.07176800660066 -2.51117289648965 -1.84274138213821
 1 -5.71496363476348 -2.45190611521152 -3.00504396819682
 1  5.00053797509751 -1.06161664156416 -0.13756053235324
 1  5.85366680798080 -0.05317231333133 -1.71224570707071
 1  3.81004091559156  0.34670116221622 -4.44561279077908
 1  3.98280403200320  1.99482056075608 -3.57683001840184
 1  2.28737452675268  1.31134563246325 -4.45052820482048
 1  0.84779868986899  2.70373186968697 -2.86264715671567
 1 -6.94475356145615 -3.76747893179318 -0.66326534773477
 1 -7.68262652755276 -3.62110344084408 -2.28300135363536
 1  3.48251197869787  3.47952731373137  3.62259551375137
 1 -0.59528340714071  4.42125340484048 -3.03426132153215
 1 -3.95773436303630  4.69851643344334 -0.71249240074007
 1 -4.25565431513151  3.77748254185419  0.67831864326433
 1 -3.08720703690369  5.27731802290229  0.90573634353435
 1  8.29553524702470 -2.09231238543854 -0.73208384338434
 1 -1.37650057465747  6.70236069316932 -3.00312516471647
 1 -2.28392074497450  6.48833020882088 -1.37031293879388

