%nproc=4
%Mem=3GB
# td=(NStates=1) B3LYP/SVP 

TD

0 1
 8 -3.33186009620962 -1.01231628712871 -2.84558521282128
 8  3.03419387418742  3.14911657015702  3.13682795369537
 8  3.61520582878288  1.40693782208221  4.45539998359836
 8  7.72468107100710 -1.69213532773277 -0.67699846164616
 8  6.57425158155816 -2.93841463636364 -2.13773022112211
 8 -2.62144305080508  1.79736522562256  1.47725778627863
 7 -0.31301704790479 -2.43223953825383  0.87002184298430
 7 -2.61413345134513 -1.13738887388739 -0.62729487408741
 7  1.16159770917092  0.10244115381538 -0.68466340354035
 7 -1.04253339883988  1.40228563646365 -0.19606050395040
 6 -3.29400455015502 -1.32804036643664  0.59707668156816
 6 -2.59241786788679 -2.29944409060906  1.64853015981598
 6 -1.14405004670467 -1.99869768376838  1.82941092969297
 6 -0.53802360466047 -1.24447563926393  2.82603062356236
 6  0.81643275587559 -1.23282828382838  2.40901209580958
 6  0.97518020422042 -1.86857329202920  1.25316012001200
 6 -4.64668961556156 -1.96165181388139  0.29817670497050
 6  1.95080967236724 -0.43025335493549  3.11780393489349
 6 -4.72667902930293 -1.97179588798880 -1.04536487698770
 6  2.10458841524152 -1.88423661586159  0.31615389408941
 6  2.06211223312331 -1.01318323052305 -0.65443934543454
 6 -3.51426609650965 -1.34722668796880 -1.66995427882788
 6  2.99018008120812 -0.59229997829783 -1.68068196709671
 6 -1.33936250845084 -0.44246810381038  3.86160166846685
 6 -5.65026025012501 -2.34801128142814  1.29758076367637
 6  2.53586324322432  0.45863323152315 -2.41486609660966
 6  1.93236266866687  1.03592928492849  2.73858049964997
 6  1.40730409690969  0.94790143874387 -1.67734384038404
 6  4.20716606570657 -1.49101853095310 -2.06221585168517
 6 -5.86836117221722 -2.43986607700770 -2.01301474967497
 6  5.49284483548355 -1.18729047424742 -1.10456387328733
 6  3.12222231763176  1.10015841844184 -3.67096360556056
 6  0.59720214431443  1.99288443534353 -1.98773051815182
 6  2.90380902120212  1.82276186168617  3.55664100930093
 6 -0.56593042464246  2.19494412661266 -1.18931421932193
 6 -6.86793071957196 -3.17595135923592 -1.73117167586759
 6  6.60950051965197 -1.99089734483448 -1.36966765676568
 6 -1.42527118191819  3.52157439063906 -1.30275835053505
 6 -2.32084617401740  3.37826830583058 -0.29994790099010
 6 -1.96957923032303  2.09697063056306  0.41098003000300
 6 -1.35701567996800  4.50754701490149 -2.34580634863486
 6 -3.45209584608461  4.25898638153815  0.29090333003300
 6 -2.19897378857886  5.51508692689269 -2.52680641344134
 1 -3.41712020522052 -0.34385987588759  1.04315852045204
 1 -2.83787541394139 -3.27142226722672  1.27585793489349
 1 -3.17058687848785 -2.23056650105011  2.49869925862586
 1 -0.36727203200320 -3.16283504860486 -0.12313530353035
 1 -1.96330472017202 -0.28058436193619 -0.66918102050205
 1  1.80037799919992 -0.65506696049605  4.29277137623762
 1  2.87516484938494 -0.94576646794679  2.82715764516452
 1  2.70411922582258 -2.86414799769977  0.32277533073307
 1 -1.85077770707071 -1.06106538053805  4.52402946474647
 1 -0.65897566556656 -0.13245744934493  4.72431878837884
 1 -1.70321963576358  0.34865731243124  3.55277404270427
 1 -5.49896068326833 -1.81952008320832  2.32748704170417
 1 -5.62757151785179 -3.34983908850885  1.63500634693469
 1 -6.62112948974897 -1.87937358075808  0.92910927262726
 1  2.09710584998500  1.20256019791979  1.68791640294029
 1  0.98730868236824  1.49291153545355  2.79502747644765
 1  0.41201945954595  0.18890326012601 -0.11140317261726
 1  4.48874459365937 -1.21964502350235 -3.15327092899290
 1  3.92523335313531 -2.71435321452145 -1.86002311031103
 1 -5.42450458885888 -1.99133005760576 -2.98576204000400
 1  5.01053897519752 -1.40847132703270 -0.04623139943994
 1  5.66601804310431 -0.18132512861286 -0.80823530603060
 1  3.75636554805481  0.13421991409141 -4.16908513801380
 1  3.69810556215622  2.04882596129613 -3.57002933833383
 1  2.34257004630463  1.51957645554555 -4.47930108210821
 1  0.81023493349335  2.83092458895890 -2.54446533853385
 1 -7.07604669076908 -3.57252943684368 -0.66905592679268
 1 -7.66735500040004 -3.45023635413541 -2.51731478497850
 1  3.68726245374537  3.65329469046905  3.70113336753675
 1 -0.81294517331733  4.44013529302930 -3.24426232163216
 1 -4.26258484808481  4.37324390619062 -0.53592474397440
 1 -3.91393014271427  3.73269806340634  1.20723153455346
 1 -3.04040235643564  5.05876616771677  0.76498226812681
 1  8.38076376987699 -2.38580173437344 -0.98527916291629
 1 -1.95903882848285  6.41616207330733 -3.15560041224122
 1 -2.80513286618662  5.61782315811581 -1.64962086958696

