%nproc=4
%Mem=4GB
# td=(NStates=1) B3LYP/SVP 

TD

0 1
 8 -5.30463669366937  0.18519395899590 -3.29894968466847
 8  3.03681368686869  2.98603585828583  3.05269134753475
 8  3.30417876647665  0.77146254525453  3.18629051415142
 8  1.70916855635564 -7.20949721982198  1.58180668696870
 8  0.60587547554756 -7.02590901450145 -0.36885486838684
 8  1.66168321642164  3.92623574637464  0.05391489888989
 7 -2.33206281738174 -1.05776420662066  0.56268328492849
 7 -4.31118600000000  0.54394206070607 -1.19050740554055
 7  1.87503789538954 -0.70907248024802 -0.34728320592059
 7  2.52957849974998  1.86226197169717 -0.53479022572257
 6 -4.71353774497450  1.12736423342334  0.08336413621362
 6 -4.42224961776178  0.23387355265527  1.30449780748075
 6 -2.92549764536454 -0.04377412071207  1.34208622162216
 6 -2.01627072377238  0.57275223242324  2.16706987658766
 6 -0.74128073837384 -0.01271670717072  1.79582025962596
 6 -0.97169135693569 -1.01500455935594  0.80705252465247
 6 -6.26875923202320  1.32360014931493 -0.15143035843584
 6  0.60018862546255  0.18193887038704  2.52299131923192
 6 -6.60283079757976  0.97483673207321 -1.41540726942694
 6 -0.08262451855186 -2.04435317221722  0.31039312081208
 6  1.14020091629163 -1.93018256485649 -0.26369795199520
 6 -5.32196279657966  0.49327754245425 -2.10836814831483
 6  1.94255834103410 -2.98332887128713 -0.89646665596560
 6 -2.19753545444544  1.60847660456046  3.14613900410041
 6 -7.08388588178818  1.91562969216922  0.99082306820682
 6  3.11573790749075 -2.37311726292629 -1.31201244634463
 6  1.12364839213921  1.60641913531353  2.45720935683568
 6  3.07636571187119 -0.88624725032503 -1.05415940414041
 6  1.57026079627963 -4.33899986438644 -1.03392510941094
 6 -7.89918582458246  1.00990262786279 -2.06244463226323
 6  1.94873243884388 -5.10698163276328  0.37154314981498
 6  4.29749535853585 -3.04276274507451 -2.00457968926893
 6  3.84762563316332  0.03877328082808 -1.50682536493649
 6  2.58613923512351  1.72814040224022  2.95009090899090
 6  3.68127250505051  1.49920533203320 -1.22639920722072
 6 -9.10906588998900  1.11797395769577 -1.58567338263826
 6  1.36480154485449 -6.58022467266727  0.45391405040504
 6  4.44467330193019  2.70244699959996 -1.53901098419842
 6  3.79612888128813  3.82993351705171 -1.02946424072407
 6  2.55676724752475  3.28302615371537 -0.43533229592959
 6  5.66186979227923  2.56028086868687 -2.36879883498350
 6  4.19017463726373  5.20540541634163 -0.86117813121312
 6  6.64322438003800  3.51717740254025 -2.48700317721772
 1 -4.16511099719972  2.02409348944894  0.11220426072607
 1 -4.60500515741574 -0.77889936603660  1.23745849004900
 1 -4.57038387828783  0.65886988668867  2.16952386208621
 1 -2.78436747664766 -1.68912630813081 -0.14811173297330
 1 -3.32023302060206  0.47676959405941 -1.56417396829683
 1  0.52281671637164 -0.18933862186219  3.71464101220122
 1  1.39344335373537 -0.37363203060306  1.97926305910591
 1 -0.42552121302130 -2.96684414941494 -0.27676267396740
 1 -3.10231037633763  1.62637390149015  3.62282227192719
 1 -1.67484869997000  1.32811217511751  4.16835522342234
 1 -1.95156153725373  2.63389720952095  2.83753117491749
 1 -6.38835228612861  2.46363516701670  1.85698793179318
 1 -7.71969173617362  1.02360216941694  1.50510752145214
 1 -7.87583352055205  2.71680776387639  0.73550203040304
 1  1.19234194259426  1.76183822042204  1.41824989228923
 1  0.43242635513551  2.36972379437944  3.11203702790279
 1  1.57883220962096  0.33807445244524 -0.31681704700470
 1  1.99986777897790 -4.89456328672867 -1.87064167386739
 1  0.55689748724872 -4.67517736523652 -1.41337982138214
 1 -7.88090915271527  0.97359759035904 -3.14263020122012
 1  1.56021821072107 -4.45293647334733  1.23158073467347
 1  3.05731200130013 -5.21545875037504  0.57433524842484
 1  4.20995605790579 -4.08414586678668 -2.09670313141314
 1  5.18178927732773 -3.05420427062706 -1.41542516011601
 1  4.38721015411541 -2.71825405800580 -2.98490756435644
 1  4.80128974847485 -0.20349244374437 -1.92842901860186
 1 -9.38115171567157  1.19746720222022 -0.50018270807081
 1 -10.01703983758376  1.30172158785879 -2.21238733873387
 1  3.96077076357636  2.77301068476848  3.30466523222322
 1  5.81034450265026  1.56771892109211 -2.75807462246225
 1  4.99184988478848  5.35098786298630 -0.22148076797680
 1  4.43181520402040  5.68076484218422 -1.80873341824182
 1  3.30891856145615  5.78351795819582 -0.49349109070907
 1  0.79973728182818 -7.89276043314331  1.72954900980098
 1  7.67981042544254  3.26217175707571 -2.72350962426243
 1  6.49447133463346  4.63799931213121 -2.13693604610461

