%nproc=4
%Mem=3GB
# td=(NStates=1) B3LYP/SVP 

TD

0 1
 8 -3.23613052325233 -1.33127818331833 -2.84983563786379
 8  3.17244769956996  3.12052371087109  3.17198146904690
 8  3.57586189438944  1.36385351365137  4.56090053365337
 8  7.76215481838184 -1.48567468166817 -0.80812157395740
 8  6.65346950335034 -3.06659745464546 -2.02320876897690
 8 -2.68640954745474  1.73317880698070  1.44317437793779
 7 -0.34364011021102 -2.47570388468847  0.92228706950695
 7 -2.65390742874287 -1.23301843684368 -0.57716986158616
 7  1.11847339673967  0.04878578827883 -0.77583252045205
 7 -0.94041318681868  1.49541494939494 -0.21683258115812
 6 -3.34107925762576 -1.33353091549155  0.68784575847585
 6 -2.66646527262726 -2.33137728392839  1.60857616441644
 6 -1.30909655135514 -2.07719553355336  1.87758574717472
 6 -0.62866266856686 -1.24897608930893  2.80657867836784
 6  0.69214032663266 -1.12899790079008  2.45998719331933
 6  0.92939562576258 -1.84711114581458  1.23882868686869
 6 -4.73855880248025 -1.84782043074307  0.26357324462446
 6  1.79205379677968 -0.36987731733173  3.19558171267127
 6 -4.68808516991699 -2.10814952335234 -1.06731707220722
 6  2.04937289368937 -1.85546373857386  0.27598987768777
 6  2.08752477437744 -0.93045495769577 -0.61892579407941
 6 -3.45792046194619 -1.47583954925493 -1.60488777217722
 6  3.02663372657266 -0.70276102440244 -1.79481338023802
 6 -1.29625819801980 -0.66711056805681  3.99204471277128
 6 -5.82108733283328 -2.17587406770677  1.24453545914591
 6  2.54366402330233  0.38807617581758 -2.51397600760076
 6  1.97806723912391  1.08838453045305  2.67650429202920
 6  1.36918028452845  0.94004065266527 -1.78161426742674
 6  4.23039838893889 -1.48252768186819 -2.04517414751475
 6 -5.75054939103910 -2.53417550795080 -1.99142259045905
 6  5.43612916391639 -1.03957570277028 -1.25175859275928
 6  3.13320341574157  0.99051745434543 -3.73589009820982
 6  0.44856728082808  1.98244339123912 -1.99575132023202
 6  3.03814245454545  1.83721330683068  3.55788113331333
 6 -0.59310314191419  2.27642227442744 -1.22907819571957
 6 -6.87700162666267 -3.23436720082008 -1.67025558425843
 6  6.67155672527253 -1.97330558565857 -1.43655434543454
 6 -1.40068872367237  3.56797903110311 -1.26217429212921
 6 -2.26756084548455  3.44652513151315 -0.24480238643864
 6 -1.98935120752075  2.11713264676468  0.42086101810181
 6 -1.21031100950095  4.59068532873287 -2.19669143714371
 6 -3.33908454495450  4.43147363026303  0.23105734543454
 6 -2.15224911611161  5.69984540274027 -2.36553028582858
 1 -3.40253874707471 -0.41220671057106  1.26834103870387
 1 -2.83618524492449 -3.25749087408741  1.29655000410041
 1 -3.22361218101810 -2.28907235163516  2.76053544224422
 1 -0.44035934073407 -2.82719148424842 -0.11320431043104
 1 -2.24460284998500 -0.21845814931493 -0.56834093649365
 1  1.41774973637364 -0.42718417221722  4.29609170827083
 1  2.71923925682568 -0.80583247454746  3.07736266566657
 1  2.79661847574757 -2.53718530143014  0.50869392259226
 1 -1.97301993129313 -1.33088236223622  4.29245630743074
 1 -0.50388015601560 -0.12478668226823  4.56691304780478
 1 -1.89625893969397  0.19210165686569  3.60226899219922
 1 -5.76653744094409 -1.53204133533353  2.17320161316132
 1 -5.98651741244124 -3.17114121872187  1.56410925722572
 1 -6.72180955775578 -1.85023066646665  0.69575593729373
 1  2.61524766416642  1.11139108100810  1.69385699699970
 1  0.99896984848485  1.62586483078308  2.47889586328633
 1  0.39001725932593  0.23454782458246 -0.00003203550355
 1  4.62238795799580 -1.13954701370137 -3.10473607550755
 1  4.05666649644964 -2.61202298149815 -1.87144425242524
 1 -5.80795293369337 -1.94415534013401 -3.05348881268127
 1  5.25534345564556 -1.02436291619162 -0.12628940524052
 1  5.63849529082908  0.22408541244124 -1.49493397589759
 1  3.79318923042304  0.29342583468347 -4.51465969546955
 1  4.05423117471747  1.94712579127913 -3.51961429682968
 1  2.26931272057206  1.78358285618562 -4.32134528652865
 1  0.88384229422942  2.67686918341834 -2.79897078907891
 1 -7.08415750185018 -3.72018420232023 -0.71067008820882
 1 -7.39725799069907 -3.47472880338034 -2.65558861236124
 1  3.75006873437344  3.52364172517252  3.88557181138114
 1 -0.21650552935294  4.74279555905591 -2.70602849824983
 1 -4.02204079367937  4.47110369216922 -0.69017016851685
 1 -4.01811056075608  3.87059185278528  0.90213102450245
 1 -3.02987130333033  5.50797108820882  0.72284805470547
 1  8.38002369586959 -2.26264941914191 -0.60821145614561
 1 -1.83575650025002  6.36401685878588 -3.06904175637564
 1 -3.21210356325633  5.73644502030203 -1.76173208070807

