%nproc=4
%Mem=3GB
# td=(NStates=1) B3LYP/SVP 

TD

0 1
 8 -3.38498540874087 -1.47541259675968 -2.93787444174417
 8  3.14084453925393  3.15829748824882  3.31546581748175
 8  3.76868117631763  1.30352748104810  4.41865630923092
 8  7.69946854975498 -1.67120323452345 -0.69576033783378
 8  6.59835399179918 -3.02295309020902 -2.05424187228723
 8 -2.63884479097910  1.57538302740274  1.39680974147415
 7 -0.30905665186519 -2.32911922622262  0.82747758855886
 7 -2.69823186118612 -1.25634076907691 -0.72062420702070
 7  1.13244479387939  0.18050896059606 -0.78028296549655
 7 -1.11054019951995  1.34966037393739 -0.26596749464946
 6 -3.31648679837984 -1.28581614401440  0.57223419731973
 6 -2.68486711281128 -2.25355950215021  1.63438874567457
 6 -1.22410805250525 -1.96271408540854  1.87119510811081
 6 -0.53022282458246 -1.14691588328833  2.75702372287229
 6  0.75211632423242 -1.08306330733073  2.37607880248025
 6  0.89960264646465 -1.82529896459646  1.24070887488749
 6 -4.72782772937294 -1.96331197989799  0.24180106740674
 6  1.93847843924392 -0.35024535413541  3.14513666816682
 6 -4.80487684908491 -2.17541625002500 -1.09604994549455
 6  2.08348630503050 -1.78518671087109  0.30297257595760
 6  2.08425444734473 -0.81640355255526 -0.63758766026603
 6 -3.64337900780078 -1.66479844514451 -1.73027031043104
 6  3.08929999319932 -0.60378112641264 -1.67910180908091
 6 -1.24171274347435 -0.46578043504350  3.95831133943394
 6 -5.86132135623562 -2.08493497379738  1.31645265086509
 6  2.58132778967897  0.48308567676768 -2.51194580458046
 6  2.04076350875087  1.16082177417742  2.70636727832783
 6  1.36164953145315  0.95864251285129 -1.80632673867387
 6  4.21895724482448 -1.43857328642864 -2.00445007510751
 6 -5.80681501760176 -2.70348243864386 -1.98831227942794
 6  5.38653420442044 -1.13748549374938 -1.12459587648765
 6  3.19429952535254  1.13060146274627 -3.63219972917292
 6  0.52156458055806  1.90311545844584 -2.05151689678968
 6  3.09076771707171  1.77059664516452  3.59770511571157
 6 -0.60839467106711  2.25914054625463 -1.18571385928593
 6 -6.95450937743774 -3.35423918801880 -1.62039059775978
 6  6.63180274987499 -2.05867412251225 -1.30186087608761
 6 -1.45969462426243  3.52765499869987 -1.33056113081308
 6 -2.30976506590659  3.43738421742174 -0.18936684288429
 6 -2.10613288568857  2.07900883438344  0.35268420042004
 6 -1.34079405780578  4.64659091929193 -2.26306807480748
 6 -3.38529916641664  4.36052653555356  0.23880812051205
 6 -1.79855374657466  5.90763618181818 -2.13350708350835
 1 -3.26673516671667 -0.12606809670967  1.02455666026603
 1 -2.72490411681168 -3.35459058405841  1.43742409150915
 1 -3.13278309810981 -2.10854429882988  2.76165555425543
 1 -0.62737804260426 -2.53587235233523 -0.22907589758976
 1 -2.01615000470047 -0.30870717421742 -0.99865396779678
 1  1.83465142654265 -0.35758721252125  4.14642674177418
 1  2.93382071497150 -0.93519541084108  2.92336726612661
 1  2.81421023492349 -2.61595317821782  0.45319837303730
 1 -1.86042867216722 -1.20401967596760  4.54653171497150
 1 -0.32529229722972 -0.00893509710971  4.64957131363136
 1 -1.97513682748275  0.28636108280828  3.56102486778678
 1 -5.41621240844084 -1.65992412361236  2.23125741874187
 1 -5.83937269796980 -3.20073417801780  1.74049689598960
 1 -7.00284766156616 -1.95354099749975  1.06477283898390
 1  2.48355449484949  1.24893483538354  1.58409602090209
 1  1.11427137863786  1.78730097439744  2.68312628632863
 1  0.38372663026303  0.36393076287629 -0.29021105340534
 1  4.51264698389839 -1.33442650165016 -3.05647124902490
 1  4.06019684948495 -2.41938371757176 -1.75960306830683
 1 -5.53227536593659 -2.42660358495850 -3.22960642444244
 1  5.33721164246425 -1.21792227212721 -0.06303307960796
 1  5.67171861316132 -0.16758375447545 -1.40890537303730
 1  4.02837274877488  0.56046253835384 -4.07901613111311
 1  3.43874962656266  2.16009708840884 -3.47059939533953
 1  2.34765055435544  1.38324282218222 -4.38637178917892
 1  0.81985589558956  2.63022451895189 -2.88624951695170
 1 -7.09802888898890 -3.51644382828283 -0.70645966716672
 1 -7.42791105600560 -3.92873420392039 -2.54488754225422
 1  3.71767549504950  3.54366372737274  4.07257051125112
 1 -0.62440631943194  4.58693997349735 -3.17100499589959
 1 -3.93467205680568  4.90530711251125 -0.68586973847385
 1 -4.18909765946595  3.78811360496050  0.95287609900990
 1 -2.93248156435644  5.10958124922492  1.04391016091609
 1  8.54264995849585 -2.28310146434643 -0.78773940894089
 1 -1.68700162476248  6.80768122522252 -2.79698455065506
 1 -2.50517287018702  5.98298967476748 -1.25429133663366

