%nproc=4
%Mem=4GB
# td=(NStates=1) B3LYP/SVP 

TD

0 1
 8 -5.43037926792679  0.20023546314631 -3.30850063976398
 8  3.07698770427043  2.89388664336434  2.99969604800480
 8  3.41784013261326  0.73958935793579  2.90751263636364
 8  1.73325096459646 -7.16046231633163  1.39164767106711
 8  0.42197708570857 -6.91773819741974 -0.40182816571657
 8  1.69778682678268  3.94899802260226 -0.01872236483648
 7 -2.44531414251425 -0.97649607980798  0.62122913951395
 7 -4.45623050445044  0.50864853135314 -1.24792314711471
 7  1.75026541814181 -0.59822139513951 -0.44290276787679
 7  2.61939748164817  1.86464220972097 -0.43771051775178
 6 -4.81359775097510  1.09032052905291 -0.01461566176618
 6 -4.37865525832583  0.29465963126313  1.29928728642864
 6 -2.95727082268227  0.01327158385839  1.32456446944694
 6 -1.97364646134613  0.66611156835684  2.08929209880988
 6 -0.66611322162216 -0.01638707420742  1.71076175377538
 6 -1.04047823562356 -0.97246030493049  0.72155397479748
 6 -6.28471082718272  1.37890567986799 -0.15329054445445
 6  0.60989959655966  0.16688736523652  2.40765978607861
 6 -6.71753226772677  0.93669291769177 -1.42384811351135
 6 -0.18148440454045 -1.91594033093309  0.14725680718072
 6  1.17852474867487 -1.84188373497350 -0.35850743294329
 6 -5.51752235253525  0.47383559825983 -2.11135844734473
 6  1.94591867706771 -2.93059359775978 -0.83688069736974
 6 -2.22030773167317  1.69484524142414  3.19200359055906
 6 -6.99596708990899  1.96823495269527  1.00738472437244
 6  3.15321165486549 -2.28706865806581 -1.27918916401640
 6  1.11105713301330  1.60210870427043  2.35981961786179
 6  3.04972304760476 -0.86752537813781 -0.95749973817382
 6  1.48061183138314 -4.32638860326033 -0.93864558145815
 6 -8.05931183718372  0.71001263886389 -1.93588197599760
 6  1.86217378297830 -5.15484641924192  0.33808980448045
 6  4.37533314231423 -2.94510297909791 -1.86656588788879
 6  4.02769363996400  0.08943834733473 -1.23586826922692
 6  2.71238185938594  1.62028961716172  2.75116101600160
 6  3.69117349514951  1.50406581808181 -1.00343691099110
 6 -9.21809679307931  0.63403556385639 -1.33644846014601
 6  1.27765282998300 -6.43255990619062  0.34592325132513
 6  4.61678051265126  2.61879863476348 -1.41280836393639
 6  3.87154642304230  3.77254777847785 -1.07111840614061
 6  2.61822339313931  3.24264211531153 -0.49358812151215
 6  5.94572817811781  2.49886472707271 -1.91546350145014
 6  4.20718633843384  5.21515639143914 -1.11715372877288
 6  6.91253131073107  3.46458214301430 -2.25808028492849
 1 -4.39696418251825  2.17979906000600  0.14231727202720
 1 -5.05747040394039 -0.82615409150915  1.19893463766377
 1 -4.73426026592659  0.61599559925993  2.23825073477348
 1 -2.85445448534853 -1.43182057755776 -0.03070999279928
 1 -3.54052504980498  0.53812572967297 -1.63980153105310
 1  0.43548798349835 -0.25578526652665  3.42556210431043
 1  1.40702471187119 -0.39214388178818  1.96116124892489
 1 -0.59641830273027 -2.92988045304530  0.14443944624462
 1 -3.39263940924092  1.59065032913291  3.27540753045305
 1 -1.47597881298130  1.45565492939294  4.00231861976198
 1 -2.00725710681068  2.79249306910691  2.93081050285029
 1 -6.29443289418942  2.84731353485349  1.52644487748775
 1 -7.01650141714171  1.29157896709671  1.83669067976798
 1 -7.91053699089909  2.50205628872887  0.65872435263526
 1  0.88403111151115  2.30813284988499  1.44248231553155
 1  0.50889400190019  2.31693851585158  3.17238306250625
 1  1.50857518391839  0.47228787378738 -0.58003336863686
 1  1.84926271847185 -4.83573740414041 -1.95937054675468
 1  0.48351014851485 -4.39956980448045 -1.03704218761876
 1 -8.07134819661966  0.33830406100610 -2.87403334153415
 1  1.39655184408441 -4.59440061976198  1.22802037863786
 1  2.87739400950095 -4.98340554505451  0.57276509140914
 1  4.42858792109211 -4.05349280148015 -1.48898235933593
 1  5.36893799219922 -2.45761461166117 -1.32189580718072
 1  4.14890632373237 -2.92474470707071 -3.10257933153315
 1  5.00182980248025 -0.24864695919592 -1.59686586228623
 1 -9.35768936943694  0.82251970747075 -0.28676136593659
 1 -10.22331046464646  0.28280969666967 -1.75051115111511
 1  3.85818050455046  3.01208459215922  3.29245401110111
 1  6.17391085928593  1.44462661186119 -2.34365318031803
 1  5.09833053285328  5.18124088828883 -0.42778139803980
 1  4.69493151565157  5.43712047774777 -1.89202174707471
 1  3.46126379597960  5.85350495689569 -0.87815955755576
 1  1.19766707480748 -8.02116327342734  1.50845690059006
 1  7.95758820322032  3.21108664856486 -2.55359263256326
 1  6.81817370487049  4.45991150335034 -2.08331068356836

