%nproc=4
%Mem=4GB
# td=(NStates=1) B3LYP/SVP 

TD

0 1
 8 -5.18815504550455  0.45389082868287 -3.31565135483548
 8  3.01827183268327  2.84298155285529  3.01557763616362
 8  3.33923227182718  0.62926832583258  2.92113399849985
 8  1.73005064456446 -7.10453672377238  1.61787029332933
 8  0.85907079507951 -7.01690811441144 -0.46373435633563
 8  1.59880692879288  3.93615673847385 -0.10267075967597
 7 -2.32831244234423 -0.92587101730173  0.62748976557656
 7 -4.31121600300030  0.58817648414842 -1.22830118491849
 7  1.70606099769977 -0.66419799279928 -0.48055653325333
 7  2.49102464436444  1.75715146064606 -0.59038578527853
 6 -4.76756314751475  1.15216671367137  0.05283108290829
 6 -4.43925131793179  0.26087625292529  1.32647000470047
 6 -3.01089618521852 -0.04717446074607  1.43022503550355
 6 -1.96701579827983  0.52278723592359  2.24149731933193
 6 -0.72811942224222 -0.06613204870487  1.82604328192819
 6 -1.05332952075208 -0.93912697159716  0.84315613501350
 6 -6.27675003110311  1.29171696099610 -0.10322553795380
 6  0.62277088368837  0.12039271577158  2.54106312641264
 6 -6.63914442894289  0.90425967436744 -1.33243897259726
 6 -0.24713096919692 -2.00025876277628  0.24096617811781
 6  1.08979587578758 -1.83295284188419 -0.43403498569857
 6 -5.39911051135114  0.54249246394639 -2.12605991749175
 6  1.87310139533953 -2.92026256465647 -0.97358436773677
 6 -2.19701540244024  1.65618137503750  3.28305269546955
 6 -7.12096959015902  1.86917504670467  1.02764675057506
 6  3.02129846354635 -2.28900885208521 -1.31426267136714
 6  1.19108513581358  1.57427592099210  2.61305494139414
 6  3.02828090339034 -0.83331195679568 -1.03134712291229
 6  1.50291406160616 -4.33089905430543 -0.89458117501750
 6 -7.84135004100410  0.87240887848785 -2.01987037483748
 6  1.75218278387839 -5.00164109870987  0.40151614711471
 6  4.31869747874788 -2.91568003680368 -1.90464969626963
 6  3.91180205080508  0.07487689118912 -1.41774645704570
 6  2.61114173537354  1.63205079327933  2.90856675657566
 6  3.63261763956396  1.51434684618462 -1.15253182048205
 6 -9.15039002240224  0.85626778707871 -1.61862667796780
 6  1.44132919761976 -6.45366201640164  0.42636129512951
 6  4.53804263886389  2.60344709960996 -1.41462854595460
 6  3.88062733113311  3.79396992069207 -1.07294858915892
 6  2.59306087688769  3.28154600570057 -0.50429919261926
 6  5.88367197249725  2.41086592719272 -2.02274422952295
 6  4.13888950875088  5.23194807060706 -1.17758977237724
 6  6.77319737733773  3.38652433723372 -2.43389786668667
 1 -4.37091157725773  2.26137721782178 -0.02895985568557
 1 -5.01621627852785 -0.60215169126913  0.94286903110311
 1 -4.80732757265727  0.71643564326433  2.18716562626263
 1 -2.81303034293429 -1.48205560106011 -0.04100102190219
 1 -3.29462045934593  0.82889480658066 -1.53575112601260
 1  0.61043547824782 -0.53472316031603  3.78760830893089
 1  1.57315132453245 -0.36432109950995  2.23151828462846
 1 -0.79261792269227 -3.03071053605361  0.06615161746175
 1 -3.21681182648265  1.62643390749075  3.65496548624863
 1 -1.63438465356536  1.40238960286029  4.25682407030703
 1 -1.69092547364737  2.54784860466047  2.93038045984598
 1 -6.53338678957896  2.74269307280728  1.72646487948795
 1 -7.53719348634863  0.88094790399040  1.53877088778878
 1 -8.02334827202720  2.43472955605561  0.48367684788479
 1  1.10768347674767  2.03257529412941  1.52745081238124
 1  0.65428854135414  2.30100692269227  3.33725955015502
 1  1.30599492589259  0.22781342634263 -0.32904827012701
 1  2.12523031523152 -4.92853668406841 -1.68457306700670
 1  0.41234303180318 -4.21945179267927 -1.13595207860786
 1 -7.77191825362536  0.76832706330633 -3.17168310651065
 1  1.07868005690569 -4.50599177887789  1.22557013361336
 1  2.83149942004200 -4.74767197169717  0.65652346724672
 1  4.31977704000400 -4.06745419761976 -2.37783124422442
 1  5.17396849524953 -2.93712256245625 -1.25796941454145
 1  4.73480491359136 -2.35073730633063 -2.72034110771077
 1  4.74439405890589 -0.40702279677968 -1.70941711741174
 1 -9.33700730123012  0.91272872837284 -0.39313200300030
 1 -10.01892002560256  0.65625704140414 -2.28841494149415
 1  4.03443813031303  2.71356474017402  3.08923368906891
 1  6.06541000920092  1.35619776897690 -2.17799661466147
 1  5.03262396219622  5.61016378057806 -0.57853647354735
 1  4.06457848034803  5.42821958765877 -2.17654019891989
 1  3.44137180678068  5.79458906530653 -0.74030577217722
 1  1.70859816791679 -8.11179233633363  1.39564561946195
 1  7.78235067946795  3.07960350025003 -2.84930220352035
 1  6.66950883838384  4.53998951115112 -2.39961231373137

