%nproc=4
%Mem=4GB
# td=(NStates=1) B3LYP/SVP 

TD

0 1
 8 -5.34383061306131  0.04883032263226 -3.26827661736174
 8  3.07768777427743  2.80583783848385  3.47957403580358
 8  3.41506985558556  0.58458385738574  2.93305519061906
 8  1.64524216371637 -7.16661293139314  1.51187969426943
 8  0.86286117411741 -7.11658808240824 -0.56629461236124
 8  1.53589063716372  3.92180530333033  0.10679018641864
 7 -2.32273188428843 -0.95805423562356  0.65747276387639
 7 -4.24580946234623  0.40983865036504 -1.25459381418142
 7  1.83099349094909 -0.72430400340034 -0.40962944054405
 7  2.50317585948595  1.82821856735674 -0.35322206890689
 6 -4.59544593579358  1.15343684068407 -0.07821202140214
 6 -4.30573796659666  0.44329449474947  1.33705106280628
 6 -2.88406350195020  0.09497975467547  1.38557057005701
 6 -1.85025412211221  0.61397635483548  2.19636280588059
 6 -0.62047865816582 -0.01437687318732  1.86097677527753
 6 -0.93307749554956 -1.06559961886189  0.84442626202620
 6 -6.17540989708971  1.41799958925893 -0.21638685408541
 6  0.67041564816482  0.14035471197120  2.63640266036604
 6 -6.58604911941194  1.03137238563856 -1.42587831653165
 6 -0.08620487658766 -2.02310104700470  0.29298137963796
 6  1.08608550475047 -1.88288783538354 -0.29453103530353
 6 -5.36679728002800  0.37593580828083 -2.14000131163116
 6  1.89834391959196 -2.97501804020402 -0.88139514881488
 6 -2.14487018791879  1.76271202810281  3.13555794599460
 6 -6.87081457465747  2.18352648184818  0.74727871377138
 6  3.03632996669667 -2.38688864006401 -1.27897914301430
 6  1.18482450975098  1.51561005440544  2.72031566746675
 6  3.03928200350035 -0.95386401200120 -1.09570355855586
 6  1.53438720892089 -4.43588955335534 -0.86688840574057
 6 -7.83309921592159  0.87457909550955 -2.17908629642964
 6  1.74369193479348 -5.03755469006901  0.40282627812781
 6  4.15742135113511 -3.13299176797680 -1.93750298159816
 6  3.85171604220422  0.10920032353235 -1.46541122352235
 6  2.61753237443744  1.60124771297130  3.10164606450645
 6  3.55593997179718  1.46686209770977 -1.10103667096710
 6 -9.07007199059906  1.04183634393439 -1.55728054335434
 6  1.32233729842984 -6.56558320852085  0.43518217721772
 6  4.40264909950995  2.72241899679968 -1.54012109520952
 6  3.68309757815782  3.83227375107511 -1.05411670597060
 6  2.45491706250625  3.33031088218822 -0.46125488818882
 6  5.59562316761676  2.71033587418742 -2.34458641374137
 6  4.02353797359736  5.27351222702270 -1.10659267266727
 6  6.43532358995900  3.62885857065707 -2.69837431433143
 1 -4.05584007010701  2.13848492859286 -0.05884284398440
 1 -4.99508416531653 -0.41230270637064  1.35295003920392
 1 -4.76103294319432  1.10132413211321  2.20982789248925
 1 -2.78120716061606 -1.60560795629563 -0.05151207300730
 1 -3.40318131543154  0.56580849794980 -1.53113066396640
 1  0.52493692839284 -0.34833452145215  3.70370991909191
 1  1.40040404980498 -0.58028269566957  2.11668680148015
 1 -0.71266992789279 -2.94938240324032  0.10871587388739
 1 -3.09410955625563  2.11590285438544  3.28394838453845
 1 -1.68250946604660  1.51714107800780  4.28786717461746
 1 -1.38473485458546  2.64340816061606  2.64130155195520
 1 -6.32700615151515  2.97810661416142  1.26680891389139
 1 -7.44254402140214  1.58466827602760  1.51001801250125
 1 -7.78496443364336  2.64505058815882  0.22225070527053
 1  1.07088979737974  2.13299533613361  1.85502356965697
 1  0.50271338383838  1.93690051205120  3.48415423962396
 1  1.71034536093609  0.18363900890089  0.01230586528653
 1  2.22102989518952 -4.87374120452045 -1.63020763046305
 1  0.50234203170317 -4.51940178767877 -1.47867635103510
 1 -7.67878894069407  0.59733996459646 -3.21589752795279
 1  1.26996918581858 -4.35946712641264  1.07030460706071
 1  2.90032630273027 -5.20614781928193  0.77787560246025
 1  4.04482954525453 -4.13629108130813 -1.98992245334533
 1  5.13722482088209 -2.67609645984598 -1.32550616821682
 1  4.47972940604060 -2.67852008460846 -2.86480555415542
 1  4.92086170567057  0.04699260476048 -1.78491466716672
 1 -9.33132673317332  1.27219467496750 -0.45745843564356
 1 -9.92468060166017  0.83293470917092 -2.33457955795580
 1  4.09299398589859  2.76693007670767  3.23489825552555
 1  5.69961342954295  1.67823997319732 -2.66851566656666
 1  5.31743244304430  5.35544830903090 -0.84039265916592
 1  3.92802482498250  5.48544531023102 -2.29596214111411
 1  3.32709037863786  5.83241284768477 -0.38493023462346
 1  1.37419472757276 -8.06601775887589  1.16779283418342
 1  7.20568301270127  3.31590713061306 -3.32815008830883
 1  6.29265115261526  4.64748026022602 -2.57186953945395

