%nproc=4
%Mem=4GB
# td=(NStates=1) B3LYP/SVP 

TD

0 1
 8 -5.27274350435043  0.15875131473147 -3.37139692939294
 8  3.04450445594559  2.98135539023902  3.15411148954895
 8  3.29762811141114  0.68217361636164  3.28022990809081
 8  1.73900153965397 -7.04897116721672  1.53392189848985
 8  0.56785167316732 -6.97025344894489 -0.54455243814381
 8  1.77147419551955  3.96913003580358  0.11154066146615
 7 -2.39380899199920 -0.99684811501150  0.66504352095210
 7 -4.34978986038604  0.41073874037404 -1.30668902370237
 7  1.82600299189919 -0.74176574957496 -0.43251172877288
 7  2.58243378527853  1.82498824432443 -0.41106785348535
 6 -4.71185757695770  1.10969246624662  0.02822862266227
 6 -4.35701309410941  0.31542170747075  1.27979533723372
 6 -2.87073216881688  0.05578583528353  1.42107412041204
 6 -1.90876997369737  0.76649160636064  2.17741091069107
 6 -0.69020563086309  0.00672523702370  1.83862454005401
 6 -0.99868405620562 -1.06057911681168  0.89907172657266
 6 -6.25270762686269  1.33031082038204 -0.15464067946795
 6  0.65804441104110  0.15053573007301  2.56696571667167
 6 -6.66624713921392  1.05537478587859 -1.46175190389039
 6 -0.13745000110011 -1.94927366426643  0.21584366586659
 6  1.04479137533753 -1.86562610921092 -0.32512409460946
 6 -5.39400000030003  0.48216643134313 -2.18424573607361
 6  1.98043212841284 -3.00153069146915 -0.84841185048505
 6 -2.12712841374137  1.77151290819082  3.16682107230723
 6 -7.12648014121412  1.74716284548455  0.98375236113611
 6  3.05067140084008 -2.33508345954595 -1.40609185428543
 6  1.21509753705371  1.51536002940294  2.63965760166017
 6  2.96224429972997 -0.90924955055506 -1.10519450765077
 6  1.53927769796980 -4.36991295569557 -1.00152186908691
 6 -7.94068997499750  0.81325296289629 -2.07190557835784
 6  1.68966653225323 -4.99173010761076  0.40864686018602
 6  4.33392900190019 -2.95260372917292 -1.96581581288129
 6  3.79007987858786  0.10865026852685 -1.48140282268227
 6  2.66469709090909  1.59920750895090  3.07816371627163
 6  3.68144252205221  1.48106351785179 -1.02517908520852
 6 -9.18484346774678  0.83463562386239 -1.50204501980198
 6  1.27001206590659 -6.45068171837184  0.33236189518952
 6  4.50124895949595  2.66710346524652 -1.50294737783778
 6  3.84706397479748  3.75254577827783 -1.04604589888989
 6  2.66537810861086  3.33036088718872 -0.43034179687969
 6  5.75318892419242  2.53447828842884 -2.25142709780978
 6  4.25768138793879  5.20708558435844 -1.25953796719672
 6  6.66160621822182  3.50009569436944 -2.56715119201920
 1 -4.26744123022302  2.12089316941694  0.02017505780578
 1 -4.92726738363836 -0.67535901200120  1.10149489368937
 1 -4.72315915581558  0.85799979967997  2.13074998469847
 1 -2.93444248414841 -1.42600999649965 -0.14099102090209
 1 -3.50483148044804  0.58927084418442 -1.77710526142614
 1  0.28566300100010 -0.30172986098610  3.52524207230723
 1  1.36917092649265 -0.59179384678468  2.14457959075908
 1 -0.78705736663666 -2.82097956295629  0.09788479077908
 1 -3.15976612191219  1.90513177727773  3.38465845554555
 1 -1.68228944404440  1.10490985488549  4.14774316221622
 1 -1.54427080818082  2.50094391419142  2.96091351315131
 1 -6.58773222412241  2.41346014951495  1.61133336633663
 1 -7.56029579657966  0.84055386458646  1.62116912761276
 1 -7.84074001120112  2.36927301040104  0.72490097029703
 1  1.27263997239724  1.91112314891489  1.51161922922292
 1  0.70441355385539  2.23787060906091  3.29294511871187
 1  1.43080740714071  0.31495214021402 -0.30990635593559
 1  2.20241803400340 -4.87336116651665 -1.83198780848085
 1  0.34693649114911 -4.68426827432743 -1.11442992639264
 1 -8.05851691349135  0.48716894749475 -3.07540347854785
 1  1.14191638053805 -4.52886406610661  1.33640121672167
 1  2.80132640274027 -5.10826803130313  0.85109292419242
 1  4.19707476977698 -3.94781223342334 -2.13150661176118
 1  5.26544764316432 -3.00783963416342 -1.24260787838784
 1  4.80144157725773 -2.65679791239124 -3.02813188678868
 1  4.78572819231923 -0.24482657715771 -2.08909508520852
 1 -9.53215681618162  1.45672312781278 -0.53963665346535
 1 -10.06159429302930  0.51424283998400 -2.24620072007201
 1  3.92720740724072  2.77398078177818  3.43174794049405
 1  6.05663913211321  1.42948509770977 -2.52831164616462
 1  5.29160986078608  5.71423418761876 -0.79844846474647
 1  4.24352637513751  5.32288905460546 -2.38581112601260
 1  3.44765243484348  5.85330493689369 -0.81277301890189
 1  1.46754406250625 -7.88154931203120  1.52992904780478
 1  7.49613205760576  3.36132167206721 -2.85723299659966
 1  6.74247613511351  4.64620013221322 -2.26713906640664

