%nproc=4
%Mem=3GB
# td=(NStates=1) B3LYP/SVP 

TD

0 1
 8 -3.30570748094810 -1.21507656315632 -2.85152580688069
 8  3.07618807360736  3.09737139563956  3.00822509340934
 8  3.47777208540854  1.39346647494749  4.54498894249425
 8  7.54862346524652 -1.40707682188219 -0.52880364216422
 8  6.75034919131913 -2.96852764766477 -1.92178862696270
 8 -2.51285219171917  1.78878436753675  1.51398145864586
 7 -0.25097084328433 -2.51407772207221  0.98548338913891
 7 -2.68291032903290 -1.10320545554555 -0.67208935353535
 7  1.09122067146715  0.06153706340634 -0.69776471367137
 7 -1.00673981948195  1.51133654155416 -0.20743164106411
 6 -3.39413456315632 -1.32354991739174  0.63134010791079
 6 -2.63411203730373 -2.33740788698870  1.63718902570257
 6 -1.22748839053905 -2.03150096409641  1.87003499209921
 6 -0.49120892319232 -1.20706189788979  2.79556757725773
 6  0.89658077067707 -1.17413241424142  2.47618881348135
 6  0.98138082428243 -2.03862029672967  1.24044884888489
 6 -4.72888783538354 -1.99224487318732  0.24027091439144
 6  1.96610120152015 -0.46891722132213  3.01073322782278
 6 -4.78011437283728 -2.09825853425343 -1.07673801430143
 6  1.98804676107611 -1.99004719691969  0.15473775247525
 6  1.98699472137214 -0.99995190739074 -0.69082298379838
 6 -3.54311898179818 -1.41761372667267 -1.66751403480348
 6  2.95317638083808 -0.73743449174917 -1.88046194509451
 6 -1.14080265246525 -0.49142299929993  3.86717222552255
 6 -5.77517274137414 -2.27663414371437  1.30512151775178
 6  2.61988164506451  0.44914228242824 -2.45148975897590
 6  1.98805823822382  1.00586627862786  2.77426406800680
 6  1.36425979247925  0.98205485408541 -1.78641474747475
 6  4.18268361746175 -1.53057248634863 -2.16495612571257
 6 -5.88541287738774 -2.46166825722572 -1.99997344554455
 6  5.34486003700370 -1.07269901510151 -1.25602901980198
 6  3.15393548894889  1.06479488208821 -3.69568607780778
 6  0.51838426252625  2.02684783168317 -2.00518226332633
 6  2.93765240554055  1.85495508100810  3.55747109230923
 6 -0.59620345194519  2.29893452565257 -1.16711199909991
 6 -6.97019094559456 -3.34708847294729 -1.71084964366437
 6  6.62073164276428 -1.95977423252325 -1.29974066406641
 6 -1.39771842664266  3.50470270347035 -1.24755282998300
 6 -2.30295438483848  3.34216469546955 -0.23530143634363
 6 -2.00157242964296  2.12020295379538  0.43816274827483
 6 -1.25890586898690  4.57598385858586 -2.31200296829683
 6 -3.33338397489749  4.31047153005300  0.30402464216422
 6 -1.85663955515552  5.83585900410041 -2.39720345314531
 1 -3.38026651985199 -0.34407989788979  1.12216642124212
 1 -2.85582720912091 -3.34508963396340  1.36707705680568
 1 -3.08848866866687 -2.26044948934894  2.44466385508551
 1 -0.39541484628463 -2.82684144924492  0.01352836283628
 1 -2.08027641734173 -0.29192549604960 -0.63037714011401
 1  2.07767572897290 -0.48861031483148  4.14541664076408
 1  2.97820515341534 -0.74444633593359  2.73518844824482
 1  2.74334314821482 -2.78828041094109  0.07631068426843
 1 -1.55050768006801 -1.26562583658366  4.95706276807681
 1 -0.45150491849185  0.29878567496750  4.40880723722372
 1 -1.99885919971997  0.03873632033203  3.32549131443144
 1 -5.67976876407641 -1.30582871407141  2.15904019701970
 1 -5.56102486318632 -3.31818592319232  1.85391823812381
 1 -6.83075045184518 -2.34420006340634  0.93690005170517
 1  2.22105824522452  1.39424936683668  1.77901551285129
 1  1.07280723222322  1.48591083538354  3.14277225092509
 1  0.25747400500050  0.41848621842184 -0.08036006830683
 1  4.35696141534153 -1.61438449744974 -3.01082668456846
 1  3.99790061986199 -2.65349712891289 -2.07998510651065
 1 -6.07984012241224 -2.06059698429843 -2.99464292809281
 1  5.19787770907091 -0.83492397229723 -0.21612838913891
 1  5.58248969026903 -0.04527152325233 -1.59468395089509
 1  4.28506841834183  0.90740723282328 -3.78730696019602
 1  2.96478222982298  2.42046312501250 -3.36602893829383
 1  2.52692848214821  0.84451894979498 -4.66428958095810
 1  0.75590950095010  2.45567706420642 -2.97589848184818
 1 -7.00119920602060 -3.63486567046705 -0.54114313551355
 1 -7.70778904380438 -3.79318064856486 -2.48609166266627
 1  3.89288301580158  3.58107746874687  3.63310656485649
 1 -0.51474535333533  4.27878915841584 -3.17852574797480
 1 -4.05199378897890  4.42910949274928 -0.58741989348935
 1 -3.90573932363236  4.10665545914592  1.17552836423642
 1 -2.90369868606861  5.15553584468447  0.31527729762976
 1  8.37004269776978 -2.01032418661866 -0.59951058605861
 1 -1.50604352895290  6.59208966606661 -3.12870772297230
 1 -2.85786813971397  6.22748412421242 -1.79299520702070

