%nproc=4
%Mem=4GB
# td=(NStates=1) B3LYP/SVP 

TD

0 1
 8 -5.44359058905891 -0.00819537993799 -3.25817560726073
 8  2.92590259575958  3.09153640834083  3.36556263466347
 8  3.34751309990999  0.90141554055406  3.19960184528453
 8  1.94072171167117 -7.28327459755976  1.31160966726673
 8  0.55317020502050 -7.07033345694569 -0.45171315421542
 8  1.69039608770877  3.84482760556056  0.06254576197620
 7 -2.27774738583858 -0.93011144134413  0.54813182978298
 7 -4.38547342874287  0.71415908240824 -1.34945330013001
 7  1.91350174177418 -0.71809338233823 -0.33321179877988
 7  2.53091863376338  1.82928867436744 -0.58166491319132
 6 -4.79075546674667  1.13588508550855 -0.03648784898490
 6 -4.45502289508951  0.23115328062806  1.19339669736974
 6 -2.92749784538454  0.00169042574257  1.31877389038904
 6 -1.93413250995100  0.67366232343234  2.03533670327033
 6 -0.70420703100310  0.04894945944594  1.75307598519852
 6 -0.95351953975398 -0.96524958385839  0.78790060946095
 6 -6.25199755585559  1.36387417671767 -0.11866708210821
 6  0.54307291389139  0.28056873337334  2.45414443454345
 6 -6.62712322682268  1.02401164956496 -1.34434016271627
 6 -0.15079133523352 -1.94187292419242  0.12047412891289
 6  1.16133302950295 -1.81777132373237 -0.34618620082008
 6 -5.44385498579858  0.43732194689469 -2.13416072757276
 6  2.02062614781478 -2.89534007240724 -0.86134314361436
 6 -2.21742744364436  1.67438319521952  3.16459084928493
 6 -7.14178167136714  1.95620374957496  1.02023600950095
 6  3.17373370707071 -2.39079903110311 -1.29695094019402
 6  1.06832285958596  1.76199469286929  2.67329096499650
 6  3.07231530683068 -0.92203082868287 -1.02112610081008
 6  1.68152192239224 -4.37998396279628 -0.94269598649865
 6 -7.96185209120912  1.00134177177718 -1.99605799359936
 6  1.75127269286929 -5.15781671627163  0.35786178167817
 6  4.31248685768577 -3.00229869866987 -1.99675890719072
 6  3.91148201880188  0.03371277477748 -1.50613529592959
 6  2.54386500770077  1.80213780198020  3.02776867676768
 6  3.67963234103410  1.48375378687869 -1.17809437673767
 6 -9.22331731513151  0.88690085038504 -1.25800061536154
 6  1.30175524022402 -6.61756840704070  0.35276393539354
 6  4.60136897149715  2.59934668956896 -1.50690777387739
 6  3.81175044344434  3.68522904660466 -1.00425171947195
 6  2.56348791959196  3.19680753185319 -0.40979974267427
 6  5.88836244154415  2.41984682528253 -2.04699665476548
 6  4.15757137693769  5.05550042584258 -1.18526053945395
 6  6.82835289288929  3.46663234803480 -2.44332880978098
 1 -4.27637212331233  2.15373645374537  0.04266730703070
 1 -4.85144980188019 -0.86430790689069  1.00982572677268
 1 -4.78431527142714  0.90097409710971  2.03837074677468
 1 -2.77631667156716 -1.31876927242724 -0.24503142494249
 1 -3.41128212551255  0.40257217431743 -1.61828937983798
 1  0.45755018971897 -0.25521520952095  3.41944149224922
 1  1.41350535993599 -0.31540620802080  1.96332146494650
 1 -0.59425808670867 -2.89466693169317 -0.06167116481648
 1 -3.22966311161116  1.77353861796180  3.20379036873687
 1 -2.05345656075608  1.23839320322032  4.20508889678968
 1 -1.91577795889589  2.66483030283028  3.05027244904490
 1 -6.47930138103810  2.78440724422442  1.53300553355336
 1 -7.48735850285028  1.23890369956996  1.84814182488249
 1 -7.95330126732673  2.42121820492049  0.53767224742474
 1  1.00473318171817  2.31827386398640  1.63764183148315
 1  0.35522863536354  2.42508933093309  3.29485530973097
 1  1.66791111751175  0.39137978297830 -0.29893525882588
 1  2.25380317251725 -4.87618144854485 -1.60712532223222
 1  0.51934373187319 -4.33192303980398 -1.46038452185218
 1 -8.10519158095810  1.06646687728773 -3.05718165636564
 1  1.07772996189619 -4.59729090879088  1.11061863846385
 1  2.63889015911591 -5.14868207270727  0.95609342424242
 1  4.05095015731573 -4.01655910811081 -1.90840430153015
 1  5.31095219361936 -2.86630548074808 -1.33108672627263
 1  4.05117655075508 -2.73346557915792 -3.11448052165217
 1  4.78801842134213 -0.21613370787079 -2.15105128082808
 1 -9.24340794129413  1.06223367886789 -0.15702839263926
 1 -9.98555668926893  0.78094951065107 -1.91949804980498
 1  3.80437512401240  2.76415979967997  3.56624138983898
 1  6.14354782298230  1.35475762496250 -2.34792360736074
 1  5.09451015081508  5.31565432963296 -0.60381900180018
 1  4.54944696719672  5.32270903660366 -2.17634017891789
 1  3.16239390899090  5.52887249364936 -0.87310905250525
 1  1.81288859695970 -8.26397755485548  1.24090014491449
 1  7.61901434583458  2.99890543044304 -3.15432270557056
 1  6.44911679917992  4.63952946514651 -2.59502185468547

