%nproc=4
%Mem=3GB
# td=(NStates=1) B3LYP/SVP 

TD

0 1
 8 -3.26688359855986 -1.25663071857186 -2.84000465476548
 8  3.18814926972697  3.05566722522252  3.15257952885289
 8  4.11220552875288  1.16609373767377  4.11486593019302
 8  7.67113571647165 -1.42983909810981 -0.48229899169917
 8  6.82386654305431 -2.77247804270427 -2.26505295339534
 8 -2.75688659515952  1.67266275537554  1.40436049654965
 7 -0.30372611881188 -2.47289360366037  1.01766660746075
 7 -2.73911594959496 -1.24323945894589 -0.61145328992899
 7  1.10534208360836  0.09778068776878 -0.68085302250225
 7 -1.11410055555556  1.47604301220122 -0.15289618751875
 6 -3.38383353305331 -1.38958652105211  0.63685065896590
 6 -2.70929955605561 -2.47093123932393  1.64039934673467
 6 -1.18416405810581 -2.19153696769677  1.90139812841284
 6 -0.58398820112011 -1.12968416011601  2.83783180368037
 6  0.70851196379638 -1.11383638463846  2.48939013361336
 6  0.90608329452945 -1.91811824652465  1.20538534253425
 6 -4.77340228682868 -1.90759640834083  0.23942082938294
 6  1.86229082048205 -0.47744807440744  3.30825297979798
 6 -4.83088945034503 -1.94434314271427 -1.13379371987199
 6  2.08335629202920 -1.91378957115712  0.41467374607461
 6  2.17235325722572 -0.81811372357236 -0.55500940244024
 6 -3.51588625852585 -1.50777274257426 -1.64362164556456
 6  2.94030509370937 -0.65541628992899 -1.71984588348835
 6 -1.30270884308431 -0.47906176317632  3.88691419971997
 6 -5.93873909800980 -2.03490997129713  1.27176818241824
 6  2.47391704860486  0.41331870007001 -2.48062267226723
 6  1.94293372577258  1.11494718671867  2.91434807640764
 6  1.36017938443844  0.89065571417142 -1.84914102010201
 6  4.25076042514251 -1.47299672877288 -1.93566319641964
 6 -5.90792512861286 -2.37534962536254 -2.05692914111411
 6  5.45703125412541 -1.04129587478748 -1.05096851375138
 6  3.04922501790179  1.01299970257026 -3.70364687388739
 6  0.47790021412141  1.95236038293829 -2.08192993809381
 6  3.18523716401640  1.67437702320232  3.42857820302030
 6 -0.64880871247125  2.18782341454145 -1.19574486238624
 6 -6.84654858135814 -3.41594535863586 -1.76549510821082
 6  6.68439800940094 -1.77513576867687 -1.39813050305031
 6 -1.50797945274527  3.51792402560256 -1.34924299899990
 6 -2.40520460986099  3.41756223522352 -0.37532543874387
 6 -2.09563183558356  2.12686361986199  0.47554648664867
 6 -1.22032201060106  4.60130639083908 -2.35930769876988
 6 -3.32118275477548  4.33688417131713  0.23803804350435
 6 -1.79470336153615  5.76267168536854 -2.38297203000300
 1 -3.42501099429943 -0.49921541144114  1.16429063366337
 1 -2.82406403280328 -3.61270639563956  1.24107445654565
 1 -3.23305312511251 -2.51050449484949  2.47759714841484
 1 -0.32506781158116 -3.11997076217622  0.20317732773277
 1 -1.96653504320432 -0.38215451895190 -0.57604170657066
 1  1.77479544094409 -0.50844229802980  4.46626872597260
 1  2.77264459735974 -0.65999789108911  2.94763969336934
 1  2.74476329022902 -2.78777035993599  0.20900395359536
 1 -2.32514514381438 -1.06590586458646  4.37884494629463
 1 -0.66006577457746  0.06865266166617  4.62201855835584
 1 -1.99760907470747  0.39190163686369  3.56149491479148
 1 -5.80709149634963 -1.22541067226723  2.00330462346235
 1 -5.82037079777978 -3.03366747134713  1.86680952725273
 1 -6.90120749754975 -1.95675131853185  0.86616297799780
 1  1.98449458885889  1.17978792069207  1.81951956325633
 1  0.98920887238724  1.74629687398740  3.26640461416142
 1  0.18340659825983  0.12542691249125 -0.19677170947095
 1  4.52788850805081 -1.43364642364236 -3.14916051795180
 1  3.74098492829283 -2.50399217841784 -1.65630273827383
 1 -5.81932407080708 -2.02846377097710 -3.01360482428243
 1  5.26647456875688 -0.97166764666467  0.10227345104510
 1  5.83945538683868 -0.19704670077008 -1.07521200370037
 1  3.92306221772177  0.59685617771777 -4.21563979347935
 1  3.42743849544955  1.86496757545755 -3.56374871027103
 1  2.23870966026603  1.17233173107311 -4.36971012301230
 1  0.57069097909791  2.47982947944794 -3.05312620462046
 1 -6.85964505060506 -3.89248143204320 -0.87793681488149
 1 -7.58547681258126 -3.57002833333333 -2.61938499199920
 1  4.01630535803580  3.43729309030903  3.51642489668967
 1 -0.50999487828783  4.26011729122912 -3.17742563796380
 1 -4.24425301490149  4.47534411621162 -0.33838498999900
 1 -3.62629137883788  3.93356815041504  1.37788860026003
 1 -2.85356367256726  5.44409470057006  0.61639740964096
 1  8.13330902440244 -2.22372552675268 -0.58227886288629
 1 -1.55042796739674  6.46013647074708 -3.08616346854685
 1 -2.64856720962096  6.13610498629863 -1.67454336183618

