%nproc=4
%Mem=3GB
# td=(NStates=1) B3LYP/SVP 

TD

0 1
 8 -3.31228813901390 -1.44908996449645 -2.84577523182318
 8  2.97751820662066  3.19840149864987  3.22462673357336
 8  3.59507381558156  1.45070219851985  4.58129257285729
 8  7.77296589948995 -1.42727884208421 -1.16459722152215
 8  6.55190934733473 -3.29507030193019 -1.81646809490949
 8 -2.65491639813981  1.57744323342334  1.41876193669367
 7 -0.25538128432843 -2.35459177347735  0.87360220102010
 7 -2.72785482348235 -1.24820995599560 -0.67367951255125
 7  1.10064161356136  0.16535744544454 -0.72789772697270
 7 -0.92770191569157  1.42123753165317 -0.12198309620962
 6 -3.36470161986199 -1.38592615501550  0.56720369426943
 6 -2.61651027712771 -2.27130127632763  1.66479178597860
 6 -1.25799144084408 -1.94546236023602  1.75207319591959
 6 -0.53531333363336 -1.13184437613761  2.79756777727773
 6  0.86686779937994 -1.09428442944294  2.33457465206521
 6  0.97128981518152 -1.82911934663466  1.18910371437144
 6 -4.71681662826283 -1.88505415411541  0.25308219551955
 6  1.84068866026603 -0.29628995859586  3.19799195369537
 6 -4.87017337873787 -2.11347005540554 -1.10572091259126
 6  2.13128108450845 -1.90617881008101  0.24416669536954
 6  2.08469449134913 -0.86434834703470 -0.75970987248725
 6 -3.48530320022002 -1.61087305260526 -1.67589487288729
 6  3.05902696589659 -0.67871862016202 -1.80435433433343
 6 -1.20346891909191 -0.50535439243924  3.89821532983298
 6 -5.87559278337834 -2.08038451875187  1.22112311791179
 6  2.60329998689869  0.44361172937294 -2.47625223522352
 6  1.72933236563656  1.20308600060006  3.00131677327733
 6  1.39956332283228  0.95828247684768 -1.81977808380838
 6  4.23892924202420 -1.59056848594859 -2.07995762586259
 6 -5.86774111021102 -2.60431252165217 -2.07615106330633
 6  5.52369792079208 -1.11217296249625 -1.34459787668767
 6  3.19097919331933  1.04779318191819 -3.58730523972397
 6  0.64644706880688  2.11586673357336 -2.02308405350535
 6  2.94837347764777  1.92477206270627  3.76052139733973
 6 -0.50882471407141  2.41061569376938 -1.19172446034604
 6 -6.97372129862986 -3.30162392649265 -1.63434199289929
 6  6.52477204680468 -2.12724097919792 -1.41847253725373
 6 -1.31844049884989  3.58875110831083 -1.22442051675167
 6 -2.35972006140614  3.38457893689369 -0.25377328352835
 6 -1.94422669506951  2.04899583308331  0.47001593359336
 6 -1.13724370277028  4.60373663386339 -2.15080684868487
 6 -3.43515415191519  4.24669515241524  0.32344658435844
 6 -1.88924281548155  5.67983340154015 -2.23322705550555
 1 -3.50593908710871 -0.37431292119212  0.94993919851985
 1 -3.12351397779778 -3.26631175617562  1.24950529962996
 1 -3.26902672247225 -2.27086053045305  2.88563795249525
 1 -0.48400370517052 -2.77452621772177 -0.06878986898690
 1 -1.88772716241624 -0.50692699619962 -0.85825992839284
 1  1.62410037143714 -0.61758321212121  4.20190228932893
 1  2.84947228012801 -0.59712160346035  2.90136506590659
 1  3.05107392129213 -2.68144972787279  0.33995704890489
 1 -1.92600522982298 -1.04798407240724  4.55592265406541
 1 -0.43312308030803 -0.22081628522852  4.61906826332633
 1 -1.70471978577858  0.33885633233323  3.75695446074607
 1 -5.71484227142714 -1.18640677187719  2.05285957895790
 1 -5.87750651135114 -3.02698680328033  2.05805865216522
 1 -6.92307968476848 -2.13625926932693  0.81373773547355
 1  1.88296443584358  1.53328327022702  1.90985859715972
 1  0.78510846234623  1.46956920122012  3.16626460016002
 1  0.23094135173517  0.10878524832483 -0.12921495379538
 1  4.45153087228723 -1.36407946694669 -3.13800940284028
 1  3.80731156095609 -2.67700948014802 -1.89521662966297
 1 -5.58270040844084 -2.35256618121812 -3.30463392719272
 1  5.40374829612961 -0.92674315421542 -0.24806158245825
 1  5.74516595789579 -0.08594559065907 -1.77517199969997
 1  4.04672458395840  0.52475896799680 -3.76862509200920
 1  3.58362411401140  2.01988306700670 -3.66381871727173
 1  2.47581337063706  0.88901339923992 -4.80985413741374
 1  0.78149205920592  2.96369786628663 -2.73855474747475
 1 -7.12696178227823 -3.59164134803480 -0.48666768796880
 1 -7.40093835873587 -3.80035136563656 -2.52282533603360
 1  3.67450117761776  3.57866722772277  3.84258751295130
 1 -0.57937181598160  4.21182246174617 -3.14978287368737
 1 -4.12204079367937  4.57922450425043 -0.40929208070807
 1 -4.01362011171117  3.78602339593960  1.06154696609661
 1 -3.10295861206121  5.19012930403040  0.96473224312431
 1  8.57743343684369 -2.19970312451245 -1.06352698769877
 1 -1.64158708330833  6.43720417751775 -3.08515336753675
 1 -2.85946829972997  5.86282765856586 -1.69825573307331

