%nproc=4
%Mem=3GB
# td=(NStates=1) B3LYP/SVP 

TD

0 1
 8 -2.97857476767677 -1.53759881538154 -2.79507016131613
 8  3.35575603040304  3.13289494799480  2.77851212211221
 8  3.60198450665067  1.53060018831883  4.24611905550555
 8  7.72816141904190 -1.50963707790779 -0.95870663246325
 8  6.60312446884688 -2.97826862176218 -2.22013846194619
 8 -2.66052695919592  1.54718020712071  1.42155221572157
 7 -0.35498124432443 -2.46009232353235  1.12393723452345
 7 -2.51792383038304 -1.36545168016802 -0.53406555115512
 7  1.02534408380838 -0.03566265656566 -0.69375431263126
 7 -1.09096824232423  1.45654106200620 -0.26689758765877
 6 -3.38419356905691 -1.32263982638264  0.68032500640064
 6 -2.69793841994199 -2.28602274847485  1.68715402220222
 6 -1.33344898659866 -1.99412722672267  1.95048303690369
 6 -0.66409621192119 -1.21213240494049  2.92731075157516
 6  0.67684879747975 -1.08002300330033  2.56763795839584
 6  0.85603829002900 -1.77072350705071  1.33835863986399
 6 -4.72791773837384 -1.89774542324232  0.10937782508251
 6  1.76357094849485 -0.32570289988999  3.14375653015302
 6 -4.69179554095409 -2.11052976137614 -1.19293963446345
 6  1.98053601000100 -1.80738893109311  0.45899817851785
 6  2.05240126202620 -0.86573848604860 -0.56547044854485
 6 -3.26021069096910 -1.57985995129513 -1.66904418781878
 6  2.89816087928793 -0.70804155245525 -1.64613851275127
 6 -1.29166773897390 -0.32468632563256  3.97562307060706
 6 -5.92400762486249 -2.10561704200420  0.95161616721672
 6  2.59634929182918  0.45990335853585 -2.32114672467247
 6  2.07269670207021  1.15253094509451  2.55875251685169
 6  1.36001936843684  0.87329397799780 -1.74501060706071
 6  4.20152550165017 -1.57256668576858 -1.86934656475648
 6 -5.74418875497550 -2.51213330373037 -2.16794024222422
 6  5.36278182918292 -1.19103084828483 -1.09949336623662
 6  3.18721881728173  1.00373877647765 -3.64292080128013
 6  0.50621304540454  2.00757590449045 -2.00238198329833
 6  3.04956359665967  1.92480206570657  3.35221056625663
 6 -0.60830466206621  2.21451608380838 -1.20061534943494
 6 -6.86971089758976 -3.21374513861386 -1.94807336603660
 6  6.61331090069007 -2.06528478357836 -1.41415210521052
 6 -1.39026768156816  3.52867510071007 -1.15675375007501
 6 -2.30926501590159  3.40713119211921 -0.07766567276728
 6 -2.08111038343834  2.03170410391039  0.42654158615862
 6 -1.24317429582958  4.69197545774577 -2.05506727472747
 6 -3.34913555005501  4.30542102500250  0.47637187688769
 6 -1.97028091929193  5.77004242244224 -1.97373110591059
 1 -3.48659715291529 -0.31770726062606  1.01215542014201
 1 -2.70675230163016 -3.25461058605861  1.08097844694469
 1 -3.32791261106111 -2.29454289868987  2.63442283098310
 1 -0.60385569036904 -2.79804856995700  0.10854786478648
 1 -1.95749413911391 -0.43545984948495 -0.50527462986299
 1  1.68734669606961 -0.40679213301330  4.21985408450845
 1  2.73709104200420 -1.09508139943994  3.29881481088109
 1  2.94038285218522 -2.47191877477748  0.69051210441044
 1 -2.01297392669267 -0.80670994499450  4.54356141794179
 1 -0.66605637363736  0.23977977437744  4.73705006150615
 1 -1.70619993379338  0.49563200990099  3.39774854015401
 1 -6.08765955315532 -1.33484161536154  1.92438673167317
 1 -6.17303606430643 -3.12077618221822  1.23675652195220
 1 -6.87560493729373 -1.81654729812981  0.48004436613661
 1  2.40306644604460  1.02726266816682  1.49465707700770
 1  1.13575352685269  1.73358560286029  2.61496947064707
 1  0.11507976557656  0.15290966076608 -0.10557258955896
 1  4.29915563476348 -1.33627668666867 -2.94119972187219
 1  3.91156198599860 -2.59896167536754 -2.06336344434443
 1 -5.62326446484648 -2.23330425502550 -3.14390785458546
 1  5.16267418871887 -1.10459093899390 -0.11046782308231
 1  5.62084352565256 -0.20224722082208 -1.35588007050705
 1  3.79538945044504  0.45454194629463 -4.15831406090609
 1  3.56324207580758  1.98758983768377 -3.35782811821182
 1  2.27167295659566  1.20341483938394 -4.22760591259126
 1  0.70824473447345  2.74120561706171 -2.85601649364936
 1 -6.94481356745675 -3.70070225412541 -0.92093111431143
 1 -7.42149041394139 -3.44061539203920 -2.62488554205420
 1  3.93981770927093  3.45541490249025  3.50470372457246
 1 -0.53832771157116  4.63677495699570 -2.91678957435744
 1 -4.25200378997900  4.51530811261126 -0.16246739823982
 1 -3.98623737343734  3.60083487708771  1.01749256065607
 1 -2.95065338153815  5.27468775987599  1.04926069596960
 1  8.28516420992099 -1.98835198939894 -1.31634226922692
 1 -1.82151507610761  6.62020247734774 -2.86423127532753
 1 -2.47085943884388  6.17278865466547 -1.08689459695970

