%nproc=4
%Mem=3GB
# td=(NStates=1) B3LYP/SVP 

TD

0 1
 8 -3.24165107530753 -1.28818387388739 -2.93696435073507
 8  3.01876233103310  3.16157781628163  3.33938820972097
 8  3.75628993719372  1.42007913621362  4.44214865846585
 8  7.82859146204620 -1.36967308150815 -0.94011477327733
 8  6.52001615801580 -3.22322311721172 -1.73978042614261
 8 -2.56602750925092  1.64439992909291  1.51728178867887
 7 -0.22387813401340 -2.33412972727273  0.93419826062606
 7 -2.58245028302830 -1.25164029902990 -0.66131827642764
 7  1.02578412781278  0.14007491719172 -0.75505044224422
 7 -0.98110725622562  1.35193060096010 -0.21590248814881
 6 -3.34777992769277 -1.42870043244324  0.53371034493449
 6 -2.67835646174617 -2.36263040924092  1.55446075287529
 6 -1.18820446214621 -1.95234304830483  1.84697268586859
 6 -0.51679148144814 -1.15756694839484  2.83369138963896
 6  0.84463557615762 -1.13530853185319  2.53556475107511
 6  1.00093277947795 -1.81501793649365  1.29962476647665
 6 -4.76256120272027 -2.04600024872487  0.19218610591059
 6  1.91785637703770 -0.34564489408941  3.17530968546855
 6 -4.82864922632263 -2.05117382578258 -1.15750609110911
 6  2.14828278467847 -1.88040623282328  0.32436471517152
 6  2.05717173907391 -0.88335024722472 -0.69572347384738
 6 -3.52598726862686 -1.54994695999600 -1.73680096349635
 6  2.96072713591359 -0.65534628292829 -1.79479337823782
 6 -1.12701127332733 -0.43692754975498  4.03948945724572
 6 -5.85471069516952 -2.17461394169417  1.13288429402940
 6  2.51177083398340  0.41238860706071 -2.50371498149815
 6  1.89050848324832  1.04920061206121  2.84240088168817
 6  1.26327969446945  0.85468211681168 -1.87963406940694
 6  4.25636098519852 -1.42620204930493 -2.00610024012401
 6 -5.87171150725073 -2.35959805020502 -2.13487693589359
 6  5.53367891889189 -0.97659940514051 -1.29388280518052
 6  3.11261135653565  0.98106650925093 -3.79797630683068
 6  0.41284370847085  1.90411555845585 -2.09827157225723
 6  2.99548818911891  1.87136672217222  3.63145849104910
 6 -0.69164299589959  2.16511114331433 -1.18502379027903
 6 -7.05039896639664 -2.96952071617162 -1.75028358705871
 6  6.66614618421842 -2.02310056515652 -1.37190788078808
 6 -1.49092774757476  3.45189742294229 -1.22710078477848
 6 -2.29377346674667  3.29083956295630 -0.19955786198620
 6 -2.00073234563456  2.06924785828583  0.53677260926093
 6 -1.29808978737874  4.41842810301030 -2.18227999599960
 6 -3.28942957945795  4.38406888978898  0.47063130283028
 6 -2.00043393459346  5.62128754695470 -2.45003873667367
 1 -3.73041153435344 -0.50530602050205  1.21368557315732
 1 -2.70459208560856 -3.34837996299630  1.14960530963096
 1 -3.04977479727973 -2.31644508890889  2.53102249094910
 1 -0.52617792259226 -2.90647941304130  0.19721673167317
 1 -1.75074346404640 -0.46356265976598 -0.55408951135113
 1  1.85797375877588 -0.29386083988399  4.28189028812881
 1  3.00299763266327 -0.82683457475748  2.74371930133013
 1  3.05662447634764 -2.50596217911791  0.43071612481248
 1 -2.27720034933493 -0.91930120412041  4.27230429222922
 1 -0.40801056905691 -0.15453965756576  4.77973432993299
 1 -1.42075138893889  0.69562200890089  3.56526529182918
 1 -5.46952773997400 -1.59472760396040  2.01018531153115
 1 -5.80861962266227 -3.17105120972097  1.51922476877688
 1 -6.98152552935294 -1.69105474887489  0.85625198689869
 1  1.89181532093209  1.18758870077008  1.63230084138414
 1  1.11843179467947  1.61122336663666  3.16725469916992
 1  0.21887014461446  0.29752412221222 -0.26069810211021
 1  4.73637935713571 -1.64528758775878 -3.07137273917392
 1  4.07325815561556 -2.50739251845185 -1.49562667066707
 1 -5.36262840124012 -2.24540546514651 -3.19992345614561
 1  5.14764268556856 -0.95128560846085 -0.08994577087709
 1  5.81214265556556  0.11399440334033 -1.61474595709571
 1  3.74190410191019  0.24161065316532 -4.20700893039304
 1  3.42739849144915  2.13043412211221 -3.69148148354836
 1  2.27043283258326  0.95304980288029 -4.69896304830483
 1  0.72933684368437  2.54091558805881 -2.89633052505251
 1 -7.35191427752775 -3.14889707360736 -0.75842486368637
 1 -7.76175444034403 -3.35292662316232 -2.50358341184118
 1  3.71585531303130  3.53176253725373  3.94527778197820
 1 -0.47699157795780  4.35128640814081 -2.81627952335234
 1 -4.27779636923692  4.60481706350635 -0.24589574107411
 1 -3.68066681638164  3.87561235483548  1.43655446684668
 1 -2.91926024222422  5.41434172527253  0.72730850075007
 1  8.41455714921492 -2.10331348554855 -1.03316395139514
 1 -1.96378930353035  6.28508896599660 -3.06258111031103
 1 -2.70756310921092  5.93257463326333 -1.72699860736074

