%nproc=4
%Mem=3GB
# td=(NStates=1) B3LYP/SVP 

TD

0 1
 8 -3.34026093629363 -1.29075413091309 -2.86317697199720
 8  3.23451390619062  3.12457411591159  3.02306657755776
 8  3.50942525072507  1.48789591789179  4.66303074667467
 8  7.77189579247925 -1.64988110231023 -0.72181294309431
 8  6.71053520992099 -3.11976277117712 -2.07521396949695
 8 -2.61534244074407  1.60420590969097  1.58112817331733
 7 -0.35263100930093 -2.35400171447145  0.84523936473647
 7 -2.70235227322732 -1.20177531253125 -0.68583072767277
 7  1.23285483488349  0.08951986168617 -0.79737467466747
 7 -0.98739788528853  1.57465287318732 -0.14791568946895
 6 -3.31522667236724 -1.38517608000800  0.62497947184718
 6 -2.62281090719072 -2.44472861906191  1.60699600640064
 6 -1.21205684738474 -2.07021483548355  1.87392538113811
 6 -0.51452125442544 -1.18965015671567  2.79647766826683
 6  0.83495460806081 -1.19611461246125  2.46653784838484
 6  0.96017870407041 -1.81729816451645  1.27118192219222
 6 -4.75297024362436 -1.92335798449845  0.23469035633563
 6  1.99019361076108 -0.44774510411041  3.13296545104510
 6 -4.77755411681168 -2.08961767016702 -1.05252559305931
 6  2.06200415681568 -1.79020721292129  0.29068134683468
 6  2.17097311921192 -0.86410832303230 -0.76380028152815
 6 -3.57846251615162 -1.53993595889589 -1.68860614401440
 6  3.02676373957396 -0.64142489078908 -1.77247114601460
 6 -1.28579715191519 -0.54371822882288  3.77104261256126
 6 -5.82347757185719 -2.19416589688969  1.30763176877688
 6  2.58381803870387  0.51555892409241 -2.43531814181418
 6  2.00791022342234  1.08761445344534  2.70608725032503
 6  1.44151751825183  1.05177182578258 -1.78004411041104
 6  4.23691904100410 -1.45076450555056 -2.05949557965797
 6 -5.82089642574257 -2.46028811921192 -1.98487193539354
 6  5.39076462746275 -1.28897064226423 -1.08072148904891
 6  3.23485358075808  1.18069647224722 -3.61489799899990
 6  0.47201962606261  2.08262340924092 -2.03883562866287
 6  2.99938857915792  1.91923150865086  3.69885523072307
 6 -0.64253808540854  2.27520215241524 -1.25400068796880
 6 -6.96367029352935 -3.13677744184418 -1.68967752645265
 6  6.66446601620162 -2.09064731983198 -1.41782247224722
 6 -1.51191984678468  3.50728296149615 -1.32756083078308
 6 -2.35685977537754  3.37539801880188 -0.22148005420542
 6 -2.00357262966297  2.16020695419542  0.53885281728173
 6 -1.34564454285429  4.51872813301330 -2.34914668266827
 6 -3.43539417591759  4.37955843874387  0.28112235193519
 6 -2.13141703290329  5.57686310451045 -2.36456018881888
 1 -3.39062755595559 -0.39570506040604  1.20211441604160
 1 -2.96187781418142 -3.41753687868787  0.97779812891289
 1 -3.16439625942594 -2.43573701810181  2.61240062876288
 1 -0.54649995479548 -2.61786055115511 -0.20039302930293
 1 -2.02130051975198 -0.44591089458946 -0.80887498989899
 1  1.93258121952195 -0.61226268006801  4.11711381048105
 1  2.92287962086209 -0.97290918221822  2.96618154755476
 1  2.79686850075008 -2.65370695359536  0.46906996019602
 1 -2.13887651695170 -1.17950722472247  4.33125018681868
 1 -0.68778854685469 -0.27880208380838  4.48136449294930
 1 -1.85764507830783  0.40159260596060  3.27287605290529
 1 -5.54135492269227 -1.55411354255426  2.34977927092709
 1 -5.84948370907091 -3.33151725632563  1.46566941324132
 1 -6.73160053685369 -1.85554119751975  0.92462882458246
 1  2.41798793819382  1.27550749264926  1.75266287758776
 1  1.03522347384738  1.67018926322632  2.65638361206121
 1  0.42452070967097  0.11874624442444 -0.09752178447845
 1  4.48461418061806 -1.39179223822382 -3.06488209010901
 1  3.91371220102010 -2.53905568476848 -1.84067117511751
 1 -5.69622176057606 -2.33196412101210 -3.07321078487849
 1  5.16107402870287 -1.61711219111911  0.04808803250325
 1  5.50343178447845 -0.30603759985999 -0.87825230773077
 1  4.29994990649065  0.77794428652865 -3.82745097459746
 1  3.34202995459546  2.43023410211021 -3.32147448284828
 1  2.55318110741074  1.07569206710671 -4.54621777377738
 1  0.85254916491649  2.38973046954696 -2.89794068606861
 1 -7.24303338943894 -3.64243642754275 -0.61876089728973
 1 -7.71450971587159 -3.24626595709571 -2.62321537503750
 1  3.75533926142614  3.70159952095209  3.69872312651265
 1 -0.56673055185519  4.21708298779878 -3.13731162656266
 1 -4.31182977257726  4.31679826162616 -0.62334348584859
 1 -3.78601735143514  3.91244603820382  1.27716852825283
 1 -2.97385570177018  5.55151544264426  0.46793256315632
 1  8.50139583308331 -2.32231538573857 -0.89434006900690
 1 -2.28956188078808  6.38380883798380 -3.24600945314531
 1 -2.99857221012101  5.79504087988799 -1.79723563106311

