%nproc=4
%Mem=4GB
# td=(NStates=1) B3LYP/SVP 

TD

0 1
 8 -5.36081231123112  0.06492193179318 -3.21822161186119
 8  2.92772277777778  2.79355661036104  3.22624870327033
 8  3.49524787338734  0.58816421542154  2.79460134523452
 8  1.39136677617762 -7.22367863796380  1.56452495879588
 8  0.85358024602460 -6.96429285288529 -0.66429441234123
 8  1.54761180928093  4.02978610141014 -0.10239073167317
 7 -2.37544715581558 -0.95556398659866  0.51694871147115
 7 -4.28029291069107  0.62909057555756 -1.25246360116012
 7  1.73526391799180 -0.65414698769877 -0.45088356595660
 7  2.51618716061606  1.88779452495250 -0.55897264396440
 6 -4.77228361956196  1.24566606360636  0.02795859565957
 6 -4.37472486528653  0.42579274457446  1.29387674537454
 6 -2.97532262786279  0.08297855455546  1.24742675567557
 6 -1.98349744644464  0.55675063226323  2.11316448604860
 6 -0.72037864816482 -0.06991242674267  1.76116679427943
 6 -1.03145733353335 -1.10541360026003  0.78720053945395
 6 -6.23466582268227  1.38119590889089 -0.10419563496350
 6  0.52455106170617  0.08214889138914  2.54746376647665
 6 -6.60155066956696  0.94427367576758 -1.39585531423142
 6 -0.12894915101510 -2.15057379427943  0.21448352985299
 6  1.14192108830883 -1.82105165176518 -0.30618220042004
 6 -5.36649725002500  0.53727194189419 -2.04423173467347
 6  2.08755284048405 -2.90476101450145 -0.76202321162116
 6 -2.02517821872187  1.73607936483648  3.11296568676868
 6 -7.09184667786779  1.92506063526353  0.97180116601660
 6  3.22369870357036 -2.30767071827183 -1.18286953205321
 6  1.19722574987499  1.47500599399940  2.44073770967097
 6  3.01042911821182 -0.82035066066607 -0.97942193039304
 6  1.66076984718472 -4.36443240764076 -0.88500021692169
 6 -7.89863576957696  0.75752739033903 -1.96753514131413
 6  1.83576114171417 -5.11950288488849  0.45548154365437
 6  4.39828543754376 -2.95399386818682 -1.83065229652965
 6  3.85252612321232  0.13704310781078 -1.24585926832683
 6  2.62023264446445  1.45907349554956  2.84463036293629
 6  3.63184756255626  1.54836024752475 -1.08535510281028
 6 -9.09882486588659  0.99016117641764 -1.30221503680368
 6  1.29666473117312 -6.45030168036804  0.37840649964996
 6  4.45453428802880  2.69850660556056 -1.44918200130013
 6  3.76169543794379  3.81932245594559 -1.19507080138014
 6  2.49391096189619  3.31674952605260 -0.57025578827883
 6  5.83238684398440  2.48685352595260 -1.96977893299330
 6  4.12068768856886  5.28065294109411 -1.30038205160516
 6  6.79004906250625  3.49805549034904 -2.28293277017702
 1 -4.34666915301530  2.18071915201520  0.27267030733073
 1 -4.99243390029003 -0.38074955105511  1.13467821202120
 1 -4.72930977087709  1.05623962366237  1.96449335903590
 1 -2.84100314021402 -1.47449484498450 -0.36712363416342
 1 -3.33480447774778  0.66033795089509 -1.53086063696370
 1  0.21997643234323  0.06800711271127  3.68312786088609
 1  1.46110011941194 -0.67271193859386  2.48436356915692
 1 -0.55399406030603 -3.12931039603960 -0.03634863256326
 1 -2.99502964826483  1.80039130323032  3.75893588328833
 1 -1.38812002710271  1.34274363826383  3.96364475237524
 1 -1.96213259435944  2.72483630343034  2.66470389218922
 1 -6.33181663256326  2.40363916741674  1.69012124512451
 1 -7.95588535553555  1.08163797299730  1.50106711741174
 1 -8.03136907410741  2.63379946304631  0.53601208140814
 1  1.25596830523052  1.85487752435244  1.46968503580358
 1  0.65757887038704  2.26291311331133  3.04618044224422
 1  1.47714204060406  0.43116376137614 -0.12857822312231
 1  2.16683447564757 -4.95824965536554 -1.55164977467747
 1  0.57760955845585 -4.27721756925693 -1.17001548494849
 1 -7.84086514831483  0.35083531413141 -2.98857479567957
 1  1.52108429732973 -4.65344652435243  1.29653723032303
 1  3.03371964206421 -5.31756896139614  0.66082389728973
 1  4.21963702600260 -3.99188664086409 -2.18998245934593
 1  5.31045214361436 -2.98724757495750 -1.05136875447545
 1  4.75579701280128 -2.46872910551055 -2.79873894749475
 1  4.91622124162416 -0.13076517101710 -1.50737691339134
 1 -9.32690629112911  1.10476793229323 -0.34972766256626
 1 -10.18968710231023  1.06174759045905 -1.91585768576858
 1  3.89237392389239  2.86398978267827  3.10157492319232
 1  6.00970443864386  1.41547369656966 -2.03098191319132
 1  4.82845354515451  5.48307107130713 -0.66176479637964
 1  4.36902892539254  5.53317008270827 -2.48162070697070
 1  3.22948061766177  5.93269287568757 -0.93222496409641
 1  0.92183949204921 -8.13031418851885  1.61147720262026
 1  7.85322776717672  3.20548608850885 -2.71092836613661
 1  6.57078896639664  4.57552306450645 -2.33643599609961

