%nproc=4
%Mem=4GB
# td=(NStates=1) B3LYP/SVP 

TD

0 1
 8 -5.18917514751475  0.33155859545955 -3.41498128782878
 8  3.04295430093009  2.98484573927393  3.25852193059306
 8  3.44523287188719  0.81377677667767  3.00945283038304
 8  1.56221386088609 -7.34868113821382  1.30448895519552
 8  0.36193108110811 -6.91509793339334 -0.59180716361636
 8  1.76459350745075  3.97387050985099  0.02245175257526
 7 -2.37939755085509 -0.92835126532653  0.74137115371537
 7 -4.32630751215122  0.57920558705871 -1.18584693949395
 7  1.85977636923692 -0.69504107710771 -0.20804928252825
 7  2.59866540844084  1.87551329682968 -0.55227197389739
 6 -4.88006439763976  1.12173367036704  0.03139893969397
 6 -4.44925231803180  0.38948911421142  1.36544390209021
 6 -2.99257435303530 -0.04899464276428  1.60100211321132
 6 -1.97295639233923  0.49434439163916  2.34754792439244
 6 -0.70030664096410 -0.00935637113711  1.96090676827683
 6 -1.07765195299530 -0.96960001890189  0.91406322572257
 6 -6.30520287638764  1.26864465376538 -0.16615183058306
 6  0.59809841644164  0.29909058555856  2.59248826892689
 6 -6.60004051855185  0.65003425182518 -1.45408113681368
 6 -0.23272952905291 -1.87778651555156  0.16500858235824
 6  1.10388728492849 -1.87856740334033 -0.23183476567657
 6 -5.35172577287729  0.49059727442744 -2.14368167966797
 6  1.97998208340834 -2.90812135053505 -0.90738774807481
 6 -2.11310701160116  1.77631338823882  3.31077546774677
 6 -7.22001949514951  1.84734286348635  0.85483946984698
 6  3.06042237593759 -2.33702365356536 -1.40600184528453
 6  1.20372639993999  1.76989548294829  2.65612924882488
 6  3.01813988928893 -0.92823144874487 -0.96939092729273
 6  1.64594836503650 -4.31298726312631 -0.96522823972397
 6 -7.90990689668967  0.52841447904790 -2.11935032283228
 6  1.74669223482348 -5.12164309890989  0.35922191769177
 6  4.26608221722172 -3.06142461126113 -1.97014624592459
 6  3.81998286888689  0.15538494199420 -1.43409809220922
 6  2.67539816101610  1.70072766096610  3.08139403930393
 6  3.71649602740274  1.51195660716072 -1.23722028932893
 6 -9.12734771817182  0.57175933623362 -1.58192300760076
 6  1.18825389008901 -6.55743239343934  0.30364902390239
 6  4.52770160476048  2.73863061796180 -1.56075315841584
 6  3.93752302070207  3.81703222692269 -1.08628992329233
 6  2.64682625342534  3.30788863996400 -0.46271503420342
 6  5.85956956225623  2.49438427902790 -2.23781573667367
 6  4.35787140694069  5.25649052485249 -1.18601061446145
 6  6.72681273887389  3.43338902370237 -2.61310578747875
 1 -4.46247073317332  2.13781486158616  0.17519055935594
 1 -4.91936659355936 -0.36339781588159  1.31214595879588
 1 -4.70616745664567  0.95073907360736  2.38797570727073
 1 -2.89986902680268 -1.46703409890989  0.03728680688069
 1 -3.30234123142314  0.76636855395540 -1.40588813971397
 1  0.53665810051005 -0.03434312231223  3.53238278637864
 1  1.40441445084508 -0.22157682508251  2.13990912371237
 1 -0.78315697659766 -2.80525799079908  0.00261526382638
 1 -3.14308445374537  2.12012327642764  3.43613360306031
 1 -1.99498071317132  1.34126349024902  4.38198658655866
 1 -1.52073845494550  2.55181900170017  2.92181960376038
 1 -6.68684213511351  2.63568237173717  1.39970220322032
 1 -7.61353112011201  1.28204801400140  1.59916692739274
 1 -7.85521145834583  2.51786786988699  0.35204368456846
 1  1.23037574597460  2.22237427402740  1.65435350265027
 1  0.55899901240124  2.46301312331233  3.29377520172017
 1  1.71840616701670  0.28768941394139  0.01646628132813
 1  2.27381517371737 -4.79395322572257 -1.62117672737274
 1  0.54367616511651 -4.52998284578458 -1.20860934433443
 1 -7.75568663046305  0.69017924852485 -3.31135707390739
 1  1.28928111701170 -4.48265944564456  1.09028660526053
 1  2.89372564266427 -5.11141834633463  0.80967878277828
 1  4.19756481878188 -4.07707515971597 -2.06042950405040
 1  4.99975107350735 -2.80061891209121 -1.15179879747975
 1  4.58614004710471 -2.57156938953895 -2.96744581818182
 1  4.68200782028203 -0.24127622212221 -2.12896907260726
 1 -9.32650625112511  0.35945340084008 -0.62772546234623
 1 -9.96993512711271  0.75030644634463 -2.30189628962896
 1  3.96149083558356  3.19136251995200  3.52952771847185
 1  6.18125159335934  1.50279242844284 -2.44175299029903
 1  5.38177887768777  5.30611337553755 -0.70522914281428
 1  4.56242826532653  5.53596036173617 -2.29354189908991
 1  3.67424509410941  5.89035864226423 -0.58339008060806
 1  1.10619792789279 -8.09829098619862  1.17138319321932
 1  7.79455189958996  3.15133067296730 -3.00412768606861
 1  6.55597748524852  4.46875238743874 -2.63171552405241

