%nproc=4
%Mem=3GB
# td=(NStates=1) B3LYP/SVP 

TD

0 1
 8 -3.22248915911591 -1.34218927442744 -2.82560321462146
 8  3.02343279807981  3.10450210871087  3.22577684858486
 8  3.57242155035504  1.43356048434844  4.53657810141014
 8  7.71232983588359 -1.72763887808781 -0.65638640044004
 8  6.57719187558756 -2.99999079397940 -2.14973142124212
 8 -2.71725263176318  1.63395888498850  1.41266132663266
 7 -0.22375812201220 -2.48842515681568  0.89958479927993
 7 -2.61630366836684 -1.22718785378538 -0.57251939653965
 7  1.17285883528353  0.07937884758476 -0.68825376257626
 7 -0.93020216571657  1.45438084598460 -0.18048894679468
 6 -3.29351450115011 -1.42250981338134  0.70150712461246
 6 -2.66208483458346 -2.44284843104310  1.64327963476348
 6 -1.21189683138314 -2.07266508050805  1.82697068566857
 6 -0.54656445874587 -1.26229742144214  2.70477849834984
 6  0.82836394899490 -1.11572657365737  2.42182337693769
 6  0.95353804000400 -1.94954138883888  1.21588639263926
 6 -4.69259420602060 -1.78103375207521  0.32826971427143
 6  1.82003659505951 -0.34619494909491  3.08357051155116
 6 -4.74524088548855 -1.89354806320632 -1.02812315281528
 6  2.06622457885789 -1.87953614581458  0.24536681538154
 6  2.06104212611261 -0.97859977217722 -0.77174107560756
 6 -3.45331000090009 -1.49435140044004 -1.64263154655466
 6  3.00344140734073 -0.61942269056906 -1.71865576447645
 6 -1.26852542474247 -0.59234309130913  3.91664717301730
 6 -5.75569079317932 -2.13810029032903  1.31326233183318
 6  2.48408806570657  0.55366273447345 -2.43449805980598
 6  1.86801623402340  1.13909960196020  2.74774141574157
 6  1.35698906540654  0.84616126472647 -1.74410051605161
 6  4.21442679177918 -1.42597202630263 -2.09093872397240
 6 -5.87750208630863 -2.34117620802080 -1.94815826402640
 6  5.56962251325133 -0.95786753195320 -1.36631004790479
 6  3.17459755515552  1.28310671327133 -3.51968847804780
 6  0.55674809890989  1.96835198209821 -1.96867861296130
 6  2.97955659595960  1.91516110161016  3.59481482668267
 6 -0.52507633923392  2.27976260846085 -1.22036732463246
 6 -6.95041896839684 -3.06417018111811 -1.60434899359936
 6  6.65972554215422 -2.03865212031203 -1.36473716371637
 6 -1.40508916371637  3.39571180438044 -1.32057013171317
 6 -2.33328741814181  3.37078755775578 -0.27445535173517
 6 -2.16924919731973  2.04111504500450  0.31066999899990
 6 -1.20032001040104  4.51168742894289 -2.20375214321432
 6 -3.36900753725373  4.32599308220822  0.21899613931393
 6 -2.14359825102510  5.54078949714972 -2.49483321612161
 1 -3.39355784898490 -0.41655714561456  1.20429463406341
 1 -2.69001062746275 -3.49345447044704  1.13218356745675
 1 -3.28171799159916 -2.62960640504050  2.48986837553755
 1 -0.46760206500650 -3.06980574567457 -0.02253524352435
 1 -1.98933732343234 -0.49844614811481 -0.67280138253825
 1  1.69497745914591 -0.44267572137214  4.12312441154115
 1  2.70619795269527 -0.70116200750075  2.88168309770977
 1  2.72514132803280 -2.88986056895690  0.46219927312731
 1 -2.21372400170017 -0.94443371737174  4.33983104490449
 1 -0.53334310231023 -0.13073727732773  4.63330968746875
 1 -1.55591490529053  0.54210665736574  3.42834159945995
 1 -5.69874066126613 -1.42973110431043  2.15188948194819
 1 -5.55805456615662 -3.24812891749175  1.62427527382738
 1 -6.65705308210821 -1.84348999239924  0.91784814651465
 1  2.25053119251925  1.14243418531853  1.71094870617062
 1  0.91818176967697  1.57817006130613  2.63973194689469
 1  0.25330358795880  0.23875824562456 -0.16322835513551
 1  4.34179989918992 -1.03599665866587 -3.15786138803880
 1  4.29696052585258 -2.50226200540054 -2.05990309830983
 1 -5.81095323372337 -1.97996892149215 -2.85572903670367
 1  5.21352927422742 -0.71452193209321 -0.17071384768477
 1  6.19565100640064 -0.02441943804380 -1.60262474497450
 1  3.86577648914891  0.68223471557156 -4.02448067756776
 1  3.86267201880188  2.11098217691769 -3.23263559895990
 1  2.43037882718272  1.39421391929193 -4.34362751475147
 1  0.95622953295329  2.76050754725473 -2.66909780178018
 1 -7.03352243834383 -3.44652683658366 -0.62786180738074
 1 -7.78097636253625 -3.33408473897390 -2.27117017051705
 1  3.56841056855686  3.49360872187219  3.88150140434043
 1 -0.18973285208521  4.42191347084708 -2.63191108650865
 1 -4.25005359495950  4.37143372517252 -0.51888303980398
 1 -3.43734248394839  4.11300609420942  1.33391420282028
 1 -2.87347566376638  5.46038632973297  0.05644141404140
 1  8.26331202470247 -2.42827598179818 -0.83551418641864
 1 -1.86387931253125  6.37154761186119 -3.30806565876588
 1 -3.28717107000700  5.63729510531053 -2.03610951845185

