%nproc=4
%Mem=3GB
# td=(NStates=1) B3LYP/SVP 

TD

0 1
 8 -3.38811572177218 -1.37223227872787 -2.88295895019502
 8  3.14612506730673  3.07641930043004  3.20010428132813
 8  3.67061136933693  1.38794592289229  4.52970741434143
 8  7.90050865376538 -1.27519363356336 -1.00825158695870
 8  6.68676283268327 -3.10346114101410 -1.84433088118812
 8 -2.59578048454845  1.58516400550055  1.48022808330833
 7 -0.30447619381938 -2.42747906220622  0.91246608740874
 7 -2.69438147614761 -1.25002013701370 -0.65802794739474
 7  1.19006055545555  0.08154906460646 -0.66690162736274
 7 -0.98033717921792  1.49190459835984 -0.14057495539554
 6 -3.30878602830283 -1.29751731413141  0.51795876977698
 6 -2.69776840294029 -2.34706885308531  1.52389769656966
 6 -1.31630727242724 -2.01940975497550  1.74720270887089
 6 -0.62717251955196 -1.22651384308431  2.77392541304130
 6  0.75778689128913 -1.20071507250725  2.47442863746375
 6  0.94348703490349 -1.92863929862986  1.25423022702270
 6 -4.74664961156116 -1.82699834853485  0.27232411971197
 6  1.79699429082908 -0.47177750735074  3.24614676917692
 6 -4.85571193259326 -2.00960966936694 -1.08015835633563
 6  2.12733068946895 -1.94925311751175  0.36481876057606
 6  2.13178920082008 -0.91103301550155 -0.61712561406141
 6 -3.62177684758476 -1.48379034433443 -1.73813109650965
 6  2.95570663386339 -0.69519026732673 -1.77801170007001
 6 -1.29085765796580 -0.51644550155016  3.84131964026403
 6 -5.76061128522852 -1.93760024032403  1.31928293389339
 6  2.56050570747075  0.37297466566657 -2.45179978997900
 6  1.89279871227123  1.06484217621762  2.88233487508751
 6  1.31926529302930  0.90734738333833 -1.72831893789379
 6  4.24701005010501 -1.50382981208121 -1.99186881698170
 6 -5.81107544364436 -2.44229632003200 -1.88199164736474
 6  5.55495104610461 -0.90314205940594 -1.35528894579458
 6  3.12145224062406  1.03075147774777 -3.68702521172117
 6  0.49645206930693  1.93515866276628 -2.04626637173717
 6  2.97202584288429  1.81062064756476  3.68237358255826
 6 -0.57032086368637  2.24332896509651 -1.19197448534853
 6 -6.90907483398340 -3.19595335943594 -1.60640919961996
 6  6.78890846044605 -1.93945220032003 -1.47878856885689
 6 -1.45567422222222  3.43557579077908 -1.35902397709771
 6 -2.33642773217322  3.33094357335734 -0.21488939513951
 6 -2.01468374077408  2.12570350385039  0.53150208220822
 6 -1.29624960336034  4.46054231443144 -2.33120488848885
 6 -3.45573621012101  4.30417089999000  0.17887212691269
 6 -1.85977986918692  5.74158957715772 -2.39260299309931
 1 -3.34313280648065 -0.36014150405041  1.39333353795380
 1 -2.79409103550355 -3.14831995699570  1.02537288638864
 1 -3.36830665046505 -2.40634407880788  2.37395678437844
 1 -0.82140744554455 -2.43442220732073 -0.21132412241224
 1 -2.13397178687869 -0.39344564806481 -0.81243534593459
 1  1.56482444384438 -0.68178963276328  4.20517261636164
 1  2.92176950985099 -0.88783067436744  2.86442137153715
 1  2.97937675157516 -2.67228881178118  0.36477953115311
 1 -2.10583321262126 -1.22352162616262  4.22224928672867
 1 -0.68016778477848 -0.15969017261726  4.59904626112611
 1 -1.94775408920892  0.22257470417042  3.44654341964196
 1 -5.71758254545455 -1.24155228642864  2.11827612061206
 1 -5.63870263096310 -2.92987709230923  1.84613746004600
 1 -6.86914429122912 -1.93520916431643  0.84354071577158
 1  1.98617475687569  1.24588453035304  1.90826843814381
 1  0.98908886038604  1.66845909020902  3.08638661236124
 1  0.40599885748575  0.16301067086709 -0.11600363266327
 1  4.55353107230723 -1.54758781778178 -3.04154975687569
 1  4.25897672747275 -2.65530730993099 -1.53980108810881
 1 -5.81412355075507 -1.98200912551255 -2.93734719851985
 1  5.36951487278728 -0.91347182708271 -0.35586236253625
 1  5.60809225052505  0.19713271717172 -1.84375885838584
 1  3.98615852735274  0.45026151825183 -4.19858808830883
 1  3.57740349194920  2.03139421812181 -3.38125046044604
 1  2.25364115341534  1.10937543544354 -4.30055320732073
 1  0.56338024802480  2.67518901540154 -2.84436532853285
 1 -7.02506159225923 -3.70351253515352 -0.78004702590259
 1 -7.60885915081508 -3.34979631013101 -2.53285633913391
 1  3.79771349884989  3.58178753975398  3.62416567076708
 1 -0.63380725952595  4.14301558105810 -3.12937083248325
 1 -3.87666625622562  4.66956353815382 -0.81616276777678
 1 -4.24012276197620  3.77379217281728  1.00270108150815
 1 -2.78045636183618  5.20779107020702  0.67880365026503
 1  8.52106780028003 -2.04433758795880 -0.83076371137114
 1 -1.79702262686269  6.66800725782578 -3.13341819401940
 1 -2.44309666256626  5.93336471227123 -1.49772568006801

