%nproc=4
%Mem=3GB
# td=(NStates=1) B3LYP/SVP 

TD

0 1
 8 -3.19243615381538 -1.26002105760576 -2.81135178947895
 8  3.33634408920892  2.95829748824882  3.00799507040704
 8  3.47624193239324  1.33445057335734  4.65609005260526
 8  7.69471807470747 -1.21408752295230 -0.92202296409641
 8  6.77800195659566 -2.93687448234823 -2.13302975107511
 8 -2.59482038853885  1.64850033913391  1.54085414591459
 7 -0.29228497469747 -2.41913822812281  0.94388922972297
 7 -2.60734277227723 -1.32621775677568 -0.63929607420742
 7  1.12210375977598  0.03796470617062 -0.69698463566357
 7 -1.11808095359536  1.43611901980198 -0.26071696959696
 6 -3.36601175087509 -1.40457802020202  0.62635960986099
 6 -2.60543917001700 -2.41557570377038  1.59878518531853
 6 -1.24305994769477 -2.05309312331233  1.92172016061606
 6 -0.58130793309331 -1.09831102280228  2.85628364886489
 6  0.78565967856786 -1.14770977197720  2.48724991959196
 6  0.89824251045105 -1.81062749744974  1.25949075307531
 6 -4.75539048564857 -1.84715036373637  0.21061794909491
 6  1.85210980238024 -0.37514784438444  3.31551370587059
 6 -4.81006736813681 -1.93568227662766 -1.08627896839684
 6  2.05535349174917 -1.95415360756076  0.33592587128713
 6  2.08557457935794 -1.01155306750675 -0.69061296279628
 6 -3.44177884778478 -1.42669463476348 -1.64462174557456
 6  3.01198226142614 -0.72134288258826 -1.70776467536754
 6 -1.32434100630063 -0.45766962396240  3.97202271057106
 6 -5.72874809890989 -1.98904538483848  1.15676668226823
 6  2.59098875577558  0.44675204340434 -2.35541015101510
 6  1.90174960736074  1.05948164016402  2.77397403900390
 6  1.46612997949795  0.87340398899890 -1.71723782978298
 6  4.21702705180518 -1.57922735183518 -2.06334596469647
 6 -5.87086142224222 -2.34478656905691 -2.02255570377038
 6  5.32187773877388 -1.16940868606861 -1.17900131703170
 6  3.19642973837384  1.00635903850385 -3.65211172037204
 6  0.52095451955196  2.02835798269827 -2.01414315941594
 6  2.97147578787879  1.72897248274827  3.59015436063606
 6 -0.59848367996800  2.30737536973697 -1.21959724762476
 6 -6.91587551405140 -3.10698446254626 -1.65382394109411
 6  6.65257482708271 -1.89578783388339 -1.50752144214421
 6 -1.52079073387339  3.40492272547255 -1.34552262696270
 6 -2.42319640904090  3.35594607360736 -0.22886079227923
 6 -2.05242751515152  2.07951888538854  0.51240017201720
 6 -1.18603858225823  4.53851011121112 -2.32888465646565
 6 -3.48240887738774  4.23778426132613  0.23429766946695
 6 -1.95709960116012  5.55856127432743 -2.57533126592659
 1 -3.25629412261226 -0.43268875877588  1.26067027162716
 1 -2.45819744614461 -3.40389551455146  1.01898224732473
 1 -3.02438225802580 -2.50767421182118  2.59686907560756
 1 -0.68526383118312 -2.86482524762476 -0.10049303930393
 1 -1.89020741044104 -0.50651695519552 -0.64963906630663
 1  1.37954591599160 -0.38854030783078  4.23364546364636
 1  2.76164349724972 -0.90001189248925  3.20207513691369
 1  2.70580939483948 -2.67412899579958  0.56821987518752
 1 -1.83618624792479 -1.19189846384638  4.76571363316332
 1 -0.59063883188319 -0.07073127672767  4.40927728422842
 1 -2.09193850765077  0.32747519421942  3.39969873517352
 1 -5.85739652685268 -1.43991212241224  2.06677097009701
 1 -5.72882164286429 -3.06404050865086  1.67741058735874
 1 -6.63947132393239 -1.97331297469747  0.56918328002800
 1  2.09012515191519  1.28147808970897  1.72151976327633
 1  0.89310926242624  1.60539278357836  3.14538251195119
 1  0.26973523112311  0.12948731853185 -0.04772680498050
 1  4.29863558275828 -1.18243130213021 -3.09672527442744
 1  4.15533636343634 -2.64872665186519 -1.94431153915391
 1 -5.90395253365337 -1.85849677427743 -3.05092855665567
 1  5.25014293559356 -1.39508998889889 -0.09743651995200
 1  5.69455089638964 -0.21475847194719 -1.29482396489649
 1  4.13444335583558  0.58074456655666 -4.11891012051205
 1  3.33160891249125  2.03864494319432 -3.39153148854885
 1  2.50602639193919  1.35207970587059 -4.47045019701970
 1  0.75767967796780  2.67104860136014 -2.74899579157916
 1 -6.95406449254925 -3.31425360926093 -0.53617263846385
 1 -7.93362162706271 -3.57328865936594 -2.20661371487149
 1  3.97503123062306  3.50144950595059  3.58567182138214
 1 -0.10043392219222  4.35392667216722 -2.70317821322132
 1 -4.28176676627663  4.33139972177218 -0.35651680318032
 1 -3.57623637333733  3.73556835043504  1.26170698209821
 1 -2.82783109930993  5.07921821292129  0.61768753865387
 1  8.55979167266727 -1.67228038223822 -1.23643427842784
 1 -1.71652457705771  6.36725718281828 -3.31369622182218
 1 -2.80694304720472  5.81286266206621 -1.87112301980198

