%nproc=4
%Mem=3GB
# td=(NStates=1) B3LYP/SVP 

TD

0 1
 8 -3.24961187138714 -1.31877693319332 -2.85570622492249
 8  3.22849330413041  3.08121978047805  3.13578784968497
 8  3.96876118431843  1.18948607690769  4.14034847844785
 8  7.70822942584258 -1.82052816701670 -0.56526728852885
 8  6.84774893129313 -2.83057385228523 -2.46735318341834
 8 -2.74254516101610  1.69786527562756  1.41708176867687
 7 -0.28067381358136 -2.35969228352835  0.97539238003800
 7 -2.66973901190119 -1.17694282928293 -0.52852499709971
 7  1.15978752815282  0.12530344004400 -0.71358629582958
 7 -1.05282442794279  1.55791119901990 -0.17132803070307
 6 -3.41525667536754 -1.33452101450145  0.70046702060206
 6 -2.66038466456646 -2.30958510471047  1.62765807260726
 6 -1.24657029872987 -2.02628044204420  1.85572356095610
 6 -0.59647945024502 -1.25891708340834  2.91970999149915
 6  0.74393550615062 -1.12231723272327  2.51906310091009
 6  0.92071475767577 -1.88660509520952  1.30622542654265
 6 -4.71738668526853 -1.83803945264526  0.25609249654965
 6  1.82253684508451 -0.39818014761476  3.25794794929493
 6 -4.80345670707071 -1.94121282968297 -1.07676801730173
 6  2.09408736513651 -1.95776396859686  0.38314059275928
 6  2.10136615851585 -0.95197710991099 -0.65962986448645
 6 -3.52547721762176 -1.43346531183118 -1.62386967036704
 6  3.08040910411041 -0.61896264456446 -1.65970986988699
 6 -1.34940351255126 -0.54552840984098  3.95575108340834
 6 -5.86091131523152 -2.20004648494849  1.23522452805281
 6  2.61285094199420  0.44916228442844 -2.40453506350635
 6  1.92478191059106  1.06393208520852  2.86321296289629
 6  1.37247061356136  0.96086273487349 -1.76358246424642
 6  4.19788513761376 -1.46961639073907 -2.02202183228323
 6 -5.82049638573857 -2.43131522192219 -1.95265871407141
 6  5.38820437143714 -1.02705445064506 -1.06991040794079
 6  3.27595769116912  1.22543094569457 -3.52365887508751
 6  0.48800122422242  2.00011515841584 -2.02238398349835
 6  3.09585822612261  1.80005959145915  3.55579092429243
 6 -0.62544637623762  2.32053668586859 -1.17319260716072
 6 -6.90639456595660 -3.30083384748475 -1.76398495719572
 6  6.68913848344835 -1.94102235733573 -1.42727341734173
 6 -1.47939659445945  3.51148338153815 -1.30827890259026
 6 -2.38589267866787  3.46363684268427 -0.29051695789579
 6 -2.06601887428743  2.14235516901690  0.41157008900890
 6 -1.36148612701270  4.49085534573457 -2.45468723672367
 6 -3.70414105060506  4.17313779667967  0.03828806850685
 6 -1.91775566676668  5.65126054425443 -2.40650438323832
 1 -3.44036252945295 -0.45642113201320  1.19637384198420
 1 -2.72107373377338 -3.39442456745675  1.19444979407941
 1 -3.21293111291129 -2.40627407180718  2.54679406810681
 1 -0.28717402220222 -2.63180194529453 -0.03396638663866
 1 -1.90031842154215 -0.43314961846185 -0.51840594299430
 1  1.68735669706971 -0.59409086288629  4.26128822792279
 1  2.73914124702470 -1.05445733703370  3.06282121152115
 1  2.83738255215522 -2.60026160906091  0.54598765196520
 1 -2.01200382968297 -0.98282755675568  4.70907796959696
 1 -0.45666543454345 -0.12853705730573  4.51044740124012
 1 -1.94537385118512  0.30701314801480  3.48068683398340
 1 -6.10160094729473 -1.18153628482848  1.83718801180118
 1 -5.32582134283428 -3.05337944254425  2.03118596489649
 1 -6.88684606140614 -2.66263190659066  0.73156951865187
 1  1.86313245264527  0.69812975487549  1.77268487978798
 1  0.95361531303130  1.58106035033503  3.09560753445345
 1  0.36388464606461  0.35759012881288 -0.11718375067507
 1  4.33809952915292 -1.56461952095210 -3.10107570947095
 1  4.20062089188919 -2.61704348354835 -1.82986009400940
 1 -5.83633577197720 -2.08262918751875 -3.17309077287729
 1  5.03876179747975 -1.56443692359236  0.04008723242324
 1  5.64069551085109  0.07932093599360 -1.12002648514851
 1  4.15574548604861  0.70318681078108 -3.71768999849985
 1  3.45519127072707  2.24582566126613 -3.18713104850485
 1  2.46571236053605  1.38698319621962 -4.30283343534353
 1  0.85613952395240  2.67547904440444 -2.76013690569057
 1 -7.01191027712771 -3.74808699259926 -0.91974099529953
 1 -7.68919718461846 -3.43682501300130 -2.40999405290529
 1  3.96936066356636  3.53685304630463  3.76043929812981
 1 -0.80961484028403  4.22384366386639 -3.18793668906891
 1 -4.33132172177218  4.61520810261026 -0.71809296079608
 1 -4.34841359105911  3.53218801240124  0.79252006340634
 1 -3.44589290549055  5.17717800890089  0.38471424132413
 1  8.39587528102810 -2.44152730693069 -0.88428906390639
 1 -1.78033095769577  6.42794325142514 -3.12826767896790
 1 -2.62471482438244  5.97839921572157 -1.61111701920192

