%nproc=4
%Mem=4GB
# td=(NStates=1) B3LYP/SVP 

TD

0 1
 8 -5.25818204820482  0.08372381198120 -3.22490227992799
 8  3.03881388688869  3.04151140584058  3.40291637003700
 8  3.43713206180618  0.82859825882588  3.06916880198020
 8  1.10982862236224 -7.16085235533553  1.53592209850985
 8  0.52133702170217 -7.00063648724873 -0.69442742564256
 8  1.75407245534553  4.11895501830183  0.00063957135714
 7 -2.32149176027603 -0.93113154335434  0.60202721932193
 7 -4.28205308670867  0.73543120962096 -1.21651000580058
 7  1.91921231283128 -0.74375594859486 -0.30624910251025
 7  2.57160270217022  1.92047779327933 -0.46020276697670
 6 -4.79503589478948  1.19819131613161  0.08106390619062
 6 -4.34317170997100  0.27454762006201  1.24014137183718
 6 -2.86035113071307  0.06338659535954  1.30411242424242
 6 -1.93583267996800  0.59543450065007  2.14891806140614
 6 -0.67939454975498 -0.03479891539154  1.76902758035804
 6 -1.00582477027703 -1.10118317721772  0.88486030543054
 6 -6.28924128022802  1.22658044734473 -0.05300051545155
 6  0.64650325692569  0.19659033553355  2.46624564466447
 6 -6.63091360586059  0.75332458085809 -1.29431516021602
 6 -0.12440869696970 -2.02550128702870  0.18638071957196
 6  1.19536643284328 -1.85918546514651 -0.24917649984998
 6 -5.35139573987399  0.43533174787479 -2.08754606610661
 6  1.96116020122012 -2.86358689708971 -0.95233224252425
 6 -2.00537623852385  1.63655941284128  3.21294568476848
 6 -7.26891438463846  1.73718184738474  1.01031501740174
 6  3.17421375507551 -2.33534348554855 -1.37100834593459
 6  1.15959198649865  1.72649114251425  2.52374601050105
 6  3.16936501180118 -0.92134075967597 -1.05362935113511
 6  1.48693246344634 -4.40277624202420 -0.98691040794079
 6 -7.84222012801280  0.60941257885789 -2.02989137693769
 6  1.59828739433943 -5.13598453305331  0.40327632313231
 6  4.32935854485449 -3.03235170397040 -2.06025525682568
 6  3.94954582518252  0.12439184268427 -1.33142782518252
 6  2.68383900510051  1.80099768796880  3.04798069796980
 6  3.64736911471147  1.59195460696070 -1.05766233353335
 6 -9.12978796219622  0.63807596789679 -1.61147596289629
 6  0.99454451915192 -6.50111676187619  0.32792145114511
 6  4.50373920852085  2.72698945384538 -1.51247833093309
 6  3.81941120952095  3.89536005970597 -1.18737003130313
 6  2.56312788358836  3.35164301540154 -0.54711347404741
 6  5.80363396869687  2.55242008260826 -2.13916587168717
 6  4.15095071487149  5.27902277807781 -1.29761177457746
 6  6.97067712531253  3.35776146094609 -2.44197867476748
 1 -4.27967245334533  2.32200328042804  0.52763580388039
 1 -4.73384804170417 -0.80900237633763  1.03098784298430
 1 -4.90751759165917  0.67766176587659  2.15091200090009
 1 -2.79544858475848 -1.39537693319332 -0.08935585738574
 1 -3.25680667796780  0.55055697279728 -1.51812936383638
 1  0.71994642934293  0.00338065006501  3.67242679077908
 1  1.42968697809781 -0.41300596799680  2.10478561136114
 1 -0.60924958585859 -2.90653811881188 -0.18062306000600
 1 -3.07424757005701  1.87926919101910  3.44060405010501
 1 -1.69369058415842  1.39659902380238  4.11289967786779
 1 -1.74580096119612  2.50182400220022  2.80375779757976
 1 -6.73263671457146  2.43836263976398  1.61393362636264
 1 -7.51429119611961  0.88157796699670  1.77131414211421
 1 -8.16254219141914  2.11985806890689  0.56804528472847
 1  1.05733844224422  2.25395743234323  1.58751681898190
 1  0.73244635713571  2.31652847484748  3.37449327352735
 1  1.68524285068507  0.19017966296630 -0.15987135243524
 1  2.16749454165417 -4.71238506890689 -1.94513912361236
 1  0.51806360386039 -4.52238208570857 -1.49789827322732
 1 -7.49670073187319  0.29971020162016 -3.06632257045705
 1  0.97113930283028 -4.48961014071407  1.06963454005401
 1  2.82581885198520 -5.31511871637164  0.62480029492949
 1  4.23129819211921 -4.10906835903590 -2.35147860896090
 1  5.13330442884288 -2.81228007820782 -1.27083070067007
 1  4.46439787288729 -2.53806603920392 -2.94359343294329
 1  4.96483610311031 -0.28783087758776 -1.94196037173717
 1 -9.37504110461046  0.53037049254926 -0.47994068386839
 1 -10.06622475607561  0.50779219491949 -2.28590469046905
 1  3.98288297479748  3.21470485418542  3.38258302400240
 1  5.91103457165717  1.51360350955095 -2.46896571157116
 1  5.31559225902590  5.50858362256226 -1.04016263616362
 1  4.39078110061006  5.36875364106411 -2.52700524542454
 1  3.51933960356036  5.88737834423442 -0.36535827742774
 1  0.55329263736374 -8.10587174427443  1.42094814971497
 1  7.76022846724672  3.04649018891889 -3.00578785208521
 1  7.25722761026103  4.41854736693669 -2.01389374187419

