%nproc=4
%Mem=3GB
# td=(NStates=1) B3LYP/SVP 

TD

0 1
 8 -3.11957886808681 -1.26256131163116 -2.90567122142214
 8  3.20163061786179  3.10896255475548  3.02143641454145
 8  3.40548485668567  1.50873800210021  4.67925236883688
 8  7.79432803570357 -1.59116523072307 -1.04111487328733
 8  6.54439859625963 -3.09363015791579 -2.23399984808481
 8 -2.68848975547555  1.75220070917092  1.44985504600460
 7 -0.21198694489449 -2.34334064836484  0.96106094689469
 7 -2.58180021802180 -1.20103523852385 -0.65203734833483
 7  1.19326087548755  0.17978888858886 -0.63178811601160
 7 -0.97060620612061  1.49721512941294 -0.10156105400540
 6 -3.33268841854185 -1.44997255965597  0.71538851275128
 6 -2.59593821992199 -2.39995414161416  1.68624393119312
 6 -1.13480912261226 -1.99902771677168  1.84874286288629
 6 -0.53907370967097 -1.31855304700470  2.93732175267527
 6  0.81692280488049 -1.17800280128013  2.55126632123212
 6  0.98220090629063 -1.89275571027103  1.34324912891289
 6 -4.69369431603160 -1.98689433813381  0.19793668096810
 6  1.82522711411141 -0.37193752335234  3.22210436493649
 6 -4.75121148254826 -1.99085779417942 -1.17300764126413
 6  2.14152210861086 -1.82757094929493  0.38410068876888
 6  2.11702772467247 -0.93208512071207 -0.54923882538254
 6 -3.41928659855986 -1.52158412371237 -1.75187247064706
 6  2.91850291349135 -0.66483723202320 -1.68676257515752
 6 -1.39362793499350 -0.49375323232323  4.03039854815482
 6 -5.68807403150315 -2.39604608490849  1.22478348394839
 6  2.51292094899490  0.51555892409241 -2.40696530653065
 6  1.94278371077108  1.10048574057406  2.76785342694269
 6  1.42088545504550  0.96780342894289 -1.71386749274927
 6  4.15515086418642 -1.51803123222322 -1.96966659675968
 6 -5.79075341144114 -2.50526261666167 -2.08012146034603
 6  5.39692524352435 -1.19557130233023 -1.21048446534653
 6  3.17473756915692  1.12731113371337 -3.60001651085109
 6  0.50049247334733  1.99264441134113 -1.98542028712871
 6  2.96310495079508  1.88481806730673  3.60641598679868
 6 -0.57096092769277  2.29606423862386 -1.19356464436444
 6 -7.11156508300830 -2.94420818491849 -1.74336289498950
 6  6.64956452605260 -2.11250950605060 -1.55270596059606
 6 -1.50447910271027  3.47874010721072 -1.30787886258626
 6 -2.37198128752875  3.40560103910391 -0.26167407360736
 6 -2.06661893429343  2.11347228072807  0.47276620862086
 6 -1.24663464186419  4.48525478567857 -2.28916068406841
 6 -3.39649028552855  4.40223070597060  0.21399563926393
 6 -2.02141603280328  5.59429484768477 -2.44435816861686
 1 -3.37537603080308 -0.55143063296330  1.20623482808281
 1 -2.64923655005501 -3.35751087608761  1.35585593469347
 1 -3.24768458825883 -2.31928537293729  2.54419380808081
 1 -0.54628993379338 -2.79825859095910  0.11484849484949
 1 -1.82576096579658 -0.36131243474347 -0.49738384078408
 1  1.54423238463846 -0.72821427522752  4.22928502760276
 1  2.73155048794880 -1.04719661096110  2.84664959435944
 1  2.68983779767977 -2.72184376727673  0.33976702990299
 1 -2.35674830413041 -1.16757603160316  4.47110417221722
 1 -0.82570233823382  0.11052684908491  4.76916327282728
 1 -1.96993630743074  0.21016346304630  3.17910667596760
 1 -5.30824161136114 -1.93884201540154  2.26599089208921
 1 -5.93119187988799 -3.75238934353435  1.27499034533453
 1 -6.76959433623362 -2.03363900730073  0.90779714141414
 1  2.37939407880788  1.09282922482248  1.74445205650565
 1  1.05678563006301  1.60713295759576  2.90868884258426
 1  0.41771002860286  0.55210958075808  0.04108207590759
 1  4.42299801900190 -1.34207726672667 -3.12541814371437
 1  3.89819064886489 -2.62290406960696 -2.22760986898690
 1 -5.56524866326633 -2.23335426002600 -3.14211767556756
 1  5.16126404770477 -1.14061454135414 -0.20030680698070
 1  5.61356279757976 -0.21183817991799 -1.35561004350435
 1  4.03054296579658  0.55615210731073 -4.08051628112811
 1  3.36454220582058  2.06575765446545 -3.32707504290429
 1  2.45752154145414  1.11983648154815 -4.46367951995200
 1  0.73386729672967  2.64705620212021 -2.86273716571657
 1 -7.17741682778278 -3.28840102400240 -0.65372439363936
 1 -7.76818508340834 -3.49710104060406 -2.48906195969597
 1  3.78621234873487  3.59519888088809  3.70177343154316
 1 -0.38887276607661  4.39475075457546 -2.94680257565757
 1 -4.06560515011501  4.63123970577058 -0.70038118961896
 1 -3.89094784448445  3.81940673427343  0.97492830423042
 1 -2.99594791099110  5.44910520162016  0.40524629452945
 1  8.34126982048205 -2.39678283248325 -1.08344897989799
 1 -1.93696662126213  6.18789924702470 -3.43679853205321
 1 -3.02353470637064  5.87748912471247 -2.03944985248525

