%nproc=4
%Mem=4GB
# td=(NStates=1) B3LYP/SVP 

TD

0 1
 8 -5.28453468346835  0.20046548614862 -3.29650944064406
 8  3.33214321982198  2.88333558825883  2.90071615001500
 8  3.37402575117512  0.67623302230223  2.90176206130613
 8  1.52463010251025 -7.23731000110011  1.54457296359636
 8  0.66587147514751 -7.08811523512351 -0.59794777767777
 8  1.51251829992999  3.93741686448645 -0.02993348594859
 7 -2.32154176527653 -0.83487191739174  0.55221223782378
 7 -4.32570745214522  0.62156982348235 -1.25405376017602
 7  1.84904529612961 -0.69440101310131 -0.36802528012801
 7  2.52360790269027  1.83538928442844 -0.40572731943194
 6 -4.72175856705671  1.07201869886989  0.02696849664966
 6 -4.40218761156116  0.33242340764076  1.23727108480848
 6 -2.94578967456746  0.07448770547055  1.36509852285229
 6 -1.96972606930693  0.60701565876588  2.23915708530853
 6 -0.72449906020602  0.02421698619862  1.92887356495650
 6 -0.95119930773077 -1.00925398429843  0.87074889428943
 6 -6.28619097519752  1.24255204450445 -0.20178539393939
 6  0.63404201080108  0.19139981648165  2.69981900200020
 6 -6.58084859935994  0.87564681308131 -1.40909663836384
 6 -0.20569682578258 -1.95913465036504  0.18523060456046
 6  1.13664056025603 -1.83929347594759 -0.27552913511351
 6 -5.44175477577758  0.48740695539554 -2.13657096859686
 6  1.94281836703670 -2.92912345074507 -0.97140414971497
 6 -2.10965666656666  1.64171992889289  3.19379376957696
 6 -7.12931042424242  1.89539766896690  0.93041702760276
 6  3.14969130283028 -2.36849680088009 -1.20720196529653
 6  1.20302632993299  1.58221671507151  2.54367800370037
 6  3.02149022432243 -0.93796242184218 -1.00739472767277
 6  1.52876664686469 -4.39055501990199 -0.93852556945695
 6 -7.92362826882688  0.89584122172217 -2.07827621542154
 6  1.72121968756876 -5.13767470207021  0.41932792829283
 6  4.42769837883788 -2.93499196799680 -1.81857108840884
 6  3.90619148974897  0.16885628912891 -1.27799248164816
 6  2.72495311651165  1.63835142334233  2.88329422932293
 6  3.67480185798580  1.52512792429243 -1.01348791609161
 6 -9.16368135153515  0.79843200350035 -1.47691250655065
 6  1.32120718541854 -6.61350800100010  0.31656031503150
 6  4.52660149474948  2.67280403530353 -1.44480156325633
 6  3.76754602300230  3.77902842654265 -1.08983027732773
 6  2.45073664446445  3.34610246134613 -0.41494025672567
 6  5.80586419171917  2.54070891149115 -2.04694664976498
 6  4.04339995979598  5.24799967576758 -1.17557957135714
 6  6.65704576217622  3.48421410621062 -2.50906538343834
 1 -4.42795728182818  2.29875095519552  0.23552659295930
 1 -4.99492414931493 -0.52522399849985  1.43116786098610
 1 -4.66142298219822  0.92947694739474  2.04828173787379
 1 -2.66563560346035 -1.49604700020002 -0.27577449924992
 1 -3.36438743604360  0.91347326442644 -1.75477302820282
 1  0.46053048774877 -0.13672336033603  3.73100264836484
 1  1.22043605300530 -0.50930559795980  2.20913604640464
 1 -0.67936659755976 -2.89096656165617 -0.14330932863286
 1 -3.12609275457546  1.90700196429643  3.70967095679568
 1 -1.51757297239724  1.57599696359636  4.04505289318932
 1 -1.62789917101710  2.63119693949395  2.95657307910791
 1 -6.44775822672267  2.71847065056506  1.38540077307731
 1 -7.38775854285429  1.23936374557456  1.78654566526653
 1 -8.13011894909491  2.31718780188019  0.38852733293329
 1  1.01452416081608  2.07673971057106  1.53932199949995
 1  0.66661977447745  2.42760958295830  3.18365418961896
 1  1.63178750515052  0.33225387038704 -0.07582294759476
 1  2.06371416361636 -4.85127895829583 -1.84843945364536
 1  0.45280707820782 -4.43892373987399 -1.31738022142214
 1 -7.92458352015201  1.19563979457946 -3.21388732693269
 1  1.12231442034203 -4.69917109680968  1.30602817941794
 1  2.75123139323932 -5.21919912441244  0.93108092299230
 1  4.42304736703670 -4.02361981418142 -1.69560302140214
 1  5.26961806020602 -2.54959380958096 -1.35615923352335
 1  4.40326175927593 -2.57468970157016 -3.06267534113411
 1  4.73694331383138 -0.07842993749375 -1.78284446014601
 1 -9.09147274777478  1.04736219171917 -0.39194188398840
 1 -10.22812094569457  0.76855827152715 -1.88933503350335
 1  4.15754044054405  2.66366975067507  3.48680344604460
 1  6.26647011521152  1.40757290649065 -2.12938175317532
 1  5.00264096389639  5.54184694889489 -0.66777539743974
 1  4.23868589108911  5.42509927562756 -2.21771431633163
 1  3.24308197779778  5.94518412481248 -0.92259400100010
 1  1.41229853795380 -8.21226238333833  1.26939299419942
 1  7.64819726412641  3.21032657255726 -2.77029430273027
 1  6.40760264776478  4.66847235943594 -2.48005035753575

