%nproc=4
%Mem=4GB
# td=(NStates=1) B3LYP/SVP 

TD

0 1
 8 -5.33143937393739  0.10831627122712 -3.23626341604160
 8  3.03976398189819  2.92683993869387  3.25711178957896
 8  3.38450679927993  0.77551295029503  3.15038692379238
 8  1.39798743824382 -7.07928419851985  1.54566307260726
 8  0.63304819281928 -7.02997942154215 -0.54272225512551
 8  1.72633968206821  4.12866598939894  0.05588509590959
 7 -2.31360097119712 -0.95337376757676  0.60179719631963
 7 -4.36523140454045  0.60854852135214 -1.23168152295230
 7  1.94592498409841 -0.76126769976998 -0.34302277987799
 7  2.55870141204120  1.99330507600760 -0.49931667836784
 6 -4.76994338553855  1.17568906590659  0.08586438623862
 6 -4.42320971377138  0.28878904420442  1.18618597629763
 6 -2.90971606720672  0.02119237593759  1.26885889888989
 6 -1.95346444314431  0.57091204840484  2.11231440104010
 6 -0.77351396169617 -0.07624305980598  1.89533021062106
 6 -1.00793498129813 -1.08996205510551  0.93708552795280
 6 -6.20429278537854  1.33625141444144 -0.13563877927793
 6  0.54727333393339  0.22249292579258  2.58118713881388
 6 -6.55634614911491  0.91434068246825 -1.41950767946795
 6 -0.19553580968097 -2.05192392929293  0.18706078757876
 6  1.17069396559656 -1.95568511511151 -0.18255983818382
 6 -5.39306990729073  0.45319353405341 -2.13620093159316
 6  1.99861394659466 -3.01424196259626 -0.84429143844384
 6 -2.18425412631263  1.60342609950995  3.17325171537154
 6 -7.00735822902290  1.94444257345735  0.96960094599460
 6  3.04430076377638 -2.36797674887489 -1.45471671677168
 6  1.16562258955896  1.65591408480848  2.52748638453845
 6  3.10380845614561 -0.92234085968597 -1.08004199239924
 6  1.60690446064606 -4.39828579297930 -1.00686240314031
 6 -7.91967787378738  0.75416705430543 -2.05168355615562
 6  1.63253081868187 -5.05897683228323  0.30652664816482
 6  4.32644825382538 -2.93467193599360 -2.10423965526553
 6  3.98801967256726  0.13698310181018 -1.28829351175118
 6  2.59739036023602  1.67540512871287  3.00567646754675
 6  3.66722109990999  1.56858226972697 -1.08841540884088
 6 -9.10159514291429  0.65293745404540 -1.45964077937794
 6  1.19502456715672 -6.51099774997500  0.35715437443744
 6  4.49947878247825  2.72923967886789 -1.52472955605561
 6  3.77645691409141  3.79210973467347 -1.09485077937794
 6  2.56462803360336  3.46855470657066 -0.47884664736474
 6  5.82653625892589  2.42348718931893 -2.25132708780878
 6  4.37170279007901  5.15709058485849 -1.23069508290829
 6  6.68529858745875  3.53425911071107 -2.51819629652965
 1 -4.33864835093509  2.32859393949395  0.10623366366637
 1 -5.12223688058806 -0.64690616671667  0.95561030523052
 1 -4.72652949284929  0.61143514321432  2.10041695139514
 1 -2.65748478837884 -1.68555595109511 -0.11144806660666
 1 -3.46957795509551  0.58319023612361 -1.67868541944194
 1  0.42112654735474 -0.10742043004300  3.57416696479648
 1  1.40464447384738 -0.42757742514251  2.39632476527653
 1 -0.70797945884588 -3.04062152715272 -0.05347034473447
 1 -3.18894904020402  1.34608587268727  3.56052604230423
 1 -1.51194240934093  1.42770213411341  4.01890027792779
 1 -1.83717009810981  2.69809362916292  2.83395081688169
 1 -6.29796324722472  2.52822162566257  1.67298953195320
 1 -7.39302906990699  1.05805561476148  1.41533854455446
 1 -7.89930586778678  2.58249433253325  0.62288076827683
 1  1.13637634603460  2.31334337093709  1.53061112841284
 1  0.43289640214021  2.29168599059906  3.30035585978598
 1  1.70279460586059  0.14967561256126  0.17693232793279
 1  2.31549934213421 -5.10482431283128 -1.67597220692069
 1  0.57642944044404 -4.39238908640864 -1.46807529092909
 1 -7.77440850265027  0.79440967156716 -3.18045398359836
 1  0.88449063796380 -4.38546972667267  1.00231780838084
 1  2.60682695279528 -5.29920712521252  0.87998581348135
 1  4.16668173047305 -3.98842629482948 -1.80246370747075
 1  5.29320041844184 -2.64997384758476 -1.53479709730973
 1  4.10186161926193 -2.86438867146715 -3.21270034363436
 1  4.91352097159716  0.12389029452945 -1.83318949464947
 1 -9.03499710021002  0.71459891539154 -0.21549423922392
 1 -10.06616475007501  0.83327474317432 -2.03100920092009
 1  3.99834452095210  2.63291667536754  3.51762652835284
 1  6.07566103430343  1.40316246544654 -2.46591540654065
 1  5.20341104090409  5.45265803000300 -0.28370699059906
 1  4.70011203370337  5.24164092979298 -2.35178772367237
 1  3.64702237183718  6.14218382478248 -1.07211895349535
 1  1.06897420552055 -8.02718387548755  1.33768982388239
 1  7.52222466686669  3.30210575047505 -3.19255652895289
 1  6.32020390789079  4.52365787798780 -2.13723607610761

