%nproc=4
%Mem=3GB
# td=(NStates=1) B3LYP/SVP 

TD

0 1
 8 -3.33311022122212 -1.30387544304430 -2.85620627492749
 8  3.15164561936194  3.05639729822982  3.11658592949295
 8  3.64934924312431  1.40882801110111  4.50782522612261
 8  7.76702530543054 -1.47096321052105 -0.73828459025903
 8  6.69653380978098 -2.88442923782378 -2.01390783888389
 8 -2.62522342884288  1.61587707680768  1.40606066656666
 7 -0.22716846304630 -2.40608692299230  0.95077991879188
 7 -2.56493853185319 -1.34815995099510 -0.62438458305831
 7  1.18513006240624  0.00851176087609 -0.72371730893089
 7 -1.00444959045905  1.41113652155216 -0.23906480438044
 6 -3.32908805850585 -1.48270583298330  0.70610758465847
 6 -2.58055668176818 -2.45463961016102  1.66768207500750
 6 -1.25264090579058 -2.08973678767877  1.82976096469647
 6 -0.66707650995099 -1.23255444714471  2.80269829032903
 6  0.71255236783678 -1.18290329132913  2.48421961656166
 6  0.88251093729373 -1.81895833053305  1.13264806880688
 6 -4.77550249684969 -1.87833348204820  0.28565545284528
 6  1.79885447684768 -0.41656198579858  3.21067322182218
 6 -4.84193055445545 -1.94770347874787 -1.04765510601060
 6  2.19664762116212 -1.87311550375037  0.33287556625663
 6  2.19859588148815 -0.95334724692469 -0.67248114961496
 6 -3.50601527142714 -1.47729969526953 -1.64579186258626
 6  3.02766382958296 -0.64500524882488 -1.78180207910791
 6 -1.29460803300330 -0.50361421842184  3.86451195949595
 6 -5.89637486158616 -2.00915739603960  1.29777078267827
 6  2.60293995089509  0.42850021822182 -2.57090170017002
 6  1.93319275167517  1.05522121412141  2.80828747034703
 6  1.34118748524852  0.82526917551755 -1.85567167316732
 6  4.29046439553955 -1.46557598669867 -2.03950358045805
 6 -5.98678301440144 -2.27521961236124 -1.99415286348635
 6  5.46316186718672 -0.93584532973297 -1.19961337823782
 6  3.15395549094909  1.05453385598560 -3.67289379857986
 6  0.52916534063406  1.92750789768977 -2.08496024112411
 6  3.04108274857486  1.78096768226823  3.59670501570157
 6 -0.55802963456346  2.25651028322832 -1.20274556245625
 6 -6.99712363886389 -2.99545330943094 -1.62454101280128
 6  6.67953752335234 -1.85173342844284 -1.38508919891989
 6 -1.41708036283628  3.47921015421542 -1.26042411711171
 6 -2.35218930833083  3.40423090209021 -0.20896880308031
 6 -2.00821309370937  2.08051898539854  0.41262019401940
 6 -1.25344532293229  4.48550481068107 -2.30616238423842
 6 -3.42508314481448  4.22702318521852  0.23617785748575
 6 -1.97608149934993  5.66125154335434 -2.35693942674267
 1 -3.47507600080008 -0.36217170707071  1.15600980558056
 1 -2.81883350975097 -3.32439756475648  1.06647699679968
 1 -3.16914673447345 -2.40806425082508  2.71696108480848
 1 -0.62241754655466 -2.83364212931293  0.23227023702370
 1 -2.04288267796780 -0.42590889438944 -0.85052915531553
 1  1.64804276567657 -0.39570102390239  4.20591269036904
 1  2.67506483938394 -1.05224711601160  3.04347927732773
 1  2.74675348924892 -2.75100668356836  0.61467452065206
 1 -2.10784341364136 -0.89454872887289  4.31943900570057
 1 -0.53738350635063  0.03726952335234  4.46455281178118
 1 -1.93390270407041  0.32458490519052  3.30859962526253
 1 -5.85250603780378 -1.13141127232723  2.16136042904290
 1 -5.52688144884489 -2.97836194079408  1.68544139043904
 1 -6.85603298009801 -2.45193083648365  0.93390975267527
 1  2.01746788618862  1.09947988988899  1.80266787808781
 1  0.94226417791779  1.56961920622062  3.08258623232323
 1  0.47173543114311  0.16056042584258  0.07241520922092
 1  4.51143686288629 -1.52392545154516 -3.06222182408241
 1  4.04503533333333 -2.58722050125012 -1.65119222722272
 1 -5.99036117451745 -1.69477040164016 -2.86503996779678
 1  5.33989191049105 -1.14038451835184 -0.21493827012701
 1  5.91046248754876  0.22369537343734 -1.40622510501050
 1  3.95060497199720  0.31955844794479 -4.02905113461346
 1  3.56575232683268  2.14929600830083 -3.46823915931593
 1  2.24967075637564  1.19683418131813 -4.33956710871087
 1  0.64112802280228  2.40900239673967 -2.97956884888489
 1 -6.90832991909191 -3.66977916181618 -0.76539556075608
 1 -7.63202146704671 -3.32060339083908 -2.49282233573357
 1  3.80999472697270  3.56804616561656  3.79765301950195
 1 -0.58851273007301  4.13814509400940 -3.31065896129613
 1 -3.96525511511151  4.41569815161516 -0.54093524502450
 1 -4.15915466516652  3.56273106670667  0.93623443484348
 1 -3.16470478667867  5.14848513961396  0.81365713561356
 1  8.58025371887189 -1.94541769596960 -0.97508814381438
 1 -1.70904382898290  6.33776423352335 -3.15153000520052
 1 -2.71718407130713  5.82992436823682 -1.38732463996400

