%nproc=4
%Mem=4GB
# td=(NStates=1) B3LYP/SVP 

TD

0 1
 8 -5.23493972397240  0.07252269186919 -3.29185897559756
 8  3.12690269576958  2.84202145684568  3.11367744614461
 8  3.43695204380438  0.67768316731673  2.86191807690769
 8  1.56893453295330 -7.21355762586259  1.50259876617662
 8  0.40301518951895 -6.95551197479748 -0.39905788868887
 8  1.47580462856286  3.91483460626063 -0.05774626722672
 7 -2.25763537463746 -0.92826125632563  0.58275529212921
 7 -4.29314419581958  0.44249191569157 -1.21325968076808
 7  1.78288868046805 -0.71725329832983 -0.43036151375138
 7  2.38326386828683  1.90506625212521 -0.60820756745675
 6 -4.67729412061206  1.15752724972497  0.03817961776178
 6 -4.32200959375938  0.30144030933093  1.27027438513851
 6 -2.86874196979698  0.01746200290029  1.47855986898690
 6 -1.94656375307531  0.57905286248625  2.28805197479748
 6 -0.70024663496350 -0.06369180468047  1.93424410201020
 6 -0.87074126192619 -1.10076313521352  0.91504332373237
 6 -6.16265862196220  1.37078486778678 -0.19249446484648
 6  0.66037464406441  0.04240491699170  2.54948396849685
 6 -6.50050056455646  0.90349959835984 -1.43405913461346
 6 -0.05560181628163 -2.10240897779778  0.32385446694669
 6  1.11595849204920 -1.88938848544854 -0.31366294849485
 6 -5.25385598589859  0.49282749744975 -2.14816212771277
 6  1.88847293249325 -2.90159069746975 -0.83045005430543
 6 -2.07158285918592  1.67070282718272  3.35425981618162
 6 -6.97575506870687  2.17738586778678  0.83874786068607
 6  3.06231256495650 -2.34171412261226 -1.23689493459346
 6  1.17108313561356  1.56706519991999  2.56937057295730
 6  3.05651372667267 -0.98013663926393 -1.06974096229623
 6  1.61912568276828 -4.35803176757676 -1.02392410931093
 6 -7.80579648564856  0.82706434403440 -2.13296168396840
 6  1.89593715931593 -5.18493942854285  0.33442943844384
 6  4.30143575257526 -2.91675014381438 -1.99750898219822
 6  3.87316818741874  0.09471887538754 -1.36200088248825
 6  2.58896951815181  1.53089067726773  2.89707560746075
 6  3.56087046484648  1.55067047854785 -1.08896546384638
 6 -9.01486647004701  1.05997815811581 -1.53404822012201
 6  1.27766283098310 -6.50763741394139  0.41249990899090
 6  4.41791062566257  2.72746950185018 -1.46662374547455
 6  3.64092336073607  3.81938246194619 -1.10658195249525
 6  2.39432100290029  3.27789564066407 -0.52759152185218
 6  5.71968557385739  2.67329216981698 -2.03759571467147
 6  3.82990861066107  5.27746262206221 -1.34508652205221
 6  6.74378443604360  3.58201388618862 -2.14519899679968
 1 -4.18848333443344  2.20771185128513  0.13412645294530
 1 -4.86824148104810 -0.80580205630563  1.43971871607161
 1 -4.72099893979398  0.86564056375638  2.16485339503950
 1 -2.78144718461846 -1.43520091559156  0.11755483368337
 1 -3.39270026732673  0.39554147124712 -1.52552010291029
 1  0.66298073277328 -0.22727241524152  3.74395394349435
 1  1.49231324072407 -0.47348201560156  1.88955408820882
 1 -0.70009867076708 -3.00801826682668  0.05904090639064
 1 -3.20353049834984  2.11156242034203  3.55483547324732
 1 -1.88741995709571  1.38269763366337  4.50028841674167
 1 -1.32752913401340  2.51212503230323  2.96288371017102
 1 -6.37646109700970  3.02659146264626  1.38979121212121
 1 -7.35174494149415  1.36363617281728  1.61868887958796
 1 -7.89652558975898  2.64168025112511  0.27985646584658
 1  1.18102081048105  1.97281931853185  1.50765883318332
 1  0.82992610511051  2.23519034103410  3.39932575677568
 1  1.54992931933193  0.26281692669267 -0.36485185048505
 1  2.32029982218222 -4.59155298569857 -1.87911252095210
 1  0.59115091259126 -4.41213106060606 -1.31718020142014
 1 -7.78199926172617  0.58264849544955 -3.33731967016702
 1  1.58517070597060 -4.50607178687869  1.31740931753175
 1  2.99232550265027 -5.15943314781478  0.44738255315532
 1  4.04901996429643 -3.83596104830483 -2.25953941504150
 1  5.16780787918792 -2.73647249744974 -1.23971758935894
 1  4.44144557765777 -2.34025625822582 -2.93838291189119
 1  4.84433405290529  0.13309121462146 -1.93452962866287
 1 -9.15522912341234  1.25901335683568 -0.41226391619162
 1 -10.04039217281728  1.09307072277228 -1.96169226922692
 1  4.14908959545955  2.74895827952795  2.95417018271827
 1  6.15235870407041  1.54676682588259 -2.16509532453245
 1  4.90834153395339  5.53713647784779 -0.88200682058206
 1  4.06218824132413  5.49290605630563 -2.41149369426943
 1  3.02572024162416  5.76112571897190 -0.83236497809781
 1  0.99465677377738 -8.08767992509251  1.54331038593859
 1  7.79386183058306  3.41748728862886 -2.46049332263226
 1  6.61577346484648  4.72308782098210 -2.18745109760976

