%nproc=4
%Mem=3GB
# td=(NStates=1) B3LYP/SVP 

TD

0 1
 8 -3.25859276947695 -1.51691674717472 -2.90321097539754
 8  2.97725818061806  3.05997765626563  3.16742101300130
 8  3.87382169036904  1.33767089538954  4.37211165476548
 8  7.73967257015702 -1.46714282848285 -0.68969973177318
 8  6.69600375677568 -3.00087088198820 -2.05541198929893
 8 -2.63829473597360  1.70877636673667  1.43136319681968
 7 -0.23821956815682 -2.40371668596860  0.95398023882388
 7 -2.67928996699670 -1.29221435643564 -0.60766291089109
 7  1.25206675607561  0.01752266196620 -0.65725066226623
 7 -1.07294644014401  1.51264667256726 -0.21185208310831
 6 -3.43425857555756 -1.28042560496050  0.64055102900290
 6 -2.67443606970697 -2.23244739093909  1.62910821762176
 6 -1.23350899259926 -2.07314512851285  1.88586657525753
 6 -0.53644344664466 -1.16849804150415  2.79321734223422
 6  0.82155326792679 -1.14853985498550  2.47858905350535
 6  0.91378406460646 -1.90932736743674  1.27068187218722
 6 -4.83609855645565 -1.71059670837084  0.19255614291429
 6  1.88909350075008 -0.42841317091709  3.21891404590459
 6 -4.83296965836584 -1.99291800020002 -1.12859319981998
 6  1.96990494689469 -1.84553274547455  0.30574285298530
 6  2.09495551745175 -0.91006291849185 -0.64557845934593
 6 -3.45253992389239 -1.58243020832083 -1.72634991839184
 6  2.99376043924392 -0.69826057435744 -1.85815971487149
 6 -1.20135870807081 -0.37455131213121  3.86569207750775
 6 -5.88338356245625 -2.02759924022402  1.29453045864586
 6  2.50624028092809  0.42068943714371 -2.50131474147415
 6  2.02000143254325  1.00634632663266  2.84498113971397
 6  1.36142950945095  0.97130377897790 -1.74538064406441
 6  4.20083543264326 -1.51426085518552 -2.20940057015702
 6 -5.85024936103610 -2.43949604000400 -2.06120956915692
 6  5.35975152615261 -1.06547829302930 -1.13145656255626
 6  3.05082517791779  1.18349675227523 -3.69126563576358
 6  0.57693011711171  1.95800094699470 -1.98895064016402
 6  3.05687432773277  1.75106469196920  3.53960930613061
 6 -0.64477830943094  2.32776740894089 -1.21793708160816
 6 -6.75649957645764 -3.41307507160716 -1.78337689638964
 6  6.62934250385038 -1.88650690579058 -1.35037572757276
 6 -1.45753440824082  3.44227646084608 -1.25551362606261
 6 -2.36729081848185  3.39348982798280 -0.21069897609761
 6 -2.01381365376538  2.14356529002900  0.48011694369437
 6 -1.33904388278828  4.45655191539154 -2.21256302430243
 6 -3.34677531403140  4.29195967886789  0.34820906060606
 6 -1.86160005120512  5.68924434263426 -2.36533026582658
 1 -3.47700619381938 -0.31778726862686  0.92219642424242
 1 -2.82255388178818 -3.29882500750075  1.37389773887389
 1 -3.05617543734373 -2.11705514991499  2.63660304900490
 1 -0.60182548734873 -2.71824058915892 -0.10522351235124
 1 -1.90235862556256 -0.37660396389639 -0.76365046744674
 1  1.51756971837184 -0.62827428122812  4.26459855895590
 1  2.79143647654765 -0.98278016931693  3.17186211561156
 1  2.72431124502450 -2.63805538843884  0.41936498969897
 1 -2.04737736703670 -0.92622189618962  4.37289435123512
 1 -0.71858162616262 -0.10906511011101  4.73793014951495
 1 -1.89547886168617  0.50977342404240  3.47446621192119
 1 -5.71561234843484 -1.23008113931393  2.13585787878788
 1 -5.78397715841584 -3.02051615621562  1.87940078637864
 1 -6.95241261806181 -2.07710335373537  0.83278964066407
 1  2.30722686208621  1.11320126202620  1.70675828712871
 1  1.13214316581658  1.76134837913791  2.89507748144815
 1  0.41208946654665  0.23891826162616 -0.13022505480548
 1  4.63235895509551 -1.06331939093909 -3.28347394929493
 1  3.98458928872887 -2.64792657185719 -2.13410051805181
 1 -5.85755789418942 -2.07814873947395 -3.06094955875588
 1  5.01554947624763 -1.32237271717172 -0.02551932823282
 1  5.77403884518452 -0.08552554865487 -1.36822130463046
 1  3.95464537603760  0.58679517161716 -3.92061029052905
 1  3.13253900550055  2.31914299299930 -3.43533586898690
 1  2.48189397869787  1.04541903980398 -4.53628678067807
 1  0.87207111711171  2.74957645414541 -2.69829072107211
 1 -6.92605169126913 -4.01189337323732 -0.82178119931993
 1 -7.68972723762376 -3.72059338983898 -2.43259631313131
 1  3.58857258475848  3.49613897489749  3.67692094629463
 1 -0.50777465626563  4.15997727722772 -2.84917281268127
 1 -4.19869845944594  4.57293387518752 -0.19495064656466
 1 -3.72524127382738  3.97140193379338  1.39388019941994
 1 -3.07993630983098  5.25157544864486  0.67949371927193
 1  8.34882057555756 -2.16898005220522 -0.75121575657566
 1 -1.59269219381938  6.30414087118712 -3.10550540274027
 1 -2.68483083598360  5.91152252805280 -1.78576448394839

