%nproc=4
%Mem=4GB
# td=(NStates=1) B3LYP/SVP 

TD

0 1
 8 -5.41486771677168 -0.02885744614461 -3.27117690739074
 8  3.04787479297930  2.84817207190719  3.04535061346135
 8  3.44593294189419  0.68664406340634  2.69945183028303
 8  1.52306994649465 -7.15371164126413  1.55155366166617
 8  0.36365125312531 -6.82459888348835 -0.35644362726273
 8  1.70402745084508  4.00077320012001  0.21223073047305
 7 -2.31708131923192 -0.94869329952995  0.62224924152415
 7 -4.35963084448445  0.48125579207921 -1.33594194899490
 7  1.75513590519052 -0.61033260626063 -0.45201367896790
 7  2.53027856975698  1.92247799329933 -0.51371811851185
 6 -4.66964335553555  1.15604710171017 -0.07447164736474
 6 -4.35717311011101  0.34328449374937  1.21669902760276
 6 -2.88997409300930 -0.00895063836384  1.32556456945695
 6 -1.85892498919892  0.52806776397640  2.19436260586059
 6 -0.68112472277228 -0.05167060256026  1.95013569116912
 6 -0.91221540934093 -0.95790884978498  0.82695451485149
 6 -6.22497485358536  1.37466525582558 -0.16858207360736
 6  0.59156776337634  0.15918659515952  2.47466648674867
 6 -6.60064057855786  0.89923917231723 -1.33713944264426
 6 -0.14367062316232 -2.05133387028703  0.18346042754275
 6  1.09561645784578 -1.85929547614761 -0.31837341954195
 6 -5.40093069336934  0.38998721342134 -2.16250356185619
 6  1.93801788698870 -2.87769830823082 -1.00463747304730
 6 -2.15757145804580  1.70922667956796  3.13631802200220
 6 -6.98030552375238  1.86058418761876  0.98812279817982
 6  3.01889822352235 -2.32686263746375 -1.40286153125313
 6  1.19777580488049  1.49246774017402  2.45948958485849
 6  3.01491956725673 -0.86799542514251 -1.12241622982298
 6  1.63302707290729 -4.35110107450745 -0.90014173107311
 6 -7.89805571157116  0.75975761336134 -2.03238162596260
 6  1.78840640624062 -5.11867280188019  0.37667366286629
 6  4.38319392839284 -2.96795526432643 -1.86894612591259
 6  3.98425929652965  0.11837124062406 -1.38343302570257
 6  2.72869349054905  1.64683227142714  2.78011391129113
 6  3.62452683048305  1.56577198869887 -1.10303687098710
 6 -9.09549453285329  0.84240640094009 -1.42629744504450
 6  1.16039110381038 -6.44447109730973  0.47361602060206
 6  4.47126596119612  2.68033478837884 -1.30083716681668
 6  3.80460972937294  3.80989151285129 -0.98569986428643
 6  2.59811138193819  3.34734258535854 -0.30439920262026
 6  5.79102270757076  2.53003784438444 -1.99619157425743
 6  4.13625924572457  5.21507638343834 -1.06363837723772
 6  6.70805086268627  3.47943362816282 -2.36733121002100
 1 -4.22008649474947  2.22250333043304  0.13249628992899
 1 -4.94789944684468 -0.59691116721672  1.09574431863186
 1 -4.92790963086309  0.83473747344735  2.14399130883088
 1 -2.75697473737374 -1.25959335483548 -0.41047796959696
 1 -3.49218021532153  0.43255517261726 -1.70679823072307
 1  0.73639807450745 -0.06691637963796  3.65446499459946
 1  1.30691470087009 -0.52814748214821  1.99611474427443
 1 -0.56287494839484 -3.03132059705971 -0.05876087378738
 1 -3.43697384268427  1.56343760786079  3.24196418611861
 1 -1.71203241834183  1.57576694059406  4.07146553445345
 1 -2.08246462756276  2.80874469426943  2.71555897769777
 1 -6.36398984988499  2.78454725822582  1.20297253025303
 1 -7.05890565756576  1.12466227542754  1.85099210991099
 1 -8.06573251045104  2.23859994309431  0.72833131333133
 1  1.08685139353935  1.77107914451445  1.42206027332733
 1  0.72035514801480  2.16432325432543  3.06143196739674
 1  1.62209653605361  0.33716436143614 -0.30956632193219
 1  2.29351714391439 -4.89922375277528 -1.71942655235524
 1  0.67411920942094 -4.43909375687569 -1.24812329572957
 1 -7.93462452425243  0.68014824542454 -3.16782272047205
 1  1.24134632353235 -4.41999317901790  1.24927250385039
 1  2.87244351445145 -5.41193839833983  0.91755957085709
 1  4.20929599189919 -4.06389384158416 -1.83669713081308
 1  5.31209230763076 -2.49684853505351 -1.52168578617862
 1  4.65220665376538 -2.40105233783378 -2.89230830443044
 1  4.85814543404340 -0.03163525802580 -1.90681685738574
 1 -9.21753535403540  0.95094254975498 -0.35519820962096
 1 -9.98305643924392  0.53957537323732 -1.81979807980798
 1  4.26685137163716  2.98444182788279  2.72833759945995
 1  6.17468093629363  1.50726287548755 -2.14675349034904
 1  5.09799049884988  5.49445220942094 -0.47364598449845
 1  4.25968799129913  5.69575634133413 -2.16779932483248
 1  3.38476614621462  6.00568017441744 -0.61144288588859
 1  1.18187549564956 -8.12871402850285  1.31351740664066
 1  7.70830327472747  3.19099463936394 -2.80748802210221
 1  6.55468735623562  4.51846735893589 -2.15262761526153

