%nproc=4
%Mem=4GB
# td=(NStates=1) B3LYP/SVP 

TD

0 1
 8 -5.08591482148215  0.24809024862486 -3.29146893659366
 8  2.91324132963296  2.85119237393739  3.00792687108711
 8  3.29512786138614  0.65045044404440  2.94896678177818
 8  1.82481012051205 -7.19805607570757  1.50484899119912
 8  0.42758764676468 -7.01638806240624 -0.28492647554755
 8  1.76545359345935  3.95267839063906  0.08916842424242
 7 -2.30398000910091 -1.00760919111911  0.60801781838184
 7 -4.30411529292929  0.62469013551355 -1.15438379317932
 7  1.83069346094609 -0.65927750075008 -0.42961143874387
 7  2.63300884278428  1.79808555405541 -0.45434218091809
 6 -4.75791218241824  1.19729122612261  0.09338513831383
 6 -4.35601299409941  0.37060722602260  1.30818817651765
 6 -2.87329242484248 -0.06626636993699  1.39092110511051
 6 -2.02304140084008  0.53778873607361  2.21396456605661
 6 -0.65091170147015 -0.05500093559356  1.93231390899090
 6 -0.91085527332733 -0.95486854575458  0.82573439283928
 6 -6.32841519761976  1.34205199449945 -0.09761497689769
 6  0.58431703830383  0.11911258775878  2.54924394449445
 6 -6.59052956745675  0.89899914831483 -1.42463819251925
 6 -0.14425068116812 -1.99636837373737  0.25187726922692
 6  1.15169206540654 -1.82693223982398 -0.31797337953795
 6 -5.31679227952795  0.66516473117312 -2.13650096159616
 6  1.89460354555456 -2.97420795919592 -0.96443345264526
 6 -2.32089779067907  1.58895465236524  3.33329771997200
 6 -7.21693918711871  1.81445957515752  0.92488647454745
 6  3.06925325902590 -2.33686363756376 -1.34670591569157
 6  1.02857888518852  1.56337483088309  2.60136377227723
 6  3.06656473177318 -0.92593121872187 -1.11789577777778
 6  1.53396716691669 -4.32926889128913 -0.99520123702370
 6 -7.81016692269227  0.97013865146515 -2.09930831863186
 6  1.72077964356436 -5.08325926052605  0.40629662516252
 6  4.35810141914191 -2.85968443724372 -1.95852508380838
 6  3.89621049164916  0.07577698119812 -1.34283896629663
 6  2.54075469666967  1.58795638383838  2.96455235513551
 6  3.71284566236624  1.48551396289629 -1.11184775207521
 6 -9.11224620802080  0.84165632593259 -1.54400921622162
 6  1.30597566226623 -6.52849950015001  0.42221088008801
 6  4.56092492709271  2.60172692759276 -1.53399048214821
 6  3.87289655805581  3.83080360406041 -1.13215450975098
 6  2.72136370717072  3.33334118521852 -0.47551631433143
 6  5.79210281558156  2.54586942754275 -2.10154210931093
 6  4.12101772157216  5.31733660946095 -1.27013902730273
 6  6.52275233283328  3.58837452225223 -2.63611808870887
 1 -4.38574306040604  2.25522660276028  0.28482152245225
 1 -4.95654031093109 -0.62827430353035  1.03897864206421
 1 -4.72749958985899  0.77084108380838  2.23924083378338
 1 -2.74209324922492 -1.77561495699570 -0.03994091589159
 1 -3.28066906420642  0.68279019611961 -1.47139469036904
 1  0.52182661736174 -0.25715540354035  3.50387993609361
 1  1.50022403180318 -0.39780444784478  2.02265739853985
 1 -0.54204286518652 -3.01807927292729 -0.00393539123912
 1 -3.38044819011901  1.90841210531053  3.45071506120612
 1 -2.06467768286829  0.87903726762676  4.37356574447445
 1 -1.82357873897390  2.40706452625262  3.05787320912091
 1 -6.46770022092209  2.22953175667567  1.77140937393739
 1 -7.92439220622062  1.03547335653565  1.34757176787679
 1 -7.63299923712371  2.97384346744675  0.18868734893489
 1  0.94147685608561  2.34681671827183  1.87682574987499
 1  0.53446655915592  1.95925274727473  3.52442826702670
 1  1.67376170257026  0.49404004900490  0.00500513521352
 1  2.22000979317932 -4.90290412081208 -1.58255286498650
 1  0.44273607110711 -4.39399924742474 -1.36170465386539
 1 -7.94188525032503  0.52203243384338 -3.17532347054705
 1  1.30801299019902 -4.63996517621762  1.11796937353735
 1  2.70011628172817 -5.23071027552755  0.62757057195720
 1  4.18537359965997 -4.00086753895390 -2.07526098719872
 1  5.19414051245125 -2.97566641684168 -1.16272989058906
 1  4.90302173527353 -2.24408664126413 -2.81691076467647
 1  4.81321094059406 -0.07872996749675 -1.85774194989499
 1 -9.60888448894890  0.87907536303630 -0.49360205000500
 1 -9.98582671627163  0.73474489018902 -2.13466956695670
 1  3.94836952345235  2.95317870157016  3.14514928062806
 1  6.24693816201620  1.51850399959996 -2.13772258725873
 1  5.41637233703370  5.35818858305831 -1.22802142204220
 1  3.79775179767977  5.55425219091909 -2.35469801470147
 1  3.61151882148215  6.00433003940394 -0.56333807540754
 1  1.55181248934894 -7.98773993109311  1.32326838173817
 1  7.61494393879388  3.31902744264426 -3.21799907320732
 1  6.21675356285629  4.62105761796180 -2.77019937243724

