%nproc=4
%Mem=4GB
# td=(NStates=1) B3LYP/SVP 

TD

0 1
 8 -5.37502373237324  0.14085952555256 -3.24500429012901
 8  2.99254926042604  2.99780703540354  3.04097017541754
 8  3.40429877847785  0.70767616661666  3.09311119621962
 8  1.58654629412941 -7.14135040514051  1.49332783908391
 8  0.56026091409141 -7.12599902350235 -0.53728171107111
 8  1.58787583568357  3.97572069486949 -0.10517100970097
 7 -2.32148175927593 -0.99539796999700  0.56765378197820
 7 -4.34401928332833  0.64025169166917 -1.29712806760676
 7  1.85723611521152 -0.67506907990799 -0.48796727432743
 7  2.41640718261826  1.93713945944594 -0.68451519821982
 6 -4.73817020822082  1.20172166916692 -0.03604780498050
 6 -4.39247664046405  0.24053421872187  1.22030938863886
 6 -2.92754785038504 -0.04998474177418  1.33536554955496
 6 -1.95993509020902  0.64753971117112  2.11739490909091
 6 -0.73881049134914  0.03421798629863  1.73667434503450
 6 -0.91014520232023 -0.95383844274427  0.79420123952395
 6 -6.20079243534353  1.44683247254725 -0.11301651705171
 6  0.63798240484048  0.18932960946095  2.48241726182618
 6 -6.67640815531553  0.91023027142714 -1.32883861256126
 6 -0.18539479557956 -1.96548528542854  0.22834491599160
 6  1.09340623682368 -1.90097964456446 -0.34341592379238
 6 -5.48433903420342  0.46586480118012 -2.12407971947195
 6  1.99824390959096 -2.95490602900290 -0.81969897919792
 6 -2.16181188208821  1.65651140804080  3.12054644484448
 6 -7.03524101730173  2.02342047124713  0.95265925182518
 6  3.14536086978698 -2.27611756295630 -1.34075532063206
 6  1.21735776307631  1.59574806820682  2.39805344124412
 6  3.05128320362036 -0.88930755635564 -1.03175716391639
 6  1.54458822902290 -4.39113507790779 -0.84916663356336
 6 -7.90808671467147  0.74303594119412 -1.88215660346035
 6  1.71185875147515 -5.15551648624862  0.41362735823582
 6  4.36700230923092 -2.97253572237224 -1.91665089638964
 6  3.91193206380638  0.11084048754876 -1.44393907630763
 6  2.61990261146115  1.62385997419742  2.88272417231723
 6  3.61244562236224  1.56807221872187 -1.22487905520552
 6 -9.10094507790779  0.68704086438644 -1.18510332563256
 6  1.22234729942994 -6.63804045424542  0.33480213921392
 6  4.56958579317932  2.62354910981098 -1.42378946204620
 6  3.87393666206621  3.84754527822782 -1.08406970127013
 6  2.50896246704670  3.36796464756476 -0.54966372907291
 6  5.93770737603760  2.49370421102110 -1.87701965706571
 6  4.30182580238024  5.23789866566657 -1.08853086648665
 6  6.81341139873987  3.45720140494049 -2.06939141604160
 1 -4.18941342744274  2.06694777487749  0.16223926422642
 1 -4.76788144504450 -0.91410288638864  1.08773351755176
 1 -4.99898673857386  0.71097509720972  1.90968787848785
 1 -2.71730076997700 -1.18561595709571 -0.34130105190519
 1 -3.42306330363036  0.87034895199520 -1.61361891279128
 1  0.38758319301930 -0.10053974197420  3.57319686778678
 1  1.31221523092309 -0.65420008740874  2.04688982178218
 1 -0.61195985688569 -2.98527599259926 -0.02440743844384
 1 -3.16869701500150  1.92484374847485  3.28531852155216
 1 -1.76162737783778  1.34519388328833  4.14121250915092
 1 -1.67988436953695  2.62952677247725  2.98852627442744
 1 -6.60383383428343  3.00465926942694  1.26146837983798
 1 -7.17793756075608  1.30777058625863  1.91734874557456
 1 -8.15315125232523  2.17442352545255  0.41730021022102
 1  1.00991369976998  1.87216925352535  1.39168723602360
 1  0.51642475497550  2.29316613861386  2.91920774497450
 1  1.42437676407641  0.30081072607261 -0.45633099839984
 1  2.16426421862186 -4.95411924232423 -1.66962157185719
 1  0.40919271677168 -4.52326217371737 -1.08193667706771
 1 -8.11374243604361  0.55018524912491 -2.98836477467747
 1  1.27647983688369 -4.53819499919992  1.39559713631363
 1  2.83035930603060 -5.04650185468547  0.71352916781678
 1  4.14449951225123 -4.08769622182218 -2.17533099419942
 1  5.31435253365337 -2.82831168136814 -1.28888250585059
 1  4.53224465756576 -2.53671590419042 -2.88879795339534
 1  4.88990861036104 -0.06308840334033 -1.93370954665467
 1 -9.23811741224123  0.66470392589259 -0.20601329112911
 1 -9.94297243084308  0.22990440614061 -1.90841694169417
 1  3.87882256875688  2.92396578027803  3.10562532823282
 1  6.38844231243124  1.51896404560456 -1.93560237523752
 1  5.08643934373437  5.70149291349135 -0.40995961586159
 1  4.55894791729173  5.67459422512251 -1.97977052195219
 1  3.38138580818082  5.95770537693769 -0.77755949754975
 1  1.20752806090609 -7.98556971407141  1.41661771667167
 1  7.87536998139814  3.12013755365537 -2.52579985328533
 1  6.62290417791779  4.52545805800580 -1.75545789828983

