%nproc=4
%Mem=3GB
# td=(NStates=1) B3LYP/SVP 

TD

0 1
 8 -3.24675158535854 -1.40100515601560 -2.84765541984198
 8  3.07630808560856  3.10130178867887  3.11354562546255
 8  4.04809911811181  1.17122425072507  4.02552699629963
 8  7.73246184908491 -1.79482559675968 -0.63223398519852
 8  6.62422657905791 -3.04005480038004 -1.93277972607261
 8 -2.69037994449445  1.65949143824382  1.36641670217022
 7 -0.26065181138114 -2.37933424772477  0.83032787358736
 7 -2.67919995799580 -1.23786892189219 -0.60107225182518
 7  1.05555710511051  0.06439734943494 -0.74435937313731
 7 -1.02373151865187  1.53014842274227 -0.21355225312531
 6 -3.32671782148215 -1.33402096449645  0.60420739463946
 6 -2.58704733083308 -2.38432257845785  1.58194350115012
 6 -1.23584922662266 -2.04671248524853  1.80822881148115
 6 -0.63629343164316 -1.20266145784578  2.84333235373537
 6  0.77009812241224 -1.10334533553355  2.44206540114011
 6  0.92230491669167 -1.85075150985099  1.28869367336734
 6 -4.78892383898390 -1.91156680538054  0.22813970127013
 6  1.94248884028403 -0.40887121672167  3.10312246674668
 6 -4.83554991639164 -2.08185689408941 -1.09593993449345
 6  2.09457741414141 -1.81259945214521  0.33998627732773
 6  2.09210523242324 -0.83098501070107 -0.59723362486249
 6 -3.53901857175718 -1.43698566386639 -1.70421770517052
 6  3.11638270147015 -0.50264101240124 -1.64550844974497
 6 -1.22700127232723 -0.54021787878788  4.00139564786479
 6 -5.76307153125313 -2.27711419171917  1.24644565016502
 6  2.52436209310931  0.53639100730073 -2.44717932793279
 6  1.81647107950795  1.02659835183518  2.70917755935594
 6  1.32520588708871  0.96006265486549 -1.80832693869387
 6  4.25925127422742 -1.28476790589059 -1.92641227132713
 6 -5.83021735783578 -2.51738382878288 -1.91068451665167
 6  5.45323087408741 -1.07798954415442 -0.98249166606661
 6  3.19180927632763  1.18482688528853 -3.54504101330133
 6  0.52308473257326  2.04042918981898 -1.94678642374237
 6  3.10636927722772  1.78496808230823  3.34460980618062
 6 -0.67350118171817  2.29956458865887 -1.28579386728673
 6 -6.92810673717372 -3.32005576967697 -1.66745530423042
 6  6.59594916451645 -2.04803305840584 -1.35277596759676
 6 -1.49827848264826  3.60591282448245 -1.28126620132013
 6 -2.35242933233323  3.46459693869387 -0.24191209740974
 6 -2.10545281768177  2.18932986648665  0.46550548254826
 6 -1.28785876427643  4.62301856205621 -2.12513428142814
 6 -3.42529316581658  4.38848933183318  0.17889212891289
 6 -2.04784867606761  5.69924534273427 -2.40766449924992
 1 -3.36906539973997 -0.26225171507151  1.04930913551355
 1 -2.62329395579558 -3.32788791379138  1.16107645674567
 1 -3.14119393919392 -2.50170361476148  2.40359974867487
 1 -0.47183248804880 -2.91876064116412 -0.02391538153815
 1 -2.19862825252525 -0.55524182768277 -0.55725982838284
 1  1.81729969136914 -0.73385483928393  4.10801290039004
 1  2.92097943084308 -0.91104299559956  2.83296822622262
 1  2.78149696359636 -2.64230581348135  0.32459551275128
 1 -2.05004763406341 -1.21175044904490  4.41519858165817
 1 -0.48841860986099 -0.35815001860186  4.92412876937694
 1 -1.69992930673067  0.41241368806881  3.65710447574757
 1 -5.77333812101210 -1.67672580378038  2.10138443144314
 1 -5.62998175887589 -3.21118522312231  1.57124997129713
 1 -6.76411378817882 -2.25342098549855  0.93866022772277
 1  1.96298243764376  1.12891283318332  1.55411302260226
 1  1.01955190669067  1.53540578487849  3.13086105980598
 1  0.22647090469047  0.17644201400140 -0.20559259155916
 1  4.56492221142114 -1.14191725072507 -2.89865546744674
 1  4.10298112791279 -2.24326610581058 -1.88698580658066
 1 -5.54595673407341 -2.34067499209921 -2.91909537333733
 1  5.23138105940594 -1.02924340424042  0.21733495719572
 1  5.80434187548755  0.00105310921092 -0.97613209570957
 1  3.94011392289229  0.55594208630863 -3.92541077057706
 1  3.41340709230923  2.19774085278528 -3.15151748714871
 1  2.48225401470147  1.21534603250325 -4.48308146014601
 1  0.50015392539254  2.66289778627863 -3.03029392139214
 1 -7.34370345644564 -3.63502568646865 -0.69389841104110
 1 -7.68665693059306 -3.47463879437944 -2.48856190969097
 1  3.77151087858786  3.42858221922192  3.56457971217122
 1 -0.26571044984498  4.58998027752775 -2.73862175757576
 1 -4.18206679627963  4.47403398519852 -0.78334948644864
 1 -3.93755250495049  3.91012580618062  0.99376018741874
 1 -3.15879419561956  5.46863715481548  0.40766653655365
 1  8.24985067856786 -2.54611776597660 -0.98918955395540
 1 -1.58300122472247  6.45137559465947 -2.98817366956696
 1 -2.79905225812581  5.86703807960796 -1.68687459495950

