%nproc=4
%Mem=3GB
# td=(NStates=1) B3LYP/SVP 

TD

0 1
 8 -3.35020193039304 -1.23207826332633 -2.76385704000400
 8  3.02397285208521  2.95760741924192  3.15681995289529
 8  3.60138444664466  1.34876200450045  4.62917736133613
 8  7.88692729562956 -1.24096021022102 -0.98403916571657
 8  6.73702785918592 -3.17249804470447 -1.71311775987599
 8 -2.61349225572557  1.70123561266127  1.43423348384838
 7 -0.24914066026603 -2.34805111941194  0.87184202500250
 7 -2.75758779677968 -1.06355149014902 -0.58141028562856
 7  1.15082663206321  0.10671158085809 -0.77526246344634
 7 -0.98473761926193  1.42417782568257 -0.25733663156316
 6 -3.44513966366637 -1.31417898029803  0.63485045894589
 6 -2.62425105120512 -2.29876402260226  1.55418072487249
 6 -1.15070071177118 -1.98337615161516  1.76345433403340
 6 -0.50580038233823 -1.31132232393239  2.79777779827983
 6  0.86437755035504 -1.28813381438144  2.49041023562356
 6  0.95058774497450 -1.87728416311631  1.19471427542754
 6 -4.75223016961696 -1.81801745044504  0.27162404970497
 6  1.90902549394939 -0.57874820442044  3.15828798329833
 6 -4.83161952335234 -2.08265697409741 -1.02571291179118
 6  2.11415937233723 -1.91399959215922  0.28171044974497
 6  2.12099812171217 -0.78242015421542 -0.63270717221722
 6 -3.57474214411441 -1.43016498179818 -1.59392667606761
 6  3.02195325852585 -0.56648739703970 -1.80106400530053
 6 -1.29330790299030 -0.56928078507851  3.83218872717272
 6 -5.75792101620162 -2.14566104640464  1.33665467106711
 6  2.60877053395340  0.44256162436244 -2.44539914991499
 6  1.87989742214221  0.97027271927193  2.82400904250425
 6  1.38195156165617  0.96554320292029 -1.82664877087709
 6  4.22190753985399 -1.50694012311231 -1.94178380848085
 6 -5.88397273337334 -2.40047213761376 -1.88806225442544
 6  5.52755830683068 -1.01687343254325 -1.15940935783578
 6  3.13866396179618  1.01457986058606 -3.85347185638564
 6  0.52028445254525  1.92140728762876 -2.06245799089909
 6  2.94899353965397  1.76532611811181  3.63501884708471
 6 -0.67580141174117  2.26702133433343 -1.28662395029503
 6 -6.95735966246625 -3.16794055815582 -1.71575013371337
 6  6.72188175777578 -1.98382663776378 -1.31928261826183
 6 -1.46032468726873  3.45050728392839 -1.31793986868687
 6 -2.26535062446245  3.43692417141714 -0.16976488268827
 6 -2.01930420282028  2.11294222772277  0.44852378437844
 6 -1.47422740114011  4.41144740494049 -2.47741950995100
 6 -3.33157379387939  4.27920840374037  0.29645388508851
 6 -1.97532142334233  5.73450886908691 -2.47284101690169
 1 -3.39620811401140 -0.30890638053805  1.28299250385039
 1 -2.85797742414241 -3.22144726972697  1.08935928502850
 1 -3.03506332613261 -2.25164860926093  2.56127551625163
 1 -0.59017432223222 -2.94676344144414  0.05671268126813
 1 -2.03851224092409 -0.45963226672667 -0.68988309070907
 1  1.76092405380538 -0.79139059285929  4.34425652475247
 1  2.83621095399540 -1.08395028632863  2.85063999339934
 1  2.90590940484048 -2.67788937183718  0.33118617181718
 1 -2.15212784208421 -1.33879315331533  4.24283134493449
 1 -0.58310807880788 -0.34462866646665  4.83666002250225
 1 -1.69930924472447  0.27581002770277  3.19538830413041
 1 -5.69290007720772 -1.25975410661066  2.05794008700870
 1 -5.60156891759176 -3.17125122972297  1.60298314461446
 1 -6.84218159495950 -2.11239688308831  0.86171253295330
 1  2.18698483788379  0.88878882078208  1.65583319461946
 1  1.01227117861786  1.45671791609161  2.98269624332433
 1  0.44327258485849  0.43640801060106 -0.21149318161816
 1  4.59676539573957 -1.52440549954995 -2.98522412431243
 1  3.93830466026603 -2.44795657485749 -1.90052716071607
 1 -5.87172931133113 -1.96932785738574 -2.95380884468447
 1  5.12610053135314 -0.73331381128113 -0.15536231253125
 1  5.55365680698070  0.11743474737474 -1.54597908040804
 1  3.81699161066107  0.26237272937294 -4.34676290579058
 1  3.62023777537754  1.95216629532953 -3.73600593599360
 1  2.35232102140214  0.93801829972997 -4.41613476547655
 1  0.56916082608261  2.62043353985399 -3.00790168216822
 1 -7.25957504360436 -3.48839102300230 -0.75130415161516
 1 -7.73669193409341 -3.46177750825083 -2.38924197769777
 1  3.74505823332333  3.39902926392639  3.89386264046405
 1 -0.75274915371537  4.33790507000700 -3.11619951535154
 1 -4.08833742334233  4.63179976177618 -0.42109326082608
 1 -3.88578732843284  3.73513830743074  0.93469428082808
 1 -3.01004932113211  5.21608189928993  0.56817258715872
 1  8.61650734423442 -1.89417257145715 -1.23625426042604
 1 -1.84254717931793  6.49150960806081 -3.23809866206621
 1 -2.55948830173017  6.23904528032803 -1.80449635713571

