%nproc=4
%Mem=4GB
# td=(NStates=1) B3LYP/SVP 

TD

0 1
 8 -5.16779300930093  0.03053849344935 -3.31848163786379
 8  3.24976498199820  2.81658891359136  3.32348842724272
 8  3.35520386898690  0.61375677467747  2.96891877697770
 8  1.66990462996300 -7.03731000110011  1.59074758105811
 8  0.67327221522152 -7.14689111271127 -0.37355533843384
 8  1.75570261836184  4.04624774757476  0.07760726812681
 7 -2.28699831093109 -0.90230866106611  0.62049906650665
 7 -4.25384026542654  0.62308997549755 -1.25884423922392
 7  1.81617200880088 -0.70475204820482 -0.43187166476648
 7  2.37044258615862  1.93596934243424 -0.68794554125413
 6 -4.76231262246225  1.17706920392039  0.06943274307431
 6 -4.35992338513851  0.38889905520552  1.27161451915192
 6 -2.90417551315132  0.01543179987999  1.39588160116012
 6 -1.96382547924792  0.66405136233623  2.21659482908291
 6 -0.78462507280728  0.04573913841384  1.90881155875588
 6 -0.90548473627363 -0.91058411731173  0.89856167556756
 6 -6.24197655375538  1.27797558685869 -0.18662387778778
 6  0.60977958455846  0.24174485098510  2.60208922902290
 6 -6.49343985848585  0.86174542294229 -1.36983271197120
 6 -0.18321457755776 -1.96883562046205  0.25066714821482
 6  0.99491638783878 -1.85940548714871 -0.30543212541254
 6 -5.31959255955596  0.47405562026203 -2.17583489498950
 6  1.83842792799280 -2.91947248564856 -0.99879688898890
 6 -2.19143484438444  1.67944370127013  3.30286467666767
 6 -7.13726121932193  1.97202533173317  0.77063104900490
 6  3.03532986668667 -2.33527347854785 -1.46051729682968
 6  1.22795882318232  1.59982847624762  2.62259589548955
 6  2.91063913921392 -0.88821744734473 -1.15121911011101
 6  1.45290906110611 -4.35783174757476 -1.00999271617162
 6 -7.83787969396940  0.72920455805581 -2.09542793059306
 6  1.73054061966197 -5.07900883548355  0.35730172567257
 6  4.13959956895690 -2.90800926972697 -2.19058829012901
 6  3.75762663326333  0.19285868936894 -1.44799948234823
 6  2.66100672187219  1.56817440564056  3.05301120102010
 6  3.62216659445945  1.53418883038304 -1.21291785908591
 6 -9.08503348674867  0.62104426472647 -1.50726554185419
 6  1.31894695939594 -6.54888153835384  0.50224888388839
 6  4.42673150775077  2.61890864576458 -1.56756383948395
 6  3.85043431183118  3.77030755445545 -1.05737703200320
 6  2.56459803060306  3.39295714681468 -0.45608437113711
 6  5.73919752505251  2.50802564316432 -2.09899185428543
 6  4.38636425622562  5.16156103190319 -0.99914192759276
 6  6.65541559915992  3.49991567636764 -2.39784426132613
 1 -4.27473195929593  2.15754683478348 -0.03049000870087
 1 -4.80707536443644 -0.73212468856886  1.22306705090509
 1 -4.87964480438044  0.72100610031003  2.43048995869587
 1 -2.72848188808881 -1.06559395489549 -0.42734965676568
 1 -3.32241323862386  0.72689460656066 -1.60295784668467
 1  0.44605904060406 -0.01464115211521  3.57405695379538
 1  1.20083409280928 -0.45916058345835  2.18018315111511
 1 -0.73112177307731 -3.00202766776678  0.15396039833983
 1 -3.20963110841084  1.76735799989999  3.65278526822682
 1 -1.44624583968397  1.33899326322632  4.21640002790279
 1 -1.69888626972697  2.79344316411641  3.19444686648665
 1 -6.55906935783578  2.65487429092909  1.43390562356236
 1 -7.90467023402340  1.37376718591859  1.48075508620862
 1 -7.84736067326733  2.62861894499450  0.27259573977398
 1  1.29185189358936  2.02212424902490  1.63436150345034
 1  0.57738085058506  2.33548037003700  3.16012183638364
 1  1.51249557595759  0.23350399539954 -0.25327069236924
 1  2.23456124832483 -4.74487831823182 -1.69171378107811
 1  0.33589538703870 -4.48546839433943 -1.38692717611761
 1 -7.75504656645665  0.68880911151115 -3.25649158735874
 1  1.45975816471647 -4.57275845554555  1.28370594719472
 1  2.90535680578058 -5.06630383488349  0.58559637453745
 1  3.91105616791679 -3.88953640584058 -2.51765522662266
 1  4.94865596399640 -3.07715656585659 -1.51486510411041
 1  4.30767220032003 -2.44257649024902 -3.18370744434443
 1  4.54349396889689 -0.17912000650065 -2.25333150885089
 1 -9.26877047754775  0.55007246274627 -0.35451814161416
 1 -9.94703283688369  0.67882929862986 -2.17240334033403
 1  4.12259694619462  2.59002238593859  3.46048081378138
 1  5.96495996419642  1.61035318451845 -2.63487230223022
 1  5.21399209900990  5.42554531873187 -0.17804642454245
 1  4.63093511601160  5.66504327002700 -1.99375192009201
 1  3.57996566616662  5.72421202760276 -0.38550029162916
 1  1.21892920102010 -7.93037419451945  1.54255030993099
 1  7.42898534293429  3.22065760566057 -2.85516278957896
 1  6.48895078257826  4.62671818401840 -2.24040639313931

