%nproc=4
%Mem=3GB
# td=(NStates=1) B3LYP/SVP 

TD

0 1
 8 -3.26094300450045 -1.41218627412741 -2.87373802810281
 8  2.97420787558756  3.20282194069407  3.13460773167317
 8  3.66503081128113  1.36938406670667  4.32617706130613
 8  7.61631023392339 -1.58908502270227 -0.62965372717272
 8  6.61110526692669 -3.10428122302230 -1.81425787388739
 8 -2.50895180168017  1.71603709280928  1.62104216471647
 7 -0.22408815501550 -2.38382469676968  0.81076591739174
 7 -2.75979801780178 -1.13956909190919 -0.62625477007701
 7  1.16363791319132  0.12091300100010 -0.75577051425142
 7 -1.06515566106611  1.39357476537654 -0.24211510941094
 6 -3.32330748044804 -1.34222178457846  0.63028000190019
 6 -2.62342096819682 -2.32756690289029  1.55836114291429
 6 -1.21711735343534 -2.03803161716172  1.73650163876388
 6 -0.54997479977998 -1.22295348704870  2.75104312481248
 6  0.79226033863386 -1.06406140714071  2.42944413901390
 6  0.90163284948495 -1.77469390409041  1.18186299029903
 6 -4.71420636723672 -1.84388003670367  0.25746263356336
 6  1.90313490489049 -0.37367769736974  3.07259941444144
 6 -4.82612897429743 -2.02549125752575 -1.04536487698770
 6  2.04566252265227 -1.90905909810981  0.27694997369737
 6  2.08230425232523 -0.89841175337534 -0.72325622712271
 6 -3.60242491239124 -1.53084504980498 -1.69742702610261
 6  3.02069313251325 -0.68769951825182 -1.83056695559556
 6 -1.31241981418142 -0.55815967296730  3.85296080438044
 6 -5.77270249434943 -2.19931641194119  1.26245725132513
 6  2.53467312421242  0.51537890609061 -2.44753936393639
 6  1.99560899329933  1.09076476847685  2.75508214981498
 6  1.45721908840884  0.97614426302630 -1.80528663466347
 6  4.23991934103410 -1.51038046714671 -2.13217284738474
 6 -5.80789512561256 -2.56970906130613 -1.93692714091409
 6  5.42001755275528 -1.08996074127413 -1.22549596649665
 6  3.09754985038504  1.24275267786779 -3.64886139533953
 6  0.49063148724872  2.00249539643964 -2.02609435453545
 6  2.94975361566157  1.90930051555155  3.59812515771577
 6 -0.65150898249825  2.17355198739874 -1.32067735563556
 6 -6.88341226772677 -3.44098786288629 -1.61742030073007
 6  6.58815838543854 -2.05859411451145 -1.30618130813081
 6 -1.44410306510651  3.49550178337834 -1.18669674437444
 6 -2.25634972437244  3.43764424342434 -0.21517942414241
 6 -2.03220549294929  2.13153408690869  0.52376130813081
 6 -1.13187316571657  4.63946020622062 -2.08401016901690
 6 -3.26995763226323  4.39214969786979  0.38266250595059
 6 -1.88977286848685  5.73570898909891 -2.35832956575658
 1 -3.55547404060406 -0.41453694359436  1.26367057165717
 1 -2.74953658005801 -3.43061818681868  1.21544189328933
 1 -3.30239005880588 -2.37680112451245  2.44787417611761
 1 -0.41052635743574 -2.99443820892089 -0.06263925392539
 1 -1.99967835753575 -0.44304060756076 -0.72426652905291
 1  1.82669063046305 -0.35662711651165  4.18864096319632
 1  2.87607494039404 -0.81631352265226  2.90372530193019
 1  2.86327514141414 -2.70923250615061  0.04570762396240
 1 -2.30569319861986 -1.22113138713871  4.17497455925593
 1 -0.68363813181318 -0.13257746134613  4.65344170067007
 1 -1.88758807260726  0.24645709240924  3.40274904020402
 1 -5.80893168036804 -1.68207633883388  2.24435872887289
 1 -5.76978573927393 -3.14909901450145  1.54419726602660
 1 -6.73555093189319 -2.03423906730673  0.79095545724572
 1  2.19176531593159  1.08498844074407  1.61192880418042
 1  0.99043899539954  1.54710695499550  2.74585255895590
 1  0.37173543114311  0.35431980178018 -0.09270130243024
 1  4.71842756195620 -1.67709076807681 -3.08740434233423
 1  4.05378620842084 -2.53917569676968 -1.87401450945095
 1 -5.48005014341434 -2.37751867646765 -3.03895735953595
 1  5.03761168246825 -1.19233971387139 -0.11632840914091
 1  5.73140458175818 -0.03516051215122 -1.50694517701770
 1  3.81896180768077  0.62986947904791 -4.13345157465747
 1  3.22470822242224  2.32161324002400 -3.76173850925092
 1  2.07104289358936  1.28760325822582 -4.31372452445245
 1  0.43519742974297  2.56962845934593 -2.98346923892389
 1 -7.06986607270727 -3.84331651555156 -0.66877589878988
 1 -7.49395766066607 -3.83121445194519 -2.44276733023302
 1  3.63241696919692  3.58087744874488  3.91133438763876
 1 -0.26102998179818  4.25741702120212 -2.92822071747175
 1 -4.30631922152215  4.37460404220422 -0.31929308080808
 1 -3.76430518021802  3.98200299389939  1.37348816021602
 1 -2.81337965416542  5.29735002610261  0.57841361126113
 1  8.22829852335234 -2.27675082928293 -0.93572420742074
 1 -1.48539146374637  6.40315077217722 -3.16868172037204
 1 -2.75684803770377  5.90488186398640 -1.82282819031903

