%nproc=4
%Mem=3GB
# td=(NStates=1) B3LYP/SVP 

TD

0 1
 8 -3.39009591979198 -1.25179023452345 -2.78889954425443
 8  3.29808026282628  3.02677433593359  3.24834910581058
 8  4.00979528772877  1.09583671197120  4.18476291989199
 8  7.79776837973797 -1.42644875907591 -0.64155491729173
 8  6.57352150855086 -2.89477027192719 -1.94520096819682
 8 -2.90952185868587  1.68670415951595  1.19609967046705
 7 -0.34714046024602 -2.50497681198120  0.94746958775878
 7 -2.68638067606761 -1.03223835883588 -0.60180232483248
 7  1.15320687008701  0.08400931063106 -0.65427036423642
 7 -1.09961910741074  1.47556296419642 -0.24324522242224
 6 -3.33966911661166 -1.32149971237124  0.72910988488849
 6 -2.70257888398840 -2.36573071927193  1.60198550535054
 6 -1.20747638933893 -2.03209102310231  1.82591057965797
 6 -0.56429623192319 -1.31448263996400  2.85080310081008
 6  0.82243335593559 -1.24365936693669  2.44909610421042
 6  0.93963664986499 -1.99675611031103  1.29211401540154
 6 -4.79583453005301 -1.90656630533053  0.24336122342234
 6  1.88666325772577 -0.48813914351435  3.14935709020902
 6 -4.85396175757576 -1.97088579697970 -1.13106344684468
 6  1.96917487388739 -1.97751594379438  0.29620189888989
 6  2.11018704060406 -0.92601451365136 -0.55392929442944
 6 -3.55332000190019 -1.32661462676268 -1.63937122052205
 6  3.05605666886689 -0.62140288858886 -1.67548144704470
 6 -1.25597416961696 -0.59926378337834  3.97995350365037
 6 -5.82300752485249 -2.19284576487649  1.33805481108111
 6  2.57890754765477  0.44329169736974 -2.32673728372837
 6  1.98043747614761  1.07913360536054  2.71732837443744
 6  1.37725109160916  0.84103075167517 -1.76458256425643
 6  4.22381773087309 -1.43161259035904 -1.87106673677368
 6 -5.87846218231823 -2.49169125952595 -1.96610005820582
 6  5.43752930393039 -0.83013475867587 -1.17274069096910
 6  3.05239533493349  1.09299770237024 -3.59661617081708
 6  0.59596202030203  1.93725887278728 -1.97209895499550
 6  3.20586922722272  1.75099468496850  3.49979532473247
 6 -0.53300713231323  2.30031466366637 -1.19396468436844
 6 -6.82452637913791 -3.41075483958396 -1.68967752645264
 6  6.67665723532353 -1.82313056815682 -1.44992568256826
 6 -1.38653730853085  3.58363059625963 -1.33667174187419
 6 -2.38376246564656  3.43591407040704 -0.27078498469847
 6 -2.10757302970297  2.14600553405341  0.34568350035004
 6 -1.28691867026703  4.55578183838384 -2.42126389438944
 6 -3.55932656915692  4.35847633053305  0.11414565426543
 6 -1.90747463866387  5.83443886208621 -2.51118485128513
 1 -3.39424791799180 -0.25994148404841  1.25570977557756
 1 -2.75222684908491 -3.24935006000600  1.05068541764176
 1 -3.31420123992399 -2.52461590599060  2.58464785348535
 1 -0.57792309710971 -2.84175294039404 -0.01688467846785
 1 -1.90717910761076 -0.38042434593459 -0.80198430083008
 1  1.93482144354435 -0.52072352615261  4.22506460556056
 1  2.87928526142614 -1.01249314061406  2.84944987438744
 1  2.77471628552855 -2.70683226612661  0.58112116531653
 1 -2.01225385468547 -1.21506078007801  4.33431049284929
 1 -0.73702347034704 -0.58709291289129  5.01132748924893
 1 -1.71141045484548  0.40330277697770  3.44264302960296
 1 -5.64955574277428 -1.57301543274327  2.30538483148315
 1 -5.56906566726673 -3.18990309490949  1.66838968526853
 1 -6.94550192699270 -2.26456209960996  0.91757811951195
 1  2.37820395979598  1.20291023292329  1.72427003830383
 1  0.96819677117712  1.52078432273227  2.67792576627663
 1  0.30351860946095  0.29338370817082 -0.11497352965296
 1  4.48687440664066 -1.38948200720072 -2.85780138203820
 1  4.08373920372037 -2.58788056725673 -1.64264137213721
 1 -5.86750888928893 -2.07081800640064 -2.95195865966597
 1  5.42693061436144 -0.99149962986299  0.03040626432643
 1  5.92675411671167  0.10090309420942 -1.60916539903990
 1  3.41134104560456  0.18439493159316 -4.35467369686969
 1  3.90549630123012  1.97633871257126 -3.37981031643164
 1  2.08922471177118  1.70104460236024 -4.12853600560056
 1  0.78929283928393  2.65322681918192 -2.86996788878888
 1 -7.02418150425042 -4.05222740664066 -0.57686670787079
 1 -7.63623188808881 -3.56251758225823 -2.40306335983598
 1  4.00354408190819  3.13738309930993  3.69813306750675
 1 -0.65688956775678  4.35811709120912 -3.33052094749475
 1 -4.16282487208721  4.96560314211421 -0.92786393789379
 1 -4.35877462716272  3.76974176777678  0.70318112951295
 1 -3.29475779197920  5.12361265236524  0.81596736663666
 1  8.34266996049605 -2.21007416161616 -0.80963159815982
 1 -1.75502842744274  6.28069852695269 -3.45067992019202
 1 -2.57868022092209  6.23726510231023 -1.69883579107911

