%nproc=4
%Mem=4GB
# td=(NStates=1) B3LYP/SVP 

TD

0 1
 8 -5.18070430043004  0.15607104670467 -3.27899768946895
 8  2.99765977147715  2.87429468416842  3.27191326972697
 8  3.27694604320432  0.60847624662466  3.08878076317632
 8  1.69465710521052 -7.12769904000400  1.54483298959896
 8  0.68148303630363 -6.95667209080908 -0.46284426732673
 8  1.61452850095009  3.86422954575458  0.11520102750275
 7 -2.28093770487049 -1.04504293449345  0.66621363796380
 7 -4.24593947534753  0.60886855335534 -1.21102945774577
 7  1.86661705330533 -0.61078265126513 -0.41363984158416
 7  2.48966450835084  1.86464220972097 -0.62823957065707
 6 -4.71870826202620  1.26782827982798  0.01056685648565
 6 -4.35057245004500  0.36568673397340  1.12308966666667
 6 -2.89455455105511  0.00295055175518  1.35500751375138
 6 -1.93045214191419  0.59914487168717  2.25226839643964
 6 -0.72560917121712 -0.09828526402640  1.85184586218622
 6 -0.92937712551255 -1.16004906380638  0.91629344874487
 6 -6.27262961906191  1.45671346064606 -0.14006922232223
 6  0.47847645424542  0.18334901140114  2.64076309640964
 6 -6.53014352885288  0.92507175557556 -1.37698342704270
 6 -0.16323257935794 -2.10643938083808  0.17166924842484
 6  1.10454735093509 -1.83886343294329 -0.37364894709471
 6 -5.31070167046705  0.48703691839184 -2.12783009450945
 6  1.99196328152815 -2.92518305670567 -0.95030203950395
 6 -2.19451515241524  1.39750550745074  3.37631202140214
 6 -6.98778627182718  2.09536766596660  0.84835882178218
 6  3.15415174887489 -2.30909086028603 -1.29350059515952
 6  1.13908993629363  1.57469596299630  2.55783941984198
 6  3.09759783508351 -0.92688131373137 -1.03956794499450
 6  1.54341811201120 -4.42071803620362 -0.97654937183718
 6 -7.86109201520152  0.91166280388039 -2.00859924772477
 6  1.73213077867787 -5.04306524112411  0.47478347384738
 6  4.32896850585059 -2.97906637543754 -1.94821405270527
 6  3.93050392099210  0.10457986148615 -1.37711239363936
 6  2.55009563076308  1.57501508970897  3.03539943984398
 6  3.63508788658866  1.47707311881188 -1.19633620092009
 6 -9.10536551995200  0.97915007530753 -1.55400021532153
 6  1.28742380708071 -6.43372002220222  0.40959961896190
 6  4.46836567116712  2.69683643854385 -1.56733381648165
 6  3.73300256865687  3.80689121282128 -1.13378467276728
 6  2.54663623442344  3.21891974307431 -0.51345010771077
 6  5.77186079137914  2.55514035463546 -2.17484944004400
 6  3.90525614541454  5.28619349514952 -1.25380739413941
 6  6.66681673927393  3.50792647744774 -2.66644112101210
 1 -4.13744823092309  2.28301938203820  0.15539858015802
 1 -5.04452910981098 -0.58526000210021  1.00832557675768
 1 -4.63375021492149  0.78664266396640  1.94021093079308
 1 -2.85657469736974 -1.54231162666267 -0.07185410721072
 1 -3.20298129542954  0.22922483958396 -1.54270182108211
 1  0.41567600230023 -0.17702739073907  3.70800034813481
 1  1.42887689708971 -0.53958862626263  2.30588572137214
 1 -0.60421908280828 -3.13652111711171 -0.09334433213321
 1 -3.23586373167317  1.39229049314931  3.64337432713271
 1 -1.60590180528053  0.98733809770977  4.26477486538654
 1 -1.91824820592059  2.57803162296230  3.30501792359236
 1 -6.31280473137314  2.69540834433443  1.45520775377538
 1 -7.34620438743874  1.40013982318232  1.46072308300830
 1 -7.77911384858486  2.94262034513451  0.57538601880188
 1  1.19623233163316  2.08563059965997  1.61404947224722
 1  0.61865497799780  2.36602342434243  3.14600042424242
 1  1.43901822822282  0.27238788378838 -0.49805517081708
 1  2.13065085728573 -4.91845567596760 -1.66158076777678
 1  0.56851864936494 -4.47921776927693 -1.22292077547755
 1 -7.77166822862286  0.64881511211121 -2.97163310151015
 1  1.11019320822082 -4.45224640434043  1.25405298189819
 1  2.79275554565457 -5.02262946744674  0.84580239513951
 1  4.03431849414942 -3.99014646684668 -2.04647810891089
 1  5.22052315071507 -2.72161101130113 -1.34862848044804
 1  4.37764919801980 -2.42723495609561 -3.00616969056906
 1  4.90715033453345 -0.14391648614861 -1.65981215691569
 1 -9.20878447894789  1.14505196069607 -0.50533322312231
 1 -10.02578071167117  0.81802321802180 -2.20523662366237
 1  4.08545323182318  2.93337672137214  3.23157792349235
 1  6.02514598279828  1.45519766896690 -2.28472728772877
 1  4.73112381218122  5.52112487668767 -0.67327594749475
 1  4.01492351485149  5.50029679537954 -2.32978552345234
 1  2.89078674827483  5.68946855325533 -0.81685342694269
 1  1.43462077017702 -8.01314247134713  1.48902495739574
 1  7.57078952335234  3.13841938183818 -3.24327160046005
 1  6.32954484198420  4.70799631183118 -2.55313766626663

