%nproc=4
%Mem=3GB
# td=(NStates=1) B3LYP/SVP 

TD

0 1
 8 -3.05438234843484 -1.43498855435544 -2.86197685198520
 8  3.14128458325833  3.10722238073807  2.95604987588759
 8  3.85156946514652  1.44336146444644  4.25683012661266
 8  7.52990159305931 -1.65267138133813 -0.48521928372837
 8  6.71390554695470 -2.76176697159716 -2.32536898499850
 8 -2.66527743424342  1.64949043814381  1.44852491299130
 7 -0.29825557175718 -2.35832214651465  0.99821466226623
 7 -2.56002804080408 -1.28148328332833 -0.65069721432143
 7  1.03479502890289  0.04839574927493 -0.65637057425743
 7 -1.00353949944994  1.47965337323732 -0.17975887378738
 6 -3.36873202290229 -1.35146270867087  0.62459943384338
 6 -2.67565619171917 -2.35671981818182  1.69417472427243
 6 -1.30287592929293 -2.04480229422942  1.86004399299930
 6 -0.64162396469647 -1.27739893159316  2.87115513601360
 6  0.78070918351835 -1.26310131113111  2.50193138773877
 6  0.86440912711271 -1.74092052675268  1.28744354835484
 6 -4.69962490909091 -1.82184783348335  0.13666055335534
 6  1.81576616801680 -0.43463379297930  3.24998715321532
 6 -4.68547490889089 -2.04608331673167 -1.17276761726173
 6  1.98166612301230 -1.86813500570057  0.37287956665667
 6  2.10432645454545 -0.92167407960796 -0.63420732223222
 6 -3.32298696859686 -1.53005497079708 -1.73667095049505
 6  2.96696775997600 -0.68929967826783 -1.71770566946695
 6 -1.29705827802780 -0.58448230523052  3.96108161646165
 6 -5.70236546064606 -2.05438191849185  1.21812281788179
 6  2.52950260716072  0.45036240444044 -2.39265387538754
 6  1.92847227962796  1.01634732673267  2.71589823142314
 6  1.30322368886889  0.88455510411041 -1.73232933893389
 6  4.23543889298930 -1.47440686978698 -2.02931256135614
 6 -5.75903023912391 -2.45740783118312 -1.99314276247625
 6  5.35277082808281 -1.12029377457746 -1.11429484638464
 6  3.10193028842884  0.99812821542154 -3.64790129932993
 6  0.46448887298730  1.98275342224222 -1.93566531163116
 6  3.11628026832683  1.82816240174017  3.42335768096810
 6 -0.64409824142414  2.30962559475948 -1.18019330723072
 6 -6.90865479197920 -3.29059282338234 -1.68451701040104
 6  6.54321389098910 -1.91535979107911 -1.39063975397540
 6 -1.49184783958396  3.52418465166517 -1.29367744244424
 6 -2.28940302970297  3.48449892889289 -0.25611351755176
 6 -2.05728800120012  2.11905283878388  0.42446137813781
 6 -1.33247322572257  4.59558581878188 -2.20082185018502
 6 -3.31713234973497  4.33056353925392  0.28558279797980
 6 -1.93636752795280  5.77100251845185 -2.23798753155316
 1 -3.44054254745475 -0.28777426732673  1.07826203080308
 1 -2.58479010541054 -3.33003812881288  1.08046839593959
 1 -3.32478229802980 -2.76377982238224  2.61593098179818
 1 -0.53156846164617 -2.66937570267027  0.08889589958996
 1 -1.84661305100510 -0.47153345684569 -0.61950605300530
 1  1.45447340874087 -0.48846029982998  4.41591369046905
 1  2.86305363826383 -0.95216710801080  3.20345527492749
 1  2.67460627452745 -2.75452703560356  0.36169922312231
 1 -2.17286991629163 -1.04923419741974  4.54999206100610
 1 -0.44969473747375 -0.11441564516452  4.68153450995100
 1 -2.05320463426343  0.26198864556456  3.48969773507351
 1 -5.90665145234523 -1.04828295949595  2.09167346034603
 1 -5.68455721642164 -2.95760986558656  1.90309315561556
 1 -6.70093747054705 -1.95816145954595  0.72715907760776
 1  2.12309844924492  0.82649259115912  1.66250386168617
 1  1.09599955145515  1.48506075037504  2.87588556225623
 1  0.21775003260326 -0.08354398459846 -0.10562259455946
 1  4.63721944114411 -1.48299135813581 -3.02620822272227
 1  4.04939576937694 -2.63531531073107 -2.14502161016102
 1 -5.60254239263926 -2.35228615321532 -3.04665812961296
 1  5.08467638893889 -1.20067054695470  0.04255747944794
 1  5.72972441374137 -0.12927992409241 -1.19434391689169
 1  3.67954786628663  0.17853434553455 -4.34491272077208
 1  3.80642639423942  1.89426050475047 -3.46565890129013
 1  2.14008979827983  1.59692419031903 -4.06546969896990
 1  0.55527943794379  2.63707520402040 -2.82793368536854
 1 -7.05395448154816 -3.73134531843184 -0.79050807200720
 1 -7.78651691659166 -3.17938926942694 -2.42339539303930
 1  3.81646537403740  3.62292165316532  3.31868512271227
 1 -0.59732361116112  4.44031531103110 -3.05141303670367
 1 -4.09266785638564  4.63102968476848 -0.52221337283728
 1 -3.95310406010601  3.83389818341834  1.17191800320032
 1 -2.89178749494950  5.34225451655166  0.48061383128313
 1  8.26691238473847 -2.13573672787279 -0.90849148414842
 1 -1.48584150875088  6.40112056915692 -3.12116696889689
 1 -2.67786013891389  6.21797317311731 -1.65932183968397

