%nproc=4
%Mem=4GB
# td=(NStates=1) B3LYP/SVP 

TD

0 1
 8 -5.43061929192919  0.07402284188419 -3.25132492219222
 8  2.88388839433943  3.03308056275628  3.33259933833383
 8  3.19034738333833  0.78176357535754  3.20491237633763
 8  1.80324796429643 -7.31361763186319  1.18975748204821
 8  0.44913980198020 -6.83575999959996 -0.62224020692069
 8  1.80078712681268  3.90247337013701 -0.04440493309331
 7 -2.33382299339934 -0.89519794999500  0.51667868446845
 7 -4.45373025442544  0.59682734923492 -1.23860221502150
 7  1.97635802740274 -0.73100467346735 -0.29807828542854
 7  2.62303784568457  1.89436518201820 -0.70276702340234
 6 -4.85191158235824  1.09339083608361  0.03650945074507
 6 -4.42950034283428  0.26445661096110  1.18419577727773
 6 -2.94994008960896  0.03993425012501  1.39883189618962
 6 -2.01570066676668  0.65771072827283  2.15682885248525
 6 -0.70623723402340  0.06582114661466  1.82153283088309
 6 -1.05624981278128 -0.94716777567757  0.81629344874487
 6 -6.36403875997600  1.26472426172617 -0.06589180458046
 6  0.46370497709771  0.18878955545555  2.67060608070807
 6 -6.76860737523752  0.86761601000100 -1.33982971167117
 6 -0.12878913501350 -1.85745448234823  0.22393447494749
 6  1.15922281848185 -1.76878642524252 -0.26551813401340
 6 -5.55746634693469  0.43720193489349 -2.11231854335434
 6  1.98053213841384 -2.83860439883988 -0.95352236153615
 6 -2.16213191409141  1.62037779467947  3.29885427562756
 6 -7.16823431663166  1.85010313951395  1.00557454335434
 6  3.16788312201220 -2.30993094429443 -1.17012825792579
 6  1.04175020232023  1.67382587598760  2.59235287118712
 6  3.15573364866487 -0.89630825642564 -0.89625361356136
 6  1.51841561176118 -4.30102606700670 -0.88919063596360
 6 -7.99325523152315  0.59566120372037 -1.96932532033203
 6  1.75149271487149 -5.04515545014501  0.37944393989399
 6  4.34477008600860 -2.97792626142614 -1.82998222952295
 6  4.16358722932293  0.01297070057006 -1.26337101950195
 6  2.47513813501350  1.77774536273627  2.99718561846185
 6  3.93562794059406  1.42997840934093 -1.17241380868087
 6 -9.23700868426843  0.87333949424943 -1.46876169146915
 6  1.27069213391339 -6.45861251145115  0.21622028102810
 6  4.65893472807281  2.51192794769477 -1.53871095419542
 6  4.02687195559556  3.76209673337334 -1.14483577787779
 6  2.67799937073707  3.30904875597560 -0.57890665336534
 6  6.05987959325933  2.41150599119912 -2.06569852495250
 6  4.39010463026303  5.22254713051305 -1.18331034443444
 6  6.73864392199220  3.35697138193819 -2.81332580948095
 1 -4.46231071717172  2.30346142624262  0.20196323662366
 1 -4.94679933683368 -0.57986946304630  1.04748949314932
 1 -4.62992983288329  0.83887788748875  2.02515942564256
 1 -2.88099713961396 -1.47585498099810 -0.19907682948295
 1 -3.41044204150415  0.82239415651565 -1.61014856575658
 1  0.06028046274627 -0.06210589858986  3.77030657875788
 1  1.57014102350235 -0.52102677007701  2.28287342014201
 1 -0.52831149204921 -2.82500996599660  0.03360836313631
 1 -3.25972611791179  1.65179644374437  3.65448543824382
 1 -1.55317653275328  1.48823818771877  4.24209259715972
 1 -1.79463584468447  2.65400922072207  2.95393281508151
 1 -6.70339379027903  2.59858866236624  1.57402963596360
 1 -7.39355912291229  1.15971578077808  1.81676868756876
 1 -8.06576251345134  2.43349943304330  0.50071855205521
 1  0.98286099449945  1.88361039763976  1.53109117641764
 1  0.56762987548755  2.44865168716872  3.13164898909891
 1  1.39284361076108  0.27487813281328 -0.24216958225823
 1  2.03477126932693 -4.91900573097310 -1.63953856355636
 1  0.43185498299830 -4.27858770627063 -1.33171165456546
 1 -7.95574663646365  0.22292252285229 -2.94609054725473
 1  1.03925611451145 -4.61442262196220  1.19693727032703
 1  2.85258152825282 -5.01352855735574  0.75795361026103
 1  4.21411647394739 -4.01893934613461 -1.82225568666867
 1  5.34426552495250 -2.76470532073207 -1.53344696229623
 1  4.27217865096510 -2.82198443104310 -3.01296036963696
 1  4.99836945644565 -0.42102419691969 -1.97563373907391
 1 -9.36950055055506  1.33892134763476 -0.44541723152315
 1 -10.16350448404840  0.63461487718772 -1.88097419741974
 1  3.92327701420142  2.91180456415642  3.43419818551855
 1  6.33928739693969  1.16319846904690 -1.54982379737974
 1  5.36724742454245  5.39962272647265 -0.66195481538154
 1  4.01192321482148  5.96080284598460 -2.29258180308031
 1  3.69950762036204  5.85232483888389 -0.54760650225023
 1  1.24886219431943 -8.20168132523252  0.97267332223222
 1  7.89251169556956  3.14144968486849 -3.10950822412241
 1  6.33592548004800  4.56347185938594 -3.04503685618562

