%nproc=4
%Mem=3GB
# td=(NStates=1) B3LYP/SVP 

TD

0 1
 8 -3.33478038823882 -1.23617867336734 -2.92861351565157
 8  3.35359581438144  2.97052871137114  2.72408667956796
 8  3.74677898609861  1.25960308860886  4.26785122872287
 8  7.65747435033503 -1.57379349354936 -0.54353511531153
 8  6.72202635903590 -2.90209100400040 -2.02658910701070
 8 -2.74036494299430  1.54266975607561  1.42432249274927
 7 -0.25820156635664 -2.43664997929793  0.91518635943594
 7 -2.76033807180718 -1.13661879687969 -0.67553969856986
 7  1.23789533893389  0.11980288998900 -0.70685562276228
 7 -0.96907605310531  1.48279368726873 -0.12849374727473
 6 -3.35905105480548 -1.26320388278828  0.56430340424042
 6 -2.59242786888689 -2.40134428062806  1.48677398419842
 6 -1.28966460816082 -2.01590940494049  1.70159814841484
 6 -0.71799160146015 -1.22310350205020  2.84922294279428
 6  0.69653076567657 -1.15693069406941  2.53135433003300
 6  0.96295898209821 -1.85536197089709  1.19767457145715
 6 -4.79470441704170 -1.75665131383138  0.25263215051505
 6  1.78569316071607 -0.36583691329133  3.19327148164817
 6 -4.81333769516952 -2.04927363576358 -1.06887722822282
 6  2.20941889828983 -1.81229942214221  0.35962824152415
 6  2.19366538843884 -0.81169308150815 -0.60228412991299
 6 -3.59974464436444 -1.39659162446245 -1.68449573297330
 6  3.10806186938694 -0.57992874117412 -1.67705160406041
 6 -1.39245781798180 -0.60564442144214  3.89927543584358
 6 -5.71379660376038 -2.06758323862386  1.38611961756176
 6  2.55869552645265  0.45757312551255 -2.45825043504350
 6  1.91789122152215  1.05835152715272  2.74108074967497
 6  1.39488285478548  0.90179682828283 -1.81329743574357
 6  4.35016036513651 -1.38906833593359 -1.88055768586859
 6 -5.91257559365937 -2.49522161256126 -1.95762921112111
 6  5.47318286928693 -1.01192293749375 -1.08370178707871
 6  3.18507860326033  1.14162256485649 -3.67639414861486
 6  0.48146057015702  1.94953009990999 -2.02172391749175
 6  3.10309895019502  1.74540412591259  3.32644798999900
 6 -0.61194502610261  2.32571720392039 -1.11367665556556
 6 -6.91612553905390 -3.23669743384338 -1.59586814551455
 6  6.57284685428543 -2.02403065816582 -1.28313900390039
 6 -1.47744639943994  3.49890212341234 -1.18086616131613
 6 -2.34284837423742  3.35114559355936 -0.14371227742774
 6 -2.01721399379938  2.12363329682968  0.50677960996100
 6 -1.32547252565257  4.42180844104410 -2.18134990299030
 6 -3.44398503500350  4.23573405630563  0.21464570427043
 6 -2.07387127832783  5.56749216741674 -2.37756148894889
 1 -3.29229772297230 -0.29450494039404  1.28129233383338
 1 -2.75022664906491 -3.43472859785979  1.01609195829583
 1 -3.37386720652065 -2.42646609100910  2.14927431613161
 1 -0.27444274907491 -2.67892665776578 -0.18884187418742
 1 -1.94220260996100 -0.27159346284628 -0.73122722512251
 1  1.32522048344834 -0.41485293909391  4.20823292239224
 1  2.80387772067207 -0.97879977127713  3.22611754115412
 1  3.02505131903190 -2.49741132403240  0.40638369156916
 1 -1.95759838913891 -1.38842811681168  4.28117517931793
 1 -0.56716648464846 -0.32955715931593  4.81816817331733
 1 -2.06677599139914  0.24623707040704  3.52785155045505
 1 -5.87020780798080 -1.17192532373237  2.12188648164817
 1 -5.72465122582258 -3.16399050365037  1.92221506780678
 1 -6.67563494029403 -1.84721036443644  0.94137049874988
 1  2.08817495689569  1.16502644454445  1.70912852415242
 1  0.93476342784278  1.63597584188419  2.93916188988899
 1  0.31626988458846  0.26853122292229 -0.31995402770277
 1  4.50908662786279 -1.22579563856386 -3.05872147404740
 1  4.16418724852485 -2.47917969716972 -1.86044315231523
 1 -5.84926706510651 -2.08817974257426 -3.08906237003700
 1  5.27306522782278 -1.01535201510151  0.02602582628263
 1  5.69748118941894  0.02121512541254 -1.17611209370937
 1  4.10028994049405  0.43008950105010 -4.31012924242424
 1  3.82881863346335  2.11380245894589 -3.48809114451445
 1  2.36838262756276  1.47251174907491 -4.28207135913591
 1  0.70157406740674  2.59620111661166 -2.90007089908991
 1 -7.20027911401140 -3.64885706960696 -0.54931395259526
 1 -7.56885515041504 -3.73514484498450 -2.29156220972097
 1  4.07726145364536  3.27018637963796  3.22560581478148
 1 -0.53195707450745  4.01922320182018 -3.00655855125513
 1 -4.09124771437144  4.59461604340434 -0.40571172267227
 1 -3.96511526122612  4.03397819141914  1.18297910931093
 1 -3.01519983618362  5.26688697979798  0.55654142404240
 1  8.41116681018102 -2.17903105730573 -0.74466510151015
 1 -1.70030295489549  6.32343280038004 -3.27167201940194
 1 -2.84548690159016  5.75238661446145 -1.60080598809881

