%nproc=4
%Mem=4GB
# td=(NStates=1) B3LYP/SVP 

TD

0 1
 8 -5.35663189318932 -0.05669022942294 -3.24080387008701
 8  3.04821482698270  2.99102635733573  2.94791086948695
 8  3.33733208180818  0.75889128812881  2.89154103920392
 8  1.69692733223322 -7.18312458255826  1.42714122042204
 8  0.50209509750975 -6.96478290189019 -0.38521650455045
 8  1.62647969606961  3.82634575737574  0.16181568896890
 7 -2.35998560966097 -1.00410884108411  0.61357837443744
 7 -4.32119700110011  0.63455112161216 -1.16987534233423
 7  1.79574996659666 -0.73748532153215 -0.49485796339634
 7  2.49132467436744  1.79258500400040 -0.55936268296830
 6 -4.80525691689169  1.20974247124712  0.01655745554555
 6 -4.25814320712071  0.37985815111511  1.28747610531053
 6 -2.83162825842584  0.06296655335534  1.32708472147215
 6 -1.83440253695370  0.65186014321432  1.97082025162516
 6 -0.59484609490949 -0.01392682818282  1.71262193979398
 6 -0.94025821362136 -0.97741079998000  0.74745656505651
 6 -6.24288664476448  1.40165795509551 -0.12993820922092
 6  0.63233183978398  0.28533921042104  2.53302232233223
 6 -6.59834034853485  0.94895414381438 -1.36724245294529
 6 -0.19190544664466 -2.02623136003600  0.11375345684568
 6  1.12914981118112 -1.86163571017102 -0.34472605480548
 6 -5.38497909820982  0.47323553825383 -2.10849816131613
 6  1.92491657685769 -2.97655819421942 -0.88664567386739
 6 -1.99167486838684  1.63563932083208  3.10793518371837
 6 -7.10275776897690  1.91296942614261  0.99018300420042
 6  3.06917325102510 -2.29907985918592 -1.27448869396940
 6  1.13635966326633  1.69720821422142  2.53770740664066
 6  3.01325940124012 -0.92641126672667 -1.03459744794479
 6  1.49449321952195 -4.41423738813881 -0.89058077497750
 6 -7.91617752375238  0.79405104270427 -2.00915930373037
 6  1.84587215281528 -5.10421135573557  0.34954094959496
 6  4.29458506750675 -2.90083855265527 -1.92682191349135
 6  3.89361023162316  0.06821622512251 -1.33700838323832
 6  2.66992761396140  1.76404399259926  2.74870076997700
 6  3.64409878767877  1.45938134963496 -1.01738830613061
 6 -9.13647863126313  0.87625978627863 -1.52161697699770
 6  1.28795386008601 -6.42932958315832  0.37236589558956
 6  4.48092692729273  2.67865462036204 -1.36533361646165
 6  3.82142141054105  3.73755427912791 -0.96167746204620
 6  2.55265683648365  3.23606145724572 -0.32703146584658
 6  5.82137574287429  2.57209204980498 -2.07959991509151
 6  4.08239385918592  5.20373524932493 -0.97751976537654
 6  6.75775583318332  3.43278896369637 -2.28901337823782
 1 -4.34029851595159  2.28864994509451  0.08847188748875
 1 -4.78261291819182 -0.60731220732073  1.10210495469547
 1 -4.68165500540054  0.77234123382338  2.22205911561156
 1 -2.77079611951195 -1.56321371687169 -0.13344026582658
 1 -3.38825982328233  0.29860177727773 -1.70277782868287
 1  0.23662809750975 -0.07600728872887  3.50747029512951
 1  1.45814982438244 -0.26681134853485  2.28561369416942
 1 -0.74694335523552 -2.99771723672367  0.12217722002200
 1 -3.16262640794079  1.71437270137014  3.27106709640964
 1 -1.69826104120412  1.28968833273327  4.12556094399440
 1 -1.57143352445245  2.63616743654365  2.79898732053205
 1 -6.44851830273027  2.44746354985499  1.67007924092409
 1 -7.62935270227023  1.17417722692269  1.71165817651765
 1 -8.00535647284728  2.93051913501350  0.59163764396440
 1  0.72413512191219  2.23626566316632  1.63937200450045
 1  0.57048016051605  2.36295311731173  3.34497032123212
 1  1.39795412181218  0.15432607760776 -0.26883224852485
 1  1.93966175837584 -4.98183201360136 -1.74815942564256
 1  0.37196899439944 -4.49265911341134 -1.20584906830683
 1 -7.80439150095010  0.43510374097410 -3.19643558175818
 1  1.48689087798780 -4.63031421112111  1.22833040964096
 1  2.80448671877188 -5.20068727322732  0.45986380128013
 1  4.17201226352635 -4.08380583278328 -1.77897135823582
 1  5.32613371177118 -2.59453830403040 -1.45672929052905
 1  4.46442787588759 -2.62240447304730 -2.98832790639064
 1  4.92113173267327 -0.04049614411441 -1.82661883758376
 1 -9.28266186668667  0.80597805330533 -0.46595928572857
 1 -10.08928706230623  0.83380479617962 -2.16499259925993
 1  3.93950863736374  2.83463684738474  2.78296306200620
 1  5.92961642984298  1.54931708090809 -2.44669348434843
 1  4.99135983578358  5.32639540374038 -0.30299891979198
 1  4.28249027152715  5.50752751845185 -1.90888343324332
 1  3.20998866846685  5.86212581898190 -0.60722246384638
 1  1.39408671677168 -8.07873903100310  1.16864291919192
 1  7.61137358175818  3.07330287018702 -2.91388866216622
 1  6.61278316581658  4.50905641784178 -2.05515786828683

