%nproc=4
%Mem=4GB
# td=(NStates=1) B3LYP/SVP 

TD

0 1
 8 -5.31869809980998 -0.01652621302130 -3.19414920462046
 8  3.03755376087609  2.92127938263826  3.09939601800180
 8  3.25587393599360  0.66322172117212  3.07553943904390
 8  1.87382502200220 -7.21162743284328  1.38018652495250
 8  0.44331921992199 -6.90582700630063 -0.43909189208921
 8  1.69583663176318  3.95006812961296  0.04999450685069
 7 -2.43418302940294 -0.89411784198420  0.63809082568257
 7 -4.36568144954495  0.61668933543354 -1.25259361416142
 7  1.82683307490749 -0.65057663066307 -0.39364784238424
 7  2.67872341424142  1.79796554205421 -0.40343709040904
 6 -4.75250164136414  1.17059855685569  0.00717651745174
 6 -4.54596198899890  0.32550271557156  1.28910626832683
 6 -3.02319741534153  0.01804206090609  1.45590760376038
 6 -1.94513361006101  0.61570652785279  2.17028019761976
 6 -0.72378898919892  0.06815137963796  1.77914859245925
 6 -0.99672386018602 -0.91122418131813  0.80773259265927
 6 -6.24894725082508  1.27316510581058 -0.09209442484248
 6  0.55477408400840  0.14100477697770  2.49516853695370
 6 -6.67584809930993  0.87494674307431 -1.29834556325633
 6 -0.29460571667167 -1.89817855475548  0.08090017151715
 6  1.06657355355536 -1.77648719531953 -0.37172875507551
 6 -5.42919351965197  0.45622383708371 -2.16581389288929
 6  2.00401448664866 -2.85596613501350 -0.92146915621562
 6 -2.15573127402740  1.77741349824982  3.00115450565056
 6 -7.17658515171517  1.97515564476448  0.86750073597360
 6  3.14229056275628 -2.42765271647165 -1.44000524562456
 6  1.10747677497750  1.58666716011601  2.50000363626363
 6  3.03812188748875 -0.90925955155516 -1.08228221642164
 6  1.47729149934993 -4.29686565096510 -0.95671738863886
 6 -7.97357326332633  0.77064870247025 -1.93443183098310
 6  1.80756832243224 -5.08954988958896  0.34474046954695
 6  4.36945255425543 -3.01157962676268 -1.91630086138614
 6  4.03481435203520  0.02566196969697 -1.32891757415742
 6  2.58174879607961  1.65104269246925  2.92759865976598
 6  3.77242161996200  1.46843225472547 -1.05907247454745
 6 -9.20298528192819  0.71823398369837 -1.40484529982998
 6  1.29599466416642 -6.48236488668867  0.38561722072207
 6  4.61619045364536  2.63804055895590 -1.39909699279928
 6  3.93346261466147  3.75517604130413 -1.06945824012401
 6  2.67191876267627  3.29594744584458 -0.40618938163816
 6  6.01764536983698  2.53914875547555 -1.95671762686269
 6  4.26161178097810  5.20170504630463 -1.16937895129513
 6  6.69566962456246  3.55005068986899 -2.56877135403540
 1 -4.24558904500450  2.15640672077208  0.33223626392639
 1 -5.14275893279328 -0.72922439853985  1.33137788198820
 1 -4.87691453135314  0.88263226292629  2.22282919261926
 1 -2.87766680658066 -1.81846924242424  0.15017809600960
 1 -3.49284028132813  0.67946986408641 -1.66014356525653
 1  0.49237367206721 -0.14155384338434  3.47256680478048
 1  1.20926493589359 -0.66009067646765  2.08694382718272
 1 -0.61079974087409 -3.10711817681768 -0.21477647534753
 1 -3.03521366666667  1.97680894499450  3.57271726142614
 1 -1.54532574767477  1.55599496339634  3.92007039493949
 1 -1.76849323042304  2.87062088188819  2.53866128792879
 1 -6.34130758165817  2.73320212371237  1.56933916691669
 1 -7.78836860386038  1.23960376957696  1.47308431913191
 1 -7.80030596779678  2.62346842994299  0.43224170437044
 1  1.02104481288129  2.03255529212921  1.32108017531753
 1  0.38511162366237  2.24696151815181  3.10915673987399
 1  1.65407973437344  0.39906055105511 -0.23396876217622
 1  2.03233102530253 -4.99303313371337 -1.81451606130613
 1  0.39437123462346 -4.26198604610461 -1.10693917731773
 1 -7.99910097189719  0.72167239783978 -2.91368730693069
 1  1.47382957185719 -4.34427560726073  1.21239881648165
 1  2.90069633973397 -5.18861606610661  0.45017283218322
 1  4.11239630193019 -4.10401785398540 -2.23982744384438
 1  5.28412951135114 -2.84662351255126 -1.34513813141314
 1  4.70338177127713 -2.55573780638064 -2.72183125672567
 1  4.91666128562856 -0.31076317081708 -1.84713088878888
 1 -9.29355295579558  0.87352480798080 -0.31581427122712
 1 -10.09394752835284  0.85945736143614 -2.04165026502650
 1  3.88465315181518  2.86038942264226  3.72332709840984
 1  6.39876334453445  1.51663381258126 -1.66283509850985
 1  5.32593329312931  5.36043880808081 -0.90682930283028
 1  3.99443146564656  5.38963572927293 -2.27316986188619
 1  3.54541221082108  5.67835744214421 -0.64888663026303
 1  1.44292160026003 -8.15522667976798  1.28110416531653
 1  7.68252069646965  3.29462500240024 -3.15606287958796
 1  6.38627051455145  4.58930444264426 -2.56877923042304

