%nproc=4
%Mem=3GB
# td=(NStates=1) B3LYP/SVP 

TD

0 1
 8 -3.33927083728373 -1.25339039453945 -2.77359801410141
 8  3.08923937873787  3.12043370187019  2.90766503740374
 8  3.70409471767177  1.40854798309831  4.38967341094109
 8  7.82368097099710 -1.36056217041704 -0.83009377117712
 8  6.73216737313731 -3.03400419531953 -1.89768621672167
 8 -2.66777768426843  1.69299478857886  1.47763782428243
 7 -0.36562230843084 -2.44440075437544  0.93028786958696
 7 -2.71612365036504 -1.28333346834683 -0.51397354195420
 7  1.11826337573757  0.09509041874187 -0.72726766396640
 7 -0.96368551405141  1.38968437633763 -0.16026692459246
 6 -3.45160030973097 -1.35770333273327  0.68827580148015
 6 -2.65725435153515 -2.38681282748275  1.66722202900290
 6 -1.21768741044104 -2.10892870687069  1.83464145274527
 6 -0.61858166046605 -1.28253944564456  2.79598761926193
 6  0.73251436403640 -1.20088508950895  2.48468966356636
 6  0.92475516171617 -1.97024345904590  1.24794959895990
 6 -4.75349029562956 -1.98995464416442  0.32060894819482
 6  1.79607419881988 -0.36958728832883  3.16295845034503
 6 -4.86968332973297 -2.15349405780578 -1.00640098059806
 6  1.98852680908091 -1.93700189238924  0.24818709740974
 6  2.04997101900190 -0.86660857305731 -0.62909681118112
 6 -3.59951462136214 -1.44233619891989 -1.63539082248225
 6  3.04648571177118 -0.71954270257026 -1.74942884178418
 6 -1.36759533173317 -0.57523138013801  3.84225973427343
 6 -5.78414363846385 -2.17763424372437  1.27097810341034
 6  2.60757041394139  0.44905227342734 -2.50249485948595
 6  1.92946237863786  1.02410810281028  2.75348198979898
 6  1.35314868136814  0.91373802240224 -1.75568167416742
 6  4.31524687378738 -1.42878230733073 -1.98828845894589
 6 -5.98471280738074 -2.45224731513151 -1.94196764496450
 6  5.48841439243924 -1.08553029822982 -1.19659307620762
 6  3.23038313371337  1.12771117371737 -3.72729923912391
 6  0.61879430353035  2.10419556645665 -1.99893163826383
 6  3.00769941024102  1.80825041054105  3.42737808300830
 6 -0.53179701130113  2.25250988318832 -1.22917820572057
 6 -6.99819374587459 -3.19590335443544 -1.77840639933993
 6  6.76963653325333 -1.91747000210021 -1.36109679967997
 6 -1.37403605840584  3.52198443164316 -1.37076515121512
 6 -2.24458854825483  3.51131161016102 -0.24408231443144
 6 -1.96114838723872  2.12864379787979  0.43073200520052
 6 -1.11907188558856  4.67021328152815 -2.24115588358836
 6 -3.39889052555256  4.26664714761476  0.21690593029303
 6 -1.92800669186919  5.78850426862686 -2.28793252605261
 1 -3.51448994219422 -0.45272076197620  1.17611181578158
 1 -2.74391601800180 -3.44511963696370  1.23191354045405
 1 -3.25810563036304 -2.41343478787879  2.69879926862686
 1 -0.72875818061806 -2.92441120622062 -0.02713570357036
 1 -2.23181157085709 -0.37108341184118 -0.43415751815181
 1  1.45270323172317 -0.40167162096210  4.10796289538954
 1  2.90206753965397 -0.80907279857986  3.13404833423342
 1  2.87625643954395 -2.72942452535254  0.05155820902090
 1 -2.47982061136114 -1.16651592559256  4.06769383118312
 1 -0.84051381938194 -0.40784498809881  4.79538589508951
 1 -1.52246155995600  0.70418286498650  3.26433519881988
 1 -6.03759454665467 -1.63175130633063  2.15212950595060
 1 -5.84602336303630 -3.36198030263026  1.50687353365337
 1 -6.66497387418742 -2.30086572997300  0.75745210691069
 1  2.26013215261526  1.11250119201920  1.68112572387239
 1  1.06277622912291  1.52251449574958  3.00840881458146
 1  0.29750800840084  0.21651602140214 -0.06631866416642
 1  4.59204492369237 -1.40847390639064 -2.96730233213321
 1  4.11129195899590 -2.39268104730473 -1.72220932893289
 1 -5.81644378277828 -2.16596752135214 -2.97028049184919
 1  5.12057997929793 -1.08867934783478 -0.04998177447745
 1  5.70432187348735  0.06431943584358 -1.26199068156816
 1  4.16824673617362  0.47734422652265 -4.12123035253525
 1  3.76445219681968  1.97764884358436 -3.24493682908291
 1  2.47046283558356  1.38839333723372 -4.34387753975397
 1  0.67838174817482  2.75663716021602 -2.77505839783978
 1 -7.01208029412941 -3.58757094099410 -0.73814283548355
 1 -7.77679594449445 -3.51342267276728 -2.44172722622262
 1  3.72515624312431  3.56785614661466  3.48811206540654
 1 -0.30058393719372  4.52400367986799 -2.78663655905591
 1 -4.10349893949395  4.51600818261826 -0.53325447694769
 1 -3.88672742244224  3.63829862346235  1.04340515191519
 1 -2.93946226242624  5.03945423652365  0.62666843674367
 1  8.58079377287729 -1.88609176337634 -0.92124275927593
 1 -1.84383730833083  6.47045750285029 -3.11958681088109
 1 -2.81019337223722  5.79106048184819 -1.69183509100910

