%nproc=4
%Mem=3GB
# td=(NStates=1) B3LYP/SVP 

TD

0 1
 8 -3.25371228142814 -1.21769682518252 -2.86379703400340
 8  2.88961941674167  3.14337599609961  3.28159243014301
 8  3.71514582278228  1.28642577087709  4.28894333793379
 8  7.78930753365337 -1.35697181138114 -0.72771353315332
 8  6.66135029142914 -2.97658845374537 -1.82963941204120
 8 -2.70823172967297  1.65603109220922  1.41632169266927
 7 -0.27981372757276 -2.53256957125713  0.93495833663366
 7 -2.71828386638664 -1.20153528852885 -0.63234537913791
 7  1.15966751615162  0.12720363006301 -0.75254019121912
 7 -1.00344949044905  1.42175758365837 -0.18316921482148
 6 -3.32226737643764 -1.34221178357836  0.67134410831083
 6 -2.65532415851585 -2.37686183238324  1.60055536233623
 6 -1.12894853655366 -2.04603241724172  1.83740172877288
 6 -0.51487128942894 -1.21634282598260  2.75427344784478
 6  0.80473158575858 -1.20412541354135  2.43439463406341
 6  0.97207989418942 -1.96804323902390  1.19639444344434
 6 -4.66258120472047 -1.80185583428343  0.34177106440644
 6  1.88891348274827 -0.50404073367337  3.14670682518252
 6 -4.80214657605761 -2.00267897629763 -1.05453579407941
 6  2.10213817021702 -1.90788898109811  0.24772705140514
 6  2.07089311121112 -0.90813272547255 -0.74865876737674
 6 -3.60709537943794 -1.41973393869387 -1.70768805220522
 6  3.05720678387839 -0.66607735603560 -1.81450534943494
 6 -1.22001057325733 -0.43199705670567  3.84273978227823
 6 -5.76522174627463 -2.15178165846585  1.32262326792679
 6  2.63348300520052  0.52440980918092 -2.52391700170017
 6  1.88915834823482  1.08126381838184  2.81815845744574
 6  1.37378074457446  0.91504815341534 -1.87333343934393
 6  4.25297064616462 -1.45721515061506 -1.98499812991299
 6 -6.00148448454845 -2.32494458485849 -1.85218866706671
 6  5.49570512151215 -0.97346909210921 -1.15653907080708
 6  3.15111520692069  1.10618902150215 -3.75016152535254
 6  0.49315173927393  1.89243439033903 -2.11525327042704
 6  2.96145478577858  1.75993557905791  3.55778112331233
 6 -0.63079691129113  2.22572720492049 -1.24893018091809
 6 -7.09934386088609 -3.05778954305431 -1.66116467516752
 6  6.71135070467047 -1.98202645774577 -1.26771746174617
 6 -1.44532318711871  3.36939917311731 -1.24956303100310
 6 -2.33907799719972  3.28966944594459 -0.19878778497850
 6 -1.99234150655065  2.04115504900490  0.40887981998200
 6 -1.27072705110511  4.39261552175217 -2.25716748474848
 6 -3.28968960546055  4.32727321022102  0.20684492419242
 6 -1.96637052825283  5.67158257645765 -2.39366309910991
 1 -3.10655914911491 -0.34579006890689  1.11132533713371
 1 -2.61717334373437 -3.42138726372637  1.11205155425543
 1 -2.91805162496250 -2.35346879127913  2.73824321302130
 1 -0.48710401520152 -2.96053481858186 -0.04785777577758
 1 -1.97170556025603 -0.46578288178818 -0.44870897329733
 1  1.58161612301230 -0.62159361316132  4.23442554165416
 1  2.94717205010501 -0.82686457775778  3.10247517691769
 1  2.86143495739574 -2.55984756765677  0.10389344254425
 1 -1.77499012831283 -1.16403567756776  4.35425248704871
 1 -0.39801956995700 -0.04908911251125  4.56116247274728
 1 -1.53198251205120  0.32575502220222  3.27612637793779
 1 -5.79535032223222 -1.51630976217622  2.32506679967997
 1 -5.69954871557156 -3.23565767036704  1.65405825212521
 1 -6.77856523332333 -2.16636227962796  0.98075443714371
 1  2.10543668306831  1.13356329822982  1.79309692099210
 1  1.03584353585359  1.57610985528553  3.03195116881688
 1  0.17281553915392  0.21028539833983 -0.33415544784478
 1  4.45678139733973 -1.65199825882588 -3.09365496739674
 1  4.05723655345535 -2.66141792099210 -1.82300940894089
 1 -5.82816495489549 -1.79848077267727 -2.88653211701170
 1  5.24673259455946 -0.82072255215522 -0.16536331263126
 1  5.96424786608661 -0.02897989408941 -1.55119960246025
 1  3.67966787828783  0.27861435353535 -4.20887911741174
 1  3.78839459105911  2.00945202390239 -3.28395073047305
 1  2.44196998629863  1.77373187108711 -4.46882003400340
 1  0.60004391439144  2.57077857435744 -2.99591048304830
 1 -7.22545163126313 -3.55373755765577 -0.62760178137814
 1 -8.09515778067807 -3.10914224472447 -2.42380543404340
 1  3.57281100860086  3.63593295429543  3.92120537473747
 1 -0.49650352915292  4.37766904640464 -2.92917081248125
 1 -4.14341293089309  4.51927850965097 -0.57254840634063
 1 -3.83629237893789  4.01269606320632  1.15184599599960
 1 -3.05413372957296  5.27500779187919  0.38840461036104
 1  8.56030172367237 -2.03042619681968 -0.73204383938394
 1 -1.65621854645465  6.23480393749375 -3.21198605080508
 1 -3.08702105500550  5.82683405920592 -1.92735864336434

