%nproc=4
%Mem=3GB
# td=(NStates=1) B3LYP/SVP 

TD

0 1
 8 -3.24454136433643 -1.35594064956496 -2.78679933423342
 8  3.15736619141914  3.12053371187119  3.16466073697370
 8  3.71992630083008  1.32496962526253  4.56327077067707
 8  7.60063866676668 -1.40603671787179 -0.78993975577558
 8  6.58372252865287 -3.04447524242424 -1.85493194129413
 8 -2.72583348984898  1.62171766086609  1.38379844034403
 7 -0.26168191439144 -2.41747806210621  0.90725556635664
 7 -2.60102214021402 -1.22955809080908 -0.59728187278728
 7  1.19351090049005  0.04276518621862 -0.81050598779878
 7 -1.08408755425543  1.46022143004300 -0.18317921582158
 6 -3.40855600530053 -1.35065262766277  0.70518749264926
 6 -2.62908153425343 -2.39478362456246  1.61523683048305
 6 -1.17910355205521 -1.99678749274928  1.76646463506351
 6 -0.50337013931393 -1.30312150385038  2.86413443394339
 6  0.83557467006701 -1.19264426542654  2.44664585918592
 6  0.99137182338234 -1.81568800350035  1.23635843984398
 6 -4.78848379497950 -1.75365101380138  0.24041092839284
 6  1.92949754115412 -0.47869819941994  3.16707886238624
 6 -4.81617797919792 -1.85511421982198 -1.08071841234123
 6  2.12585054145415 -1.85674386658666  0.28194047274727
 6  2.14077009890989 -0.91240315251525 -0.66766066756676
 6 -3.45002967286729 -1.46895886118612 -1.61147843124312
 6  3.00851191439144 -0.63067381568157 -1.83598749764976
 6 -1.27707627982798 -0.67086094309431  3.98950445874587
 6 -5.82582780688069 -1.98930541084108  1.29332033763376
 6  2.49020867776778  0.46429379757976 -2.52251686168617
 6  1.98828826122612  1.07730342234223  2.91606824842484
 6  1.34304767126713  0.92058870747075 -1.87077318331833
 6  4.24618996809681 -1.45317474657466 -2.14083371347135
 6 -5.81529586568657 -2.39504159455946 -1.97486093429343
 6  5.43595914691469 -1.08008975417542 -1.17073048994900
 6  3.10315041044104  1.08394679727973 -3.78829533873387
 6  0.46698912301230  1.97819296619662 -2.06336808190819
 6  3.06908554885489  1.81170075557556  3.63465881108111
 6 -0.59666349794980  2.25141977417742 -1.20443573147315
 6 -6.79311323782378 -3.30520428452845 -1.72156071477148
 6  6.55124469406941 -2.01453970907091 -1.27613830383038
 6 -1.43212186698670  3.42601483468347 -1.31138921362136
 6 -2.39220330973097  3.39218969796980 -0.24916282248225
 6 -2.15632790519052  2.09002993649365  0.41561049304931
 6 -1.22278225662566  4.59143540374037 -2.24910667866787
 6 -3.47087772427243  4.35058554145415  0.07554179387939
 6 -1.97159105030503  5.70858627682768 -2.32616634943494
 1 -3.48250674387439 -0.54544003390339  1.28744294889489
 1 -2.61324295069507 -3.28219334433443  1.01434178327833
 1 -3.11735155495550 -2.58376182058206  2.58407779647965
 1 -0.27926323112311 -2.87214597969797 -0.00828381838184
 1 -1.97688607830783 -0.51641794529453 -0.80549465186519
 1  2.20209817121712 -0.64067552135214  4.29985208430843
 1  2.68956628952895 -0.91918380968097  2.82774770417042
 1  2.77927674157416 -2.70572215511551  0.24800785398540
 1 -1.97082971227123 -1.22180145414542  4.68525558735874
 1 -0.44053382138214 -0.15473967756776  4.63597995449545
 1 -1.95771508530853  0.10770321702170  3.60272903820382
 1 -5.60396118331833 -1.15950408160816  1.95028932193219
 1 -5.81380014071407 -2.88487259185919  1.95476832313231
 1 -6.72074945174518 -1.95754139753975  0.73635999769977
 1  2.16009214861486  1.09100904280428  1.83444105540554
 1  1.06765671717172  1.60209245354535  3.04888286198620
 1  0.29296755435544  0.11984635443544 -0.14972700500050
 1  4.75368108730873 -1.08939199819982 -3.10677627952795
 1  3.93802463226323 -2.53348512771277 -2.13859096709671
 1 -5.79417155555555 -2.30872179677968 -3.16073953775378
 1  5.11365928722872 -1.26329680958096 -0.03024980128013
 1  5.72113355465547  0.00860386428643 -1.26308079057906
 1  3.79520943244324  0.44636112821282 -4.29563779327933
 1  3.59032478407841  2.06901798049805 -3.42014434983498
 1  2.49083487278728  1.35124962286229 -4.58062121412141
 1  0.59874378437844  2.65114661116112 -2.99099999199920
 1 -7.15174426052605 -3.66983916781678 -0.68027704890489
 1 -7.37538580348035 -3.71440277077708 -2.59426247974797
 1  3.94323805130513  3.29817917891789  3.52097535173517
 1 -0.42523640244024  4.55353663316332 -2.98416631203120
 1 -4.22994158375838  4.43031961376138 -0.68197934943494
 1 -3.84493324302430  3.95405019861986  1.06557736913691
 1 -3.27315563176318  5.52102239333933  0.10144591449145
 1  8.52160785428543 -1.86325948014801 -0.86054668966897
 1 -1.77350027462746  6.55993645074507 -3.07058191039104
 1 -2.84903725662566  6.06866824262426 -1.69046495399540

