%nproc=4
%Mem=3GB
# td=(NStates=1) B3LYP/SVP 

TD

0 1
 8 -3.37001391159116 -1.36412146764676 -2.88924957925793
 8  3.01133158795880  3.06417807630763  2.84537880878088
 8  3.23366767496750  1.63853098139814  4.71131557515752
 8  7.82781138403840 -1.43547966216622 -0.69931069286929
 8  6.63093725012501 -3.07523831873187 -1.93257970607061
 8 -2.67092799929993  1.67742323142314  1.47866792729273
 7 -0.29274502070207 -2.44049036333633  0.96179101990199
 7 -2.70254229222922 -1.23045818081808 -0.64319646424642
 7  1.12182373177318  0.03851476117612 -0.70163510071007
 7 -0.96276542204220  1.40036544444444 -0.15534643254325
 6 -3.40180533023302 -1.32371993439344  0.61099807370737
 6 -2.63004163026303 -2.35501964816482  1.64674998179818
 6 -1.19011465316532 -2.05820363436344  1.80422841144114
 6 -0.45270507280728 -1.25019621132113  2.76325434593459
 6  0.86839795239524 -1.17463246424642  2.44153534813481
 6  1.04197688388839 -1.96542297699770  1.24176898089809
 6 -4.79487443404340 -1.87625327402740  0.22409929722972
 6  1.95498008940894 -0.46914724432443  3.08899105360536
 6 -4.90599696109611 -2.07984669306931 -1.06315665616562
 6  2.10954891129113 -2.03586177837784  0.31459373807381
 6  2.11177719961996 -0.94777668986899 -0.70010391189119
 6 -3.57103177307731 -1.53728569386939 -1.75936321972197
 6  3.03554461766177 -0.66440718901890 -1.75235913481348
 6 -1.18279685188519 -0.42301615861586  3.80729623792379
 6 -5.85791101520152 -2.14656113641364  1.26468747434743
 6  2.56333599049905  0.44241160936094 -2.41578618861886
 6  2.18153758615862  1.00539623162316  2.41913855545555
 6  1.39895326182618  0.86823347194719 -1.82226833283328
 6  4.27610295939594 -1.50442987208721 -2.02502213231323
 6 -5.91002533863386 -2.49836192659266 -1.93148659685969
 6  5.52697824882488 -1.03774551975198 -1.21765518241824
 6  3.22655275067507  1.15030343294329 -3.63481999119912
 6  0.50395281938194  2.04645979287929 -2.03810555565557
 6  2.90215885618562  1.91385097059706  3.47480282548255
 6 -0.52603643524352  2.27591222342234 -1.17711299919992
 6 -7.13127705420542 -3.00176394049405 -1.61049960866087
 6  6.74372394199420 -1.97813606870687 -1.39358004800480
 6 -1.39636829162916  3.51535376857686 -1.21117919261926
 6 -2.36167025642564  3.35714619361936 -0.19092699889989
 6 -2.00601287368737  2.04482541604160  0.48931786378638
 6 -1.16518649704971  4.58120438063806 -2.14781654965497
 6 -3.43947458395840  4.16921740464046  0.33295753545355
 6 -1.84986887808781  5.76409182738274 -2.17119085188519
 1 -3.36702519571957 -0.47420291019102  1.16558076267627
 1 -2.78804043044304 -3.25617074207421  1.10122047114712
 1 -3.25658547834783 -2.25143858825883  2.61206059475948
 1 -0.37155246004600 -2.96078484358436 -0.04365735573557
 1 -2.13617200690069 -0.34468077157716 -0.58322242464246
 1  1.76699466086609 -0.14023547734773  4.18372047114711
 1  2.84414174707471 -1.02475436673667  3.09314424382438
 1  2.67638645254525 -2.84974655755576  0.14447750095010
 1 -1.50201283058306 -1.20414968896890  4.48990605240524
 1 -0.35811557955796  0.15005080148015  4.35799215571557
 1 -1.95947526132613  0.28278072477248  3.32794155945595
 1 -5.59288007520752 -1.66954508570857  2.22405669866987
 1 -6.11710047074707 -3.36474057865787  1.57960080638064
 1 -6.78340571737174 -1.58858450185018  0.83107946964696
 1  2.87900403980398  0.91830177207721  1.42150976227623
 1  1.12069202070207  1.70223246754675  1.96902487618762
 1  0.32513077067707  0.15335970577058 -0.14003603590359
 1  4.47795351455146 -1.65192825182518 -2.96467206910691
 1  4.03498432823282 -2.49679145834583 -1.78107521552155
 1 -5.88851098949895 -2.22094301890189 -2.93282674647465
 1  5.40060798209821 -0.80105058495850 -0.20972774907491
 1  5.78477991929193 -0.00327732383238 -1.64463894639464
 1  4.06068598009801  0.56556304840484 -4.12546077557756
 1  3.56375212681268  2.01987306600660 -3.16037837323732
 1  2.63592938223822  1.25431992989299 -4.35652880488049
 1  0.66816072607261  2.75867736423642 -2.86448734073407
 1 -7.37480656675668 -3.55193737763776 -0.73144216541654
 1 -7.98929719461946 -3.17107843834384 -2.34598765226523
 1  3.36187991549155  3.81770113111311  3.66483973817382
 1 -0.60821470027003  4.41350262976298 -2.94842273767377
 1 -4.31912050165016  4.31945852765277 -0.40783193469347
 1 -3.75529427912791  3.73315810941094  1.31600241164116
 1 -3.19419773597360  5.29868015911591  0.47185295519552
 1  8.46014170767077 -1.92068522272227 -0.90646128112811
 1 -1.51318424302430  6.39810026712671 -2.99970482268227
 1 -2.50605295819582  6.20011138693869 -1.39713562106211

