%nproc=4
%Mem=3GB
# td=(NStates=1) B3LYP/SVP 

TD

0 1
 8 -3.16668357855786 -1.31861691719172 -2.89907056135614
 8  3.01320177497750  3.17649930843084  3.25589986088609
 8  3.65337964616462  1.44398152645265  4.35490993459346
 8  7.65133373627363 -1.74671078527853 -0.61449221102110
 8  6.81108526492649 -2.79502029692969 -2.54811125922592
 8 -2.66614752125213  1.62875836493649  1.36435649614961
 7 -0.17099284548455 -2.28766508080808  0.98911375217522
 7 -2.56646868486849 -1.20121525652565 -0.61568371297130
 7  1.16216776617662  0.08662957265727 -0.68497343454345
 7 -0.97453659915992  1.49944535243524 -0.14515541344134
 6 -3.34233938363836 -1.37182474487449  0.67427440134013
 6 -2.63615224132413 -2.37804195039504  1.50667597439744
 6 -1.18763440514051 -2.10784859885989  1.84500248884888
 6 -0.58571837413741 -1.29494068576858  2.92038005850585
 6  0.71744285688569 -1.14797979897990  2.58941013561356
 6  1.07386007220722 -1.85484191889189  1.37277208120812
 6 -4.69528447504751 -1.83653930263026  0.29152603990399
 6  1.83146773817382 -0.44504483408341  3.36009816431643
 6 -4.72361872327233 -1.96421512991299 -1.07476781728173
 6  2.14913286968697 -1.84636282848285  0.36607888658866
 6  2.11836785868587 -0.87893980618062 -0.58191209270927
 6 -3.39405407530753 -1.48066003130313 -1.69908719211921
 6  2.99699076227623 -0.69404015231523 -1.78991289018902
 6 -1.25401397359736 -0.59190304730473  3.89796530483048
 6 -5.84453967806781 -2.09068554885489  1.26996800240024
 6  2.47720737763776  0.40240760896090 -2.35434004400440
 6  1.83422285468547  1.06622231423142  2.90653729532953
 6  1.43407677417742  0.90412706130613 -1.78387449344934
 6  4.17245259435944 -1.49922935203520 -2.09504913501350
 6 -5.77288162426243 -2.37484957535754 -1.99428287648765
 6  5.37773332433243 -1.30154189938994 -1.18996241314131
 6  2.97770786618662  1.12247064966497 -3.67406391559156
 6  0.50505292939294  1.95058020492049 -2.04039578467847
 6  2.89609825012501  1.83957354285429  3.56984232943294
 6 -0.56681051265127  2.28300293249325 -1.12156744464446
 6 -6.79588351485148 -3.09829359345935 -1.63046160486049
 6  6.66882645224522 -2.04916317141714 -1.49802049204920
 6 -1.50784943974397  3.43115534873487 -1.33414148884888
 6 -2.41384547394739  3.44428490749075 -0.24274218041804
 6 -2.05283755615562  2.15519645314531  0.45026395839584
 6 -1.28030800920092  4.51403766396640 -2.33363513151315
 6 -3.42367300380038  4.38297878077808  0.22099633933393
 6 -2.02053594479448  5.60277569576958 -2.48648238103810
 1 -3.34094258745875 -0.30770626052605  1.21705591019102
 1 -2.77936956335634 -3.36658178317832  0.95947629672967
 1 -3.09785960576058 -2.52945639003900  2.45964535323532
 1 -0.46995230003000 -2.77342610771077  0.18532554255426
 1 -1.83634202390239 -0.53163946744674 -0.58554265666567
 1  1.45849381078108 -0.54394584838484  4.30123222232223
 1  2.84126145904590 -0.99370126142614  3.24339926932693
 1  2.81407022092209 -2.65310689358936  0.56767982118212
 1 -1.97157978727873 -1.27470674467447  3.98235529732973
 1 -0.74694446244624 -0.23077728132813  4.74452080858086
 1 -1.83285259905991  0.27024947164716  3.43203196849685
 1 -5.93655444264426 -1.40549868106811  2.06870116311631
 1 -5.90202896359636 -3.26316042064206  1.50680352665266
 1 -6.81037841464146 -1.79780542394239  0.81078744044404
 1  2.02720886028603  1.22068201010101  1.81318893019302
 1  0.79727967946795  1.40204244854485  3.21008898259826
 1  0.19535779337934  0.55051942174217 -0.16104813711371
 1  4.53685940514051 -1.34971803080308 -3.20893649554955
 1  3.60324115391539 -2.56360814001400 -2.09274638263826
 1 -5.95322746114611 -2.10755167976798 -3.14066753055306
 1  5.04535245654565 -1.82686316621662 -0.12701947824783
 1  5.55651709300930 -0.23314031013101 -1.03518800130013
 1  3.87257716921692  0.41960845294529 -4.14701293079308
 1  3.31261701330133  2.12520359905991 -3.75609794519452
 1  2.36726251555155  1.13940843874387 -4.52169532153215
 1  0.68599250925092  2.49512100860086 -2.80581147314731
 1 -6.81071015711571 -3.71949413331333 -0.61394041524152
 1 -7.47014527942794 -3.24763609410941 -2.47500055355536
 1  3.84287801530153  3.37830719171917  3.86506976117612
 1 -0.42069594839484  4.34280556005601 -2.95916381178118
 1 -4.22937152675268  4.52824940674067 -0.56381753325333
 1 -3.74344309400940  3.86732152575257  1.20282109350935
 1 -2.99824814101410  5.42383267436744  0.49367513741374
 1  8.46757245074507 -2.19255240944094 -0.83850448544855
 1 -1.84509743434343  6.27118757585759 -3.36051090329033
 1 -2.95696804970497  5.72815419121912 -1.95613152065207

