%nproc=4
%Mem=4GB
# td=(NStates=1) B3LYP/SVP 

TD

0 1
 8 -5.22572880288029 -0.05027958835884 -3.30415020472047
 8  3.25207521302130  2.81020827552755  3.06498257665767
 8  3.37617596619662  0.62831823082308  2.98397028212821
 8  1.37897553705371 -7.21397766786679  1.40967947424742
 8  0.60825571357136 -7.13158958255825 -0.67642562546255
 8  1.76211325942594  4.10070319311931  0.09936944434443
 7 -2.31989160026003 -0.97998642884288  0.62240925752575
 7 -4.28658353975398  0.55854352085209 -1.27964631943194
 7  1.81670206180618 -0.75085665866587 -0.31660013761376
 7  2.49382492439244  1.92912865836584 -0.45258200490049
 6 -4.69087547874787  1.19277077407741 -0.07844204440444
 6 -4.33408080088009  0.37415758105811  1.24962231993199
 6 -2.85469056465647  0.01939219591959  1.43819583258326
 6 -1.87881697839784  0.58513347054705  2.31091426102610
 6 -0.63986059635964  0.01068563306331  2.02144282188219
 6 -0.92306649444944 -0.95025808470847  0.90152197159716
 6 -6.22900525662566  1.40691848114811 -0.21496671207121
 6  0.64747335393539  0.21846252275227  2.72728174827483
 6 -6.50991150565056  0.77428667706771 -1.41132686138614
 6 -0.27243349944995 -1.94332306920692  0.17894997649765
 6  1.12519941614161 -1.86219576617662 -0.19935151735174
 6 -5.27825842614261  0.34381259595960 -2.10053736523652
 6  1.92491657685769 -2.96253679207921 -0.84570157945795
 6 -2.21347704860486  1.80251600850085  3.25585997619762
 6 -7.06692418561856  2.06199432863286  0.88810279617962
 6  3.18520485418542 -2.34430438163816 -1.22013325842584
 6  1.20862688998900  1.68983747714771  2.64745838173817
 6  3.02968104340434 -0.93007163276328 -0.94777876607661
 6  1.43523729392939 -4.37221318571857 -0.95768748564856
 6 -7.76634254025403  0.73441507910791 -2.05430381818182
 6  1.60074764036404 -5.16903783838384  0.39834583008301
 6  4.36658226722672 -3.01398986778678 -1.85332456375638
 6  3.82102297289729  0.20659006250625 -1.33942862526253
 6  2.69395001620162  1.65766335453545  2.85701160106011
 6  3.57817219501950  1.59392480398040 -1.10085665296530
 6 -8.99799478287829  0.73460562086209 -1.51492630793079
 6  1.12474753945395 -6.53972062226223  0.27822648164816
 6  4.44272310691069  2.70552730763076 -1.53389047214721
 6  3.81202047044704  3.79063958765877 -1.16924821912191
 6  2.52096366716672  3.28420627172717 -0.44297306000600
 6  5.77133073837384  2.59077391799180 -2.23602555765577
 6  3.93629924972497  5.34118899469947 -1.27592960636064
 6  6.62392244984498  3.66831251605160 -2.49939441634163
 1 -4.03821830793079  2.19838091819182 -0.08232519221922
 1 -4.69011366826683 -0.73105458155816  0.94036878107811
 1 -4.91017785768577  0.85933993369337  2.06177308700870
 1 -2.70112915281528 -1.54927232273227  0.03502658085809
 1 -3.26470746804680  0.63374529162916 -1.31669922082208
 1  0.64050848554855 -0.20487017501750  3.71599114721472
 1  1.28790279967997 -0.34713938133813  1.90542567536754
 1 -0.62180084098410 -2.83123058805881 -0.11397639533953
 1 -3.17087723302330  1.77511877597760  3.57708769846985
 1 -1.76783799889989  1.65495485938594  4.19243763166317
 1 -1.81791817291729  2.68253207300730  2.84623204500450
 1 -6.31128457935794  2.50156896039604  1.64580681368137
 1 -7.69390915791579  1.25353516271627  1.53265027572757
 1 -7.60766670387039  2.92475855895590  0.54014249444944
 1  0.95570827922792  2.03732576917692  1.75791385868587
 1  0.70958407090709  2.25111193319332  3.32072789698970
 1  1.73748807520752  0.11646229122912 -0.10116548184818
 1  1.93577136933693 -4.90650448084808 -1.84975958565857
 1  0.44938673617362 -4.41962180968097 -1.31757024042404
 1 -7.66581764356436  0.65989622022202 -3.15090102830283
 1  0.83154534343434 -4.60922210191019  0.94349192579258
 1  2.66755302540254 -5.29149635413541  0.81026884178418
 1  4.22540760306031 -4.07362481468147 -2.21264472557256
 1  5.15293639203920 -2.97719656985699 -1.11420503810381
 1  4.73178461156116 -2.35469770237024 -2.65570464406441
 1  4.82827244674468  0.08923682918292 -1.92343851955196
 1 -9.40762436293629  0.83399085458546 -0.51437412721272
 1 -9.82998113171317  0.66265768146815 -2.21035713571357
 1  4.13835852235224  2.69631301500150  3.38904367006701
 1  6.01472494069407  1.54636678587859 -2.28651746674667
 1  4.80539123892389  5.67453021722172 -0.49399801970197
 1  4.05941796429643  5.49343610931093 -2.31764430933093
 1  3.01880955055506  5.77343695009501 -0.81454319591959
 1  0.77316462456246 -8.01310246734674  1.21210726562656
 1  7.55781822622262  3.49338487838784 -2.86901417471747
 1  6.15457734523452  4.57839335153515 -2.27723007550755

