%nproc=4
%Mem=4GB
# td=(NStates=1) B3LYP/SVP 

TD

0 1
 8 -5.42753898389839 -0.18982354275428 -3.12996278597860
 8  3.03455346084608  2.86969422412241  3.14669074747475
 8  3.53787213581358  0.80013541254125  2.63761564666467
 8  1.68785642514251 -7.09529579967997  1.59561806810681
 8  0.94156904490449 -7.27513393699370 -0.52305028792879
 8  1.66253330143014  3.98701182398240 -0.03398389098910
 7 -2.34729434053405 -0.89527795799580  0.56843385998600
 7 -4.46248112951295  0.47043470997100 -1.18487684248425
 7  1.74823521512151 -0.62451402440244 -0.43998247584758
 7  2.54041958385839  1.94139988548855 -0.40984773147315
 6 -4.74069046024602  1.14006550355036  0.05283108290829
 6 -4.45578297109711  0.17397756305631  1.25555291299130
 6 -3.03456855245525  0.02937319401940  1.33958597159716
 6 -1.91890098679868  0.55720067726773  2.11498466806681
 6 -0.78505511581158 -0.06146158165817  1.79249992759276
 6 -1.01617580538054 -1.04783784268427  0.85551737113711
 6 -6.32570492659266  1.45712350165017 -0.20742595799580
 6  0.59253786038604  0.20184086058606  2.47370639073907
 6 -6.77545806030603  1.02757200560056 -1.37319304800480
 6 -0.22939919601960 -2.00540927782778  0.18304038553855
 6  1.07485438163816 -1.82598214481448 -0.32357393959396
 6 -5.49872047234723  0.38728694339434 -2.07400471197120
 6  1.90819490469047 -2.84824536293629 -0.86871388068807
 6 -2.14023972487249  1.59941569846985  3.21156554675468
 6 -7.04204169736974  2.19536766596660  0.88439242514251
 6  3.11641797549755 -2.26743669486949 -1.26576782188219
 6  1.21676770407041  1.67074556795680  2.39370300620062
 6  2.98402647794779 -0.92382100770077 -1.02153614181418
 6  1.60055382558256 -4.30996696109611 -1.04901661856186
 6 -7.98237414341434  0.91004264186419 -1.96943533133313
 6  1.74346191179118 -5.07234816941694  0.27520351585159
 6  4.35081069006901 -2.94274274307431 -1.77030626192619
 6  3.89965083568357  0.08583798729873 -1.27408209060906
 6  2.62905352655265  1.63404099229923  2.77920382028203
 6  3.67062143994399  1.56861227272727 -0.98134470177018
 6 -9.24425940934093  1.08359051935194 -1.42467728302830
 6  1.40274533923392 -6.61900855105511  0.30813947294729
 6  4.56328516311631  2.63429018391839 -1.45223230633063
 6  3.83404267266727  3.73507403110311 -1.10179147344734
 6  2.62761433223322  3.27807565866587 -0.53647240994099
 6  6.00070367566757  2.46344118471847 -1.82525448054805
 6  4.24164978477848  5.18958383418342 -0.97171918531853
 6  6.72221227882788  3.42615830063006 -2.35084956185619
 1 -4.03845833193319  2.07878895899590  0.25524856515652
 1 -5.01364602150215 -0.81622309840984  1.15293003720372
 1 -4.74225106500650  0.60399439913991  2.25354226392639
 1 -2.97974701460146 -1.24195159065907 -0.14735165696570
 1 -3.53129412671267  0.41818373547355 -1.77073462436244
 1  0.55027946264626 -0.16444613261326  3.50401995009501
 1  1.27004101350135 -0.47862252965297  1.92794792759276
 1 -0.87042570347035 -2.91867933293329 -0.00467546524652
 1 -3.19906005130513  1.53838510261026  3.47342733243324
 1 -1.65700691579158  1.41440080398040  4.11810019791979
 1 -1.87748412951295  2.63742756255626  2.72279970177018
 1 -6.37056050695069  2.84608341184118  1.38930116311631
 1 -7.72330209720972  1.44700450965097  1.44971198189819
 1 -7.87713365056506  2.98382446554655  0.52207068726873
 1  1.13408611701170  2.00292232883288  1.49694776207621
 1  0.60831394389439  2.43753057505751  3.00645646984698
 1  1.41243556995700  0.31184182918292 -0.26301166646665
 1  2.08523631583158 -4.59374320472047 -1.90629523922392
 1  0.53454525202520 -4.32256210371037 -1.43014149754975
 1 -7.93597465926593  0.66275650625063 -3.09488542674267
 1  1.12432462136214 -4.51834301400140  1.05219279587959
 1  2.81275754585459 -4.97276448094810  0.56017383228323
 1  4.01840690299030 -3.87317476967697 -2.14510797189719
 1  5.27539863826383 -3.06181503170317 -1.12018563616362
 1  4.70937237033703 -2.42208444104410 -2.77692676627663
 1  4.92016163566357 -0.06043813831383 -1.75441161686169
 1 -9.47998159865987  1.34416187168717 -0.47686037583758
 1 -10.18024615821582  0.60570198589859 -2.12091819181918
 1  4.01894658115812  2.76817020072007  3.17029179487949
 1  6.36321979017902  1.28434058325833 -1.71140995599560
 1  5.00152085188519  5.36478924312431 -0.30275889578958
 1  4.80288231073107  5.45529229492949 -1.95960850575057
 1  3.42194986458646  5.90340994739474 -0.86813855545555
 1  1.81907921602160 -8.14659581668167  1.51825788068807
 1  7.61098354275428  3.20147568746875 -2.79563683698370
 1  6.67914980248025  4.50966647884788 -2.27198955145515

