%nproc=4
%Mem=4GB
# td=(NStates=1) B3LYP/SVP 

TD

0 1
 8 -5.42093832383238  0.09329476907691 -3.30519030873087
 8  3.03416342184218  2.92546980168017  3.04110018841884
 8  3.27070541914191  0.69972537153715  3.12229411451145
 8  1.51157879737974 -7.24563083318332  1.45575408170817
 8  0.52082697069707 -7.06063248684868 -0.52653063596360
 8  1.64698174627463  3.99414253705371  0.10556006340634
 7 -2.29558917001700 -0.98417684788479  0.53811082768277
 7 -4.35275015641564  0.63272093859386 -1.30951930673067
 7  1.80149054065407 -0.65649722272227 -0.46346482408241
 7  2.54288983088309  1.94486023152315 -0.55202194889489
 6 -4.69949634083408  1.22345384238424 -0.08142234243424
 6 -4.34559195199520  0.26445661096110  1.22093945164516
 6 -2.93495859145915 -0.01406114941494  1.36516852985299
 6 -1.97135623232323  0.61386634383438  2.23255642524252
 6 -0.74397100740074 -0.03924936043604  1.89617029462946
 6 -0.87578176597660 -1.02278533743374  0.86506832623262
 6 -6.16383873997400  1.36017380668067 -0.16089130453045
 6  0.59606821342134  0.23281395789579  2.59757877797780
 6 -6.72307282178218  0.82527177557756 -1.32821855055506
 6 -0.19297555365537 -1.97928666556656  0.16406848834883
 6  1.09255615181518 -1.79969951655165 -0.31382296449645
 6 -5.45962656295630  0.43623183788379 -2.15911322282228
 6  1.95154924012401 -2.90581111951195 -0.87248425772577
 6 -2.14612031293129  1.57987374427443  3.28086247644764
 6 -6.95093258645865  2.06321445064506  0.91378536443644
 6  3.14628096179618 -2.35570552175218 -1.23004424952495
 6  1.12387841514151  1.61219971337134  2.47366100200020
 6  3.02105018031803 -0.90629925552555 -1.03000698889889
 6  1.61936570677068 -4.37750371477148 -0.84924664156416
 6 -7.99091499749975  0.70281191879188 -1.95747413521352
 6  1.90592815841584 -5.06859779437944  0.32809880538054
 6  4.42269787878788 -2.92762123092309 -1.85705493679368
 6  3.92888375897590  0.16094549804981 -1.36572125452545
 6  2.60998161936194  1.68382597079708  2.96888278817882
 6  3.65374975277528  1.53538895039504 -1.20385695299530
 6 -9.25657064046405  0.76902906320632 -1.45134995029503
 6  1.24715978067807 -6.54990164036404  0.28738739773977
 6  4.57192602720272  2.70733748864886 -1.44759184228423
 6  3.91114038243824  3.80538106180618 -0.96068736303630
 6  2.53764533533353  3.39592744384438 -0.44698346104610
 6  5.80957456275628  2.42517735833583 -2.13190514561456
 6  4.32645826562656  5.22178705450545 -1.13875588898890
 6  6.66948700630063  3.38664434923492 -2.54804928182818
 1 -4.06935142124212  2.29192027212721 -0.01882884258426
 1 -4.76630128702870 -0.70951242734273  0.95390013421342
 1 -4.78940578047805  1.01207520722072  2.13703061276128
 1 -2.60131917181718 -1.70447784328433 -0.10741766356636
 1 -3.47133813111311  0.62269418651865 -1.58310586148615
 1  0.70228466316632 -0.15373506150615  3.61197074517452
 1  1.48628263766377 -0.42348701610161  1.96900203300330
 1 -0.56634529542954 -2.94461192619262 -0.04785978367837
 1 -3.32715286058606  1.93106437053705  3.31029101880188
 1 -1.65321653675368  1.34115347924792  4.30874926282628
 1 -1.76231261236124  2.63365718551855  3.12030945274527
 1 -6.23831728262826  2.92610141364136  1.28197043004300
 1 -7.20923069006901  1.36231604080408  1.78941595229523
 1 -7.95910184738474  2.54692077517752  0.82787126732673
 1  1.28277098549855  2.22531456805681  1.54871293859386
 1  0.69233234573457  2.39754657665767  3.22025784998500
 1  1.87526185258526  0.40812145714571 -0.33997936323632
 1  2.34778257045705 -4.97130096049605 -1.67960256995699
 1  0.64785658315832 -4.61963181068107 -1.31055953935394
 1 -7.74891595339534  0.49580981158116 -3.05283122132213
 1  1.38822101100110 -4.59294047374738  1.21801937853785
 1  3.00080635073507 -5.08998620312031  0.91536935183518
 1  4.34131919421942 -3.93631108330833 -2.22985644674467
 1  5.18048914731473 -3.14806365656566 -1.07348096569657
 1  4.79374080718072 -2.11662389498950 -2.61962103570357
 1  4.78354797429743 -0.09402149664967 -1.83416959265927
 1 -9.36645024552455  0.87722517801780 -0.35946863666367
 1 -10.15063319691969  0.49177059275928 -2.02395849584959
 1  4.03823851035103  3.08989237293729  3.22422718841884
 1  6.11678514671467  1.52034418361836 -2.29217803280328
 1  5.31261196099610  5.37684044824482 -0.75765438533853
 1  4.21421344384438  5.67903466916692 -2.24424696959696
 1  3.71438910851085  5.94969457585759 -0.27528927052705
 1  1.00236754485449 -8.01857301440144  1.57288334323432
 1  7.60798324272427  3.10196573647365 -3.08071534483448
 1  6.32189407690769  4.50457596979698 -2.61711406390639

