%nproc=4
%Mem=3GB
# td=(NStates=1) B3LYP/SVP 

TD

0 1
 8 -3.22177908810881 -1.53180823632363 -2.92443309760976
 8  3.13728418321832  3.27865952445245  3.31398566946695
 8  3.65817012521252  1.43416054435444  4.54770921452145
 8  7.61438004090409 -1.88171428562856 -0.70285104690469
 8  6.63587774417442 -3.05277607250725 -2.42424887298730
 8 -2.51660256675668  1.47260274937494  1.49034909540954
 7 -0.21183692989299 -2.30015632993299  0.86075091589159
 7 -2.55835787378738 -1.28343347834783 -0.66429857445745
 7  1.16553810321032  0.13882479217922 -0.71361629882988
 7 -0.99094824032403  1.46925233313331 -0.33398429632963
 6 -3.28891404110411 -1.28861642404240  0.56587356125613
 6 -2.58489711581158 -2.30976512271227  1.67527283408341
 6 -1.22465810751075 -1.93069088308831  1.81904989358936
 6 -0.57281708400840 -1.16646783848385  2.90159818031803
 6  0.80593170577058 -1.07733273427343  2.51501269586959
 6  0.96754944114411 -1.79084551925193  1.29291409540954
 6 -4.64046899349935 -1.88237388608861  0.24095098239824
 6  1.82791738313831 -0.32174250385038  3.23382553705371
 6 -4.71415777717772 -1.96973568196820 -1.15781612211221
 6  2.08861681808181 -1.79575776797680  0.41168344704470
 6  2.11118714061406 -0.80044195639564 -0.61222512401240
 6 -3.41648631853185 -1.62635460076008 -1.73230051345134
 6  3.07971903510351 -0.67560830913091 -1.75325922482248
 6 -1.31390996319632 -0.45332918991899  3.97661316961696
 6 -5.84135936003600 -1.96846332663266  1.23256426202620
 6  2.61815147204720  0.50563793199320 -2.48825343534353
 6  1.80113954635464  1.18635432743274  2.96303294489449
 6  1.42390575707571  1.00267691629163 -1.72331843784378
 6  4.15115046414641 -1.61094052315232 -2.07328695879588
 6 -5.77264160026003 -2.48810090049005 -2.07138058625863
 6  5.47367291829183 -1.23571531673167 -1.22416583348335
 6  3.28039813521352  1.08746714931493 -3.75464197339734
 6  0.50106253035304  1.96113126002600 -2.12583432853285
 6  2.98294693499350  1.87331691719172  3.73428877407741
 6 -0.60308414001400  2.35796042824282 -1.35950123802380
 6 -6.85717964446445 -3.20018378247825 -1.71842040074007
 6  6.62474204380438 -2.19262751785178 -1.52801349134914
 6 -1.53779243404340  3.47240947414741 -1.20707878257826
 6 -2.41366545594559  3.36938741774177 -0.16766467266727
 6 -1.95409768216822  2.06414734823482  0.44775370737074
 6 -1.53164314271427  4.58382464266427 -2.11791355935594
 6 -3.52593322982298  4.27635811871187  0.21094533423342
 6 -2.17073096429643  5.73510892909291 -2.16395012781278
 1 -3.46723521672167 -0.32200769066907  1.06827103170317
 1 -2.45498712511251 -3.39034415941594  1.26407675677568
 1 -3.19333915371537 -2.28603204760476  2.68017740644064
 1 -0.34020932573257 -2.68152691779178  0.01040805080508
 1 -1.98594698439844 -0.37697400090009 -0.76916101850185
 1  1.63509147054706 -0.44350580438044  4.48849094819482
 1  2.76710404330433 -0.75212710401040  2.83680861026103
 1  2.70993980788079 -2.62185376827683  0.43951700490049
 1 -1.86068869816982 -1.03773304730473  4.50412747454745
 1 -0.74038380638064 -0.03781798539854  4.50561691819182
 1 -1.89384869866987  0.35379782648265  3.50068883418342
 1 -5.73601438863886 -1.23483161436144  1.94454874787479
 1 -5.76606536723672 -3.06728083268327  1.69425227152715
 1 -6.75347272407241 -1.77561320472047  1.00380674237424
 1  1.96832297169717  1.43050299219922  1.71447905920592
 1  0.78616856835684  1.60329257355736  3.25152312601260
 1  0.12233049064906  0.30044441424142 -0.18484051635164
 1  4.71720743994399 -1.50660371937194 -3.04399000090009
 1  3.97741857165717 -2.67123890309031 -1.87673478147815
 1 -5.40629276767677 -2.31763268786879 -3.09369283308331
 1  5.11341926322632 -1.31240172007201 -0.19177595389539
 1  5.69373081438144 -0.16746374247425 -1.24831931443144
 1  3.90728063956396  0.44559105120512 -4.47350558005801
 1  3.95472122372237  2.02576365506551 -3.45672800820082
 1  2.23562935223522  1.44650914881488 -4.34422757475747
 1  0.61383529352935  2.40487198369837 -3.02399329132913
 1 -6.86103518961896 -3.49079126302630 -0.66293531473147
 1 -7.56846511141114 -3.45548687918792 -2.53064611811181
 1  3.70398412591259  3.74388374937494  3.92331558575858
 1 -0.65552943174317  4.45428670817082 -2.98940683608361
 1 -4.31610019961996  4.45162174397440 -0.64407555905591
 1 -3.72659140884088  3.95826061966197  1.28953976537654
 1 -3.27053536973697  5.24799509060906  0.12272804270427
 1  8.22156785028503 -2.73691684588459 -0.70097073207321
 1 -2.21091401600160  6.42563302040204 -3.14312916511651
 1 -2.92837519041904  6.09568094389439 -1.41342725022502

