%nproc=4
%Mem=3GB
# td=(NStates=1) B3LYP/SVP 

TD

0 1
 8 -3.25545245544554 -1.40895595109511 -2.87519817411741
 8  2.77427788258826  3.30114177267727  3.33773804470447
 8  3.64265857405741  1.43799092739274  4.37192163576358
 8  7.71547014991499 -1.54797091129113 -0.74803556535654
 8  6.81251540794079 -3.02645344024402 -2.16323277137714
 8 -2.54855576207621  1.65940142924292  1.51164122462246
 7 -0.28417416361636 -2.36345265956596  0.85256009680968
 7 -2.64623666166617 -1.29283441844184 -0.58919106370637
 7  1.11460300970097  0.08928983868387 -0.76110104730473
 7 -1.07506665216522  1.45898130603060 -0.19942083998400
 6 -3.40572572227223 -1.39241680408041  0.61345831973197
 6 -2.68255688178818 -2.29781392759276  1.58231353815382
 6 -1.23874951665167 -2.04316213021302  1.87458544714471
 6 -0.52941274357436 -1.22831402310231  2.83669168966897
 6  0.81870298289829 -1.15617061806181  2.46121731633163
 6  0.95860854705471 -1.87441387608761  1.24589939393939
 6 -4.66022096869687 -1.95514116281628  0.29447633493349
 6  1.94312890429043 -0.34295462506251  3.05456761126113
 6 -4.76111247264726 -2.06100480888089 -1.14573491399140
 6  1.99368732513251 -1.97453564576458  0.22855513421342
 6  2.01910793269327 -0.96588850105011 -0.71682558405841
 6 -3.52584725462546 -1.57182914821482 -1.69097638103810
 6  2.94693575677568 -0.73153390169017 -1.87955185408541
 6 -1.26654522672267 -0.59843370037004  3.99244475277528
 6 -5.77369259335934 -2.15774225452545  1.29932093769377
 6  2.58309796669667  0.44113148134813 -2.46276088608861
 6  1.86687612001200  1.20134582658266  2.79207584918492
 6  1.32264563106311  0.89398604720472 -1.82249835583558
 6  4.19117446654665 -1.51857128622862 -2.15371500160016
 6 -5.86061039713971 -2.52036412681268 -1.92841628982898
 6  5.44513006400640 -1.28456020122012 -1.13988740564056
 6  3.03948404380438  1.19236763936394 -3.67461397059706
 6  0.57786021012101  2.02019716661666 -2.04169591469147
 6  2.83750239053905  1.98153773927393  3.57207255245525
 6 -0.56800063166317  2.34996962916292 -1.18793408130813
 6 -6.92779670617062 -3.31350511461146 -1.78971753045305
 6  6.62434200380038 -2.10208846394639 -1.36107679767977
 6 -1.39441809660966  3.54462669586959 -1.19486756145615
 6 -2.18074216361636  3.49407988698870 -0.12661056725673
 6 -2.05024729712971  2.19532046554655  0.57980691269127
 6 -1.09223920232023  4.52662892309231 -2.19526129412941
 6 -3.29150978747875  4.46888737163716  0.23630787048705
 6 -1.83005689688969  5.55329074727473 -2.39047278007801
 1 -3.42166065926593 -0.40325581548155  1.14601880648065
 1 -2.56639826622662 -3.30373549854985  1.18634898399840
 1 -3.19832965276528 -2.19717316171617  2.67441683038304
 1 -0.51192649744974 -2.78782754785479 -0.05984897489749
 1 -1.91446983668367 -0.57044334783478 -0.70653475587559
 1  1.98032599399940 -0.36741819561956  4.20313241234123
 1  2.90419775267527 -0.59940183148315  2.81883681308131
 1  2.78523733763376 -2.63649523242324  0.25363841704170
 1 -1.99945257455746 -1.32006128012801  4.54981204300430
 1 -0.54977474547455 -0.02239644324432  4.69998635513551
 1 -1.91331064486449  0.15403785048505  3.46534529982998
 1 -5.70364115131513 -1.43278140934093  2.16459075207521
 1 -5.90718947964796 -3.27770187478748  1.70536338263826
 1 -6.72818019481948 -1.89850549394939  0.95452181388139
 1  2.24837097649765  1.40481042294229  1.79117672897290
 1  0.97732768426843  1.62746499079908  3.03169114281428
 1  0.29045730333033  0.26010037983798 -0.09953198549855
 1  4.60762648184819 -1.27650070907091 -3.17290289218922
 1  4.04347517731773 -2.50645242444244 -2.16428353635364
 1 -5.50118225662566 -2.05728665326533 -2.89015247904790
 1  5.07073499479948 -1.41979245914591 -0.12378915521552
 1  5.70107154845485 -0.09411640774077 -1.28024250675067
 1  3.98151806330633  0.83590008210821 -4.29177740724072
 1  3.12877862946295  2.27607868656866 -3.35351768716872
 1  2.34932072137214  1.20061455935594 -4.55424857685769
 1  0.70216412641264  2.67064856135613 -2.98558945094509
 1 -7.06353543964396 -3.79690187408741 -0.77680670187019
 1 -7.59320758565857 -3.49264059455946 -2.56334938843884
 1  3.44061778927893  3.52362172317232  4.07965121932193
 1 -0.28603248204821  4.26568784828483 -2.76742463786379
 1 -4.23194178377838  4.56677325912591 -0.33015416691669
 1 -3.76931568126813  4.20800559415942  1.29485029642964
 1 -2.76331464766477  5.42413270437044  0.40846661656166
 1  8.50902659615962 -2.39788294249425 -0.85382601760176
 1 -1.52142506710671  6.62726318341834 -3.06790164236424
 1 -2.90734308720872  5.81845322112211 -1.71586749424943

