%nproc=4
%Mem=4GB
# td=(NStates=1) B3LYP/SVP 

TD

0 1
 8 -5.40927715771577  0.04262970257026 -3.33319310901090
 8  3.04616462196220  2.94656191089109  3.48857493589359
 8  3.34069241784178  0.75564096309631  3.07315920102010
 8  1.67129476897690 -7.20647691779178  1.43519202550255
 8  0.63735862386239 -7.05112153575358 -0.49938792169217
 8  1.66961400950095  3.93022614541454  0.01741124852485
 7 -2.27067667876788 -0.81105953615362  0.54728174477448
 7 -4.35876075747575  0.55371303780378 -1.29049740454045
 7  1.82713310491049 -0.72088366136614 -0.44465294289429
 7  2.69628517041704  1.88057380288029 -0.42302904960496
 6 -4.76569296049605  1.20753225022502 -0.01120532073207
 6 -4.39577697049705  0.32323248854885  1.23311066876688
 6 -2.98345344094409  0.02013226992699  1.37179919291929
 6 -1.93695279197920  0.61664662186219  2.19227239683968
 6 -0.73999060936094  0.06585114961496  1.85422610021002
 6 -0.97158134593459 -0.98935199409941  0.81048286768677
 6 -6.27287964406441  1.30385817511751 -0.13705892129213
 6  0.57680628722872  0.15675635213521  2.59394841494149
 6 -6.74987550205021  0.87099634803480 -1.31529725842584
 6 -0.15822207830783 -1.89494823172317  0.09626170767077
 6  1.11932882908291 -1.83581312791279 -0.35587716991699
 6 -5.47744834513451  0.45161337603760 -2.13483079457946
 6  1.91478556375638 -2.97080761916192 -0.88752576187619
 6 -2.17187288818882  1.76809256615662  3.20796518671867
 6 -6.97205469866987  1.90466859605961  0.96989097499750
 6  3.16153248694869 -2.39251920312031 -1.28025927102710
 6  1.09080510781078  1.67786628002800  2.51753538943894
 6  3.06039411471147 -0.92885151075108 -1.02677666586659
 6  1.52391616181618 -4.35783174757476 -1.00395211211121
 6 -7.96240214621462  0.81702333993399 -1.98320670847085
 6  1.80172773837384 -5.10921185578558  0.34767076257626
 6  4.38145375437544 -2.93187165596560 -1.88284751605161
 6  3.89573044364436  0.06685608910891 -1.44740942334233
 6  2.55428604980498  1.68617620582058  3.08128402830283
 6  3.75133951175118  1.45722113361336 -1.16113268056806
 6 -9.21399638303830  0.80595275557556 -1.46621143644364
 6  1.27951301600160 -6.53329998019802  0.33182184118412
 6  4.56883571817182  2.64258101300130 -1.54336141924192
 6  3.99623889228923  3.71160168386839 -1.05195648994899
 6  2.64793636443644  3.30410826192619 -0.44869363206321
 6  5.76555016031603  2.50037487808781 -2.26952890799080
 6  4.15868148794879  5.18292316811681 -1.18139015241524
 6  6.68089814741474  3.44237992279228 -2.55428990589059
 1 -4.15882036813681  2.15246632673267  0.04402744304430
 1 -4.87221187808781 -0.58440991709171  1.26014075827583
 1 -4.71989882978298  0.81060506020602  2.10041695139514
 1 -2.73225226512651 -1.25721311681168 -0.25249217101710
 1 -3.36843784108411  0.52528444554455 -1.65962351325133
 1  0.53051748644864 -0.10513020102010  3.57418696679668
 1  1.30683469286929 -0.40566523392339  1.90736586938694
 1 -0.72771143204320 -2.87124458945895  0.18106310861086
 1 -3.13740388568857  2.02468373247325  3.20994098379838
 1 -2.08951016611661  1.52663202710271  4.26700508840884
 1 -1.71282766386639  2.70411423122312  2.86075349714971
 1 -6.26776022692269  2.57363616711671  1.56097833083308
 1 -7.32731249824982  1.14075388458846  1.62124913561356
 1 -7.96068200540054  2.64797088018802  0.61086956715672
 1  1.31171387978798  2.07641967856786  1.46634470177018
 1  0.63921703420342  2.27504432643264  3.31534735893589
 1  1.39771409780978  0.18375902090209 -0.29783514881488
 1  2.03886167836784 -4.99332316271627 -1.68036264596460
 1  0.39064086158616 -4.17572742024202 -1.06025450885089
 1 -7.66061712351235  0.72893312391239 -3.13743968216822
 1  1.45127731663166 -4.55892707240724  1.13323089968997
 1  2.83827009710971 -5.07318452295230  0.44640245514551
 1  4.40585564786479 -4.05920337253725 -2.07705116621662
 1  5.19421051945195 -2.77456630683068 -1.07006062366237
 1  4.67271870497050 -2.53142537513751 -2.74717379097910
 1  5.07742736223622 -0.19869196369637 -1.72567874357436
 1 -9.35317891839184  1.08508596409641 -0.31062375217522
 1 -10.38287642124212  0.80078149384939 -2.12200830083008
 1  3.94250893739374  2.87436081978198  3.59390415611561
 1  5.90186365456546  1.46193834303430 -2.59657847284728
 1  4.94282498229823  5.67414017821782 -0.43435205510551
 1  4.04385640814081  5.50530729642964 -2.18300084498450
 1  3.23668133773377  5.64237384378438 -0.69655139673967
 1  1.22946025412541 -7.95788694579458  1.37384343924393
 1  7.60296274067407  3.29144468436844 -2.99906718001800
 1  6.61251313881388  4.41105661786179 -2.00300265276528

