%nproc=4
%Mem=3GB
# td=(NStates=1) B3LYP/SVP 

TD

0 1
 8 -3.15353226342634 -1.15382043754375 -2.81979263356336
 8  3.01650210501050  3.10736239473947  3.37889216011601
 8  3.72533684188419  1.29548667696770  4.39184362796280
 8  7.78215681858186 -1.59795590979098 -0.77658842064206
 8  6.65360951735174 -3.19042983788379 -1.96512296039604
 8 -2.68639954645465  1.50429591869187  1.42124218471847
 7 -0.15793153935394 -2.42058837313731  1.02554739553955
 7 -2.74101613961396 -1.04109924492449 -0.66293843844384
 7  1.12951450085009  0.05464637433743 -0.69581451865187
 7 -1.02054119961996  1.51399680758076 -0.24675557345735
 6 -3.30610576027603 -1.28579614201420  0.65535250915092
 6 -2.55490411651165 -2.34172831903190  1.51567687448745
 6 -1.16574221592159 -1.96572438643864  1.83001098969897
 6 -0.48529833213321 -1.09124031573157  2.72199021952195
 6  0.80872198479848 -1.12504750575058  2.48623981858186
 6  1.03974666086609 -1.82616905160516  1.30472527652765
 6 -4.77306225282528 -1.86522217091709  0.27315420272027
 6  1.83784837623762 -0.41351168076808  3.26100825532553
 6 -4.78186454785479 -1.98217692609261 -1.06594693519352
 6  2.08974693109311 -1.91543973617362  0.31711399009901
 6  2.18230425232523 -0.93103501570157 -0.67861176267627
 6 -3.54370904080408 -1.45285725102510 -1.68368565196520
 6  3.00270133333333 -0.65244599289929 -1.81145504440444
 6 -1.23206177837784 -0.43655751275127  3.92277778607861
 6 -5.79996522062206 -2.26901338163816  1.24670567616762
 6  2.55626528342834  0.40402777097710 -2.49288389838984
 6  2.03135256765677  1.12677836983698  2.76959360096010
 6  1.31602496899690  0.83268991759176 -1.81329743574357
 6  4.18965431453145 -1.49111854095410 -1.99473910401040
 6 -5.88990332643264 -2.35450754115412 -2.00535398359836
 6  5.44359991099110 -1.01998374357436 -1.26341975887589
 6  3.21565166056606  1.00619902250225 -3.77741425062506
 6  0.49721214531453  2.01247639453945 -2.07443918901890
 6  3.02286092639264  1.87811739723972  3.59381472667267
 6 -0.65258909050905  2.35790042224222 -1.17197248514851
 6 -6.83408733523352 -3.18067183128313 -1.85486404510451
 6  6.58600817041704 -2.09298755385539 -1.35802649264926
 6 -1.47608626342634  3.52333456665667 -1.15936401110111
 6 -2.43601769116912  3.32743322232223 -0.20623853005301
 6 -2.02841511391139  2.08192912641264  0.43033196519652
 6 -1.41772175057506  4.56438269846985 -2.26324809280928
 6 -3.44199483598360  4.25508599149915  0.29052329202920
 6 -2.26686057725773  5.61962738093809 -2.42288602140214
 1 -3.47192568576858 -0.52818830873087  1.45660986558656
 1 -2.80744237063706 -3.23975910091009  1.08645899499950
 1 -2.87493731353135 -2.34287773217322  2.83061244994499
 1 -0.37150245504550 -2.44918368346835 -0.01331432143214
 1 -2.02300068976898 -0.14541084458446 -0.87379148154815
 1  1.43225118651865 -0.29838129192919  4.31758385748575
 1  2.83067039993999 -1.02956484778478  3.20509543894389
 1  2.88323713761376 -2.73014459735974  0.35508856205621
 1 -2.07009963926393 -1.07720699469947  4.22223928572857
 1 -0.49784955295530 -0.22450665426543  4.60411676817682
 1 -1.55237455125513  0.43970641734173  3.56454521982198
 1 -5.83048383558356 -1.53565169636964  2.18808310131013
 1 -5.67994675537554 -3.18829293389339  1.62041488778878
 1 -6.67377475427543 -2.16405204860486  0.86040240194019
 1  2.36264240364036  1.20055999789979  1.80794840614061
 1  1.09025897739774  1.80360260456046  3.09477745144514
 1  0.52246050365037  0.42772714251425 -0.09579161146115
 1  4.33296901610161 -1.55420847984798 -3.15541114301430
 1  3.96611744154415 -2.65406718591859 -1.86922403040304
 1 -5.62412455085509 -2.09718064266427 -3.08175163896390
 1  5.24577249854986 -0.93061354125413 -0.14483125942594
 1  5.79533097439744 -0.08027502360236 -1.60271475397540
 1  4.03316322782278  0.31024751685169 -4.10815904540454
 1  3.72236798839884  2.11497257595760 -3.52779511491149
 1  2.43233902320232  1.08934343224322 -4.64553770577058
 1  0.73566747674767  2.59001049754975 -3.03671456345634
 1 -7.00415950205020 -3.47676986088609 -0.77297631883188
 1 -7.54586285118512 -3.36944827532753 -2.54156721022102
 1  3.76199992749275  3.47280664166417  3.79809306350635
 1 -0.81580545934593  4.46426770627063 -3.12117001240124
 1 -4.47613620322032  4.06408299009901 -0.45802695419542
 1 -3.81384013371337  3.91595638923892  1.17770858225823
 1 -3.02790110631063  5.30779107020702  0.25264103400340
 1  8.37020271377138 -2.54823797799780 -0.98680931593159
 1 -2.15998892349235  6.12148260536054 -3.26214106630663
 1 -3.08495084798480  5.98769014481448 -1.77270317781778

