%nproc=4
%Mem=4GB
# td=(NStates=1) B3LYP/SVP 

TD

0 1
 8 -5.44797102710271 -0.09866442684268 -3.24096388608861
 8  3.16946695219522  2.85717297199720  3.08982506090609
 8  3.37964631323132  0.69938533753375  3.03030491559156
 8  1.38087572707271 -6.99293556365637  1.56917542384238
 8  0.68597348534853 -7.04433085668567 -0.57494547744774
 8  1.85801284938494  4.11844496729673  0.15580508790879
 7 -2.31575118621862 -0.87686611681168  0.53701071767177
 7 -4.44055893729373  0.48963663016302 -1.22997135193519
 7  1.87101749334933 -0.68744031703170 -0.38791726932693
 7  2.57252279417942  1.94718046354635 -0.48652539923992
 6 -4.85023141434143  1.08282977997800 -0.00315451565157
 6 -4.38672606540654  0.29811997729773  1.24133149084908
 6 -2.86242133773377  0.00110036673667  1.33387540054005
 6 -1.90441953865387  0.62890784798480  2.18012118171817
 6 -0.58691530183018  0.04777934243424  1.76417709530953
 6 -0.96064025182518 -0.96894995389539  0.84945676507651
 6 -6.33988634473447  1.23213100240024 -0.16142135753575
 6  0.69947855445545  0.17836851335134  2.54941396149615
 6 -6.72177269176918  0.66614586298630 -1.32846857555756
 6 -0.19630588668867 -1.95505424232423  0.14791687318732
 6  1.03044994119412 -1.78953850045005 -0.43514509670967
 6 -5.47588818911891  0.29054726942694 -2.12374968646865
 6  1.83027711291129 -2.82030256865687 -1.03678068736874
 6 -2.13366906780678  1.80872662956296  3.11381577177718
 6 -7.11655914911491  1.90717884708471  0.91748573447345
 6  3.01198753245325 -2.28942889408941 -1.40087133223322
 6  1.16175220252025  1.66482497589759  2.72354599049905
 6  3.02263033833383 -0.84768339393939 -1.18531251945195
 6  1.35581935213521 -4.31939790419042 -1.01916363326333
 6 -7.98846475247525  0.63163480108011 -1.99897828562856
 6  1.69659722532253 -4.99791072567257  0.38665466096610
 6  4.22604821382138 -3.01686015481548 -1.99726895819582
 6  4.00661153175318  0.15207461096110 -1.43182786518652
 6  2.67370799199920  1.61278886708671  2.98725462536254
 6  3.76059043684368  1.49815522702270 -1.05615218251825
 6 -9.12722770617062  0.73557571787179 -1.45495031033103
 6  1.15269033373337 -6.43360001020102  0.37899655865587
 6  4.54606344094409  2.63163991889189 -1.42131921502150
 6  3.96350561896190  3.77465798949895 -1.12534382868287
 6  2.64117568836884  3.41342919401940 -0.39774853755376
 6  5.93309691499150  2.44321916251625 -1.87603955905591
 6  4.38817443724372  5.20984586038604 -1.13744575797580
 6  6.76888694629463  3.49547523232323 -2.42718719561956
 1 -4.31592607870787  1.95616669676968 -0.06875383508351
 1 -4.93413807070707 -0.69351082718272  1.01744648884889
 1 -4.77440428032803  0.51189518921892  2.24377128682868
 1 -2.70946998689869 -1.42149954545455 -0.19403632543254
 1 -3.46656765406541  0.50693261036104 -1.62979052995300
 1  0.66046048074807 -0.28836852485248  3.69377892599260
 1  1.44260827022702 -0.35487015441544  2.23744887768777
 1 -0.50547920882088 -2.92408987398740  0.00081508380838
 1 -3.09523966926693  2.26316758085809  3.01687167686769
 1 -1.74404561966197  1.51695105900590  4.08408679657966
 1 -1.66113249434944  2.63527734753475  2.57776519831983
 1 -6.50705415631563  2.53006180968097  1.60951318431843
 1 -7.44630439743974  1.00028983818382  1.63840085078508
 1 -8.00614655185518  2.51225730883088  0.40790927112711
 1  1.09161186958696  2.22613465006501  1.74606267356736
 1  0.70585369786979  2.16371319331933  3.68240406460646
 1  1.85313964036404  0.41278192319232 -0.38066343164316
 1  1.91476926912691 -4.82524635503550 -1.83685829552955
 1  0.35233703120312 -4.38348819631963 -1.27773625702570
 1 -7.85556661846185  0.65887611821182 -3.13988992719272
 1  1.13923611251125 -4.57943912361236  1.36139371597160
 1  2.81228749884989 -4.74460166466647  0.66809462436244
 1  3.81335639793979 -3.94225167736774 -2.18535199629963
 1  5.15937703610361 -2.84458330853085 -1.40020363796380
 1  4.44082551565157 -2.45482771537154 -3.02654172777278
 1  4.89131875137514 -0.31175326982698 -1.89640581628163
 1 -9.41346494699470  0.40530798629863 -0.43062575237524
 1 -9.97479561316132  0.74645606130613 -2.13831993199320
 1  4.25348003450345  3.17967135083508  3.10380514621462
 1  6.32160562876288  1.55113726292629 -1.86114492949295
 1  5.41533223302330  5.43994675887589 -0.53818243814381
 1  4.44309633213321  5.59092585828583 -2.08116066096610
 1  3.79226689628963  6.02421202760276 -0.51215295689569
 1  0.92817012511251 -7.90881203830383  1.66316237113711
 1  7.95620806520652  3.18056359625963 -2.60990826412641
 1  6.57231911941194  4.72827834003400 -2.58102045454545

