%nproc=4
%Mem=3GB
# td=(NStates=1) B3LYP/SVP 

TD

0 1
 8 -3.44912182238224 -1.22486754225423 -2.85181583588359
 8  3.18053850865086  2.97613927242724  3.05971024192419
 8  3.83463777197720  1.21791892019202  4.23444788838884
 8  7.80030863376338 -1.33197931213121 -0.69409017081708
 8  6.85293945034503 -3.08461925682568 -1.83574002210221
 8 -2.72235314181418  1.62246773587359  1.36715677617762
 7 -0.32933868006801 -2.40821713601360  0.94272911371137
 7 -2.76442848084808 -1.11979711471147 -0.73107525212521
 7  1.17009855925593  0.04463537323732 -0.75237017421742
 7 -1.01564070957096  1.48483389128913 -0.31594249214921
 6 -3.37675282498250 -1.39919748214821  0.62617959185919
 6 -2.64235286138614 -2.38317246344634  1.60047535433543
 6 -1.24835047674767 -2.04553236723672  1.86055404400440
 6 -0.57586738903890 -1.29215040674067  2.87141516201620
 6  0.74296540914091 -1.17637263826383  2.46682787738774
 6  0.91635432163216 -1.83948038273827  1.32228703270327
 6 -4.74751969856986 -1.85970161886189  0.23595048234823
 6  1.91481607300730 -0.47331766136614  3.16705886038604
 6 -4.89244560596060 -1.97310601900190 -1.11098143864386
 6  1.93323127952795 -1.96356454865487  0.30292257095710
 6  2.08114413631363 -0.96177809000900 -0.63111701320132
 6 -3.57740241014101 -1.47203916921692 -1.72503978737874
 6  3.06510757395740 -0.60806155445545 -1.75406930583058
 6 -1.22721129332933 -0.61065492249225  3.95706121442144
 6 -5.79498472257226 -2.21298777907791  1.30509151475148
 6  2.63070272717272  0.53218058625863 -2.39621423142314
 6  2.00422985538554  1.05379107110711  2.75132177377738
 6  1.39268263476348  0.96325297389739 -1.77902400840084
 6  4.23267861696170 -1.52959238833883 -2.02942257235724
 6 -6.00585492159216 -2.47119921032103 -1.91332478067807
 6  5.49965551655165 -1.01015276047605 -1.20990440734073
 6  3.27673776917692  1.22195059765977 -3.52244875407541
 6  0.61245366946695  2.10131527842784 -2.08705045014501
 6  3.06794543484348  1.72515210071007  3.45533087828783
 6 -0.56782061366137  2.38776340854085 -1.26663195109511
 6 -7.03058698519852 -3.28778254235424 -1.52076063476348
 6  6.69108867846785 -1.95028328342834 -1.27366805680568
 6 -1.37679633443344  3.49638187138714 -1.31902997769777
 6 -2.38201229062906  3.43661414041404 -0.27434534073407
 6 -2.10418269066907  2.10384131763176  0.47542647464746
 6 -1.26188616701670  4.62590885108511 -2.24924669266927
 6 -3.43839447594760  4.37566804970497  0.12952719241924
 6 -2.10958484968497  5.63505892409241 -2.39915364816482
 1 -3.37264575777578 -0.50437592749275  1.22316652125213
 1 -2.74079570597060 -3.47218234323432  1.21395174427443
 1 -3.23694351415141 -2.43695714011401  2.44142353105311
 1 -0.43346865166517 -2.90506927202720  0.00959796979698
 1 -2.11246963666367 -0.39362566606661 -0.78394249664966
 1  1.58947690909091 -0.61673312711271  4.30574267336734
 1  2.88954628752875 -0.68289018031803  2.98660358975898
 1  2.82302111601160 -2.72171375427543  0.59881293449345
 1 -2.02767539683968 -1.06286556055606  4.47126418821882
 1 -0.52373214121412 -0.25271947554755  4.92514887138714
 1 -1.72594190799080  0.22713516021602  3.73304206950695
 1 -5.65860664786479 -1.41515964716472  2.15539983298330
 1 -5.76445520622062 -3.14189829442944  1.87618046434643
 1 -6.80845822262226 -2.16435207860786  0.87724408610861
 1  2.31638777817782  0.95397533943394  1.48819643094309
 1  1.15833578507851  1.66945919021902  2.91730970467047
 1  0.38972723032303  0.24588895869587 -0.22777480978098
 1  4.53365908510851 -1.59766282528253 -3.11944754665467
 1  3.92627345714571 -2.56433821302130 -1.92890999899990
 1 -5.96780891929193 -2.14220514511451 -3.02544600840084
 1  5.14708262956296 -0.73733421332133 -0.09282605890589
 1  5.87262870417042 -0.07206420252025 -1.69467394989499
 1  4.32368227972797  0.84646113821382 -3.83315154465447
 1  3.33260901250125  2.36082716141614 -3.41163349874988
 1  2.72713850315031  0.98731322922292 -4.57057020902090
 1  0.87855176517652  2.69445094159416 -2.85088598059806
 1 -7.12482156825683 -3.56902908680868 -0.42546156735674
 1 -7.72972123702370 -3.58611994249425 -2.16575962946295
 1  3.96575030253025  3.36895625662566  3.57196045024502
 1 -0.44552843164316  4.46305758525853 -2.85813370877088
 1 -4.40658924852485  4.29943652545255 -0.55907705920592
 1 -3.73104185388539  3.97665245884588  1.09169998139814
 1 -3.28937725392539  5.38552884398440  0.37151292119212
 1  8.43102879637964 -2.13181633583358 -0.55896653165316
 1 -2.00708363296330  6.40377083418342 -3.02922777497750
 1 -2.97068942184218  5.70118149394940 -1.57252315981598

