%nproc=4
%Mem=3GB
# td=(NStates=1) B3LYP/SVP 

TD

0 1
 8 -3.27284419461946 -1.18691374687469 -2.86099675397540
 8  2.95919637443744  3.25101676017602  3.04001827272727
 8  3.61826613481348  1.55913304160416  4.33215765936594
 8  7.80806940984098 -1.42961907610761 -0.58266902870287
 8  6.58576273267327 -3.13215401030103 -1.71350779887989
 8 -2.53768467496750  1.48507399649965  1.53532359285929
 7 -0.23588933513351 -2.43188950325032  0.83405824662466
 7 -2.55151718971897 -1.18141327632763 -0.58634077867787
 7  1.14171572097210 -0.00161925222522 -0.78175311251125
 7 -0.95957510301030  1.37695310321032 -0.17993889178918
 6 -3.38465361506151 -1.38073563596360  0.62978995289529
 6 -2.66773539963996 -2.48288243444344  1.56818212501250
 6 -1.19450509220922 -2.11460927492749  1.74919290789079
 6 -0.53284308660866 -1.23922511421142  2.67547556805681
 6  0.84559567216722 -1.20732573357336  2.36814800940094
 6  0.90247293349335 -1.92153858855886  1.17974277827783
 6 -4.67223216981698 -1.90883653235324  0.19692657995800
 6  1.85018961036104 -0.39362969256926  3.04154630913091
 6 -4.76611297269727 -1.95881458985899 -1.07278761926193
 6  2.05943389978998 -1.97583577577758  0.26405868456846
 6  2.11810783268327 -0.99069098129813 -0.78167206870687
 6 -3.47789245914591 -1.36719868516852 -1.62946022942294
 6  3.00371143434343 -0.69182993129313 -1.76042994189419
 6 -1.19327789999000 -0.50316417341734  3.79371487978798
 6 -5.75641086518652 -2.10640712101210  1.32925393099310
 6  2.56222587948795  0.44276164436444 -2.52748735873587
 6  1.78030746314631  1.17212290429043  2.70330697229723
 6  1.36442980948095  0.86172282088209 -1.80535664166417
 6  4.24334968406841 -1.42942237133713 -2.15987561766177
 6 -5.83258759485949 -2.29014110451045 -1.91699514771477
 6  5.40635618661866 -1.04064580978098 -1.25816923382338
 6  3.21514160956096  1.03310171277128 -3.72851936113611
 6  0.49597202130213  1.92857800470047 -2.10002174727473
 6  2.88047668796880  2.00534011951195  3.50855620082008
 6 -0.65870970257026  2.24916954915492 -1.21925721362136
 6 -6.93577750425042 -2.99005276937694 -1.57308586728673
 6  6.61808137773777 -2.05419367446745 -1.19465015501550
 6 -1.50646930173017  3.40338257145715 -1.24030210491049
 6 -2.32315640504050  3.28765924492449 -0.12737064326433
 6 -1.96542881528153  2.01879281278128  0.51640057205721
 6 -1.39831981038104  4.50717697789779 -2.13968573657366
 6 -3.30984162066207  4.29532001490149  0.36153039273927
 6 -1.97488137933793  5.70289570777078 -2.15475920872087
 1 -3.52906139933993 -0.49826531643164  1.22627683228323
 1 -2.74088571497150 -3.56677180218022  0.90044039313931
 1 -3.17606742654265 -2.53331677607761  2.48279766846685
 1 -0.58996430123012 -2.86407517261726 -0.00666365636564
 1 -1.81234962466247 -0.30359666316632 -0.70592469486949
 1  1.88090605200520 -0.23053450725072  4.18072017111711
 1  2.72960029292929 -0.96090798209821  2.86278120752075
 1  2.69676849074908 -2.84185576847685  0.28097115031503
 1 -1.93106573587359 -1.14539381338134  4.45191225302530
 1 -0.36692646064606 -0.35433963756376  4.57393374987499
 1 -1.54491380518052  0.40793324002400  3.26547531283128
 1 -5.54392517971797 -1.68091622282228  2.20666495949595
 1 -6.12332109280928 -3.15722982758276  1.68823166946695
 1 -6.68472584938494 -1.47519316271627  0.90061642334233
 1  2.07345348474848  1.37885782768277  1.72626023732373
 1  0.79865981748175  1.62855509980998  2.93850182388239
 1  0.35776403400340  0.02683705350535 -0.25568760106011
 1  4.59437515671567 -1.17051011001100 -3.06371197309731
 1  4.15274610441044 -2.57181896109611 -1.73184029202920
 1 -5.77948008640864 -1.82215313991399 -2.97781124492449
 1  5.20207812911291 -1.04917539743974 -0.13162993929393
 1  5.72276371767177  0.02214521842184 -1.54130861336134
 1  4.21295120662066  0.44493098519852 -3.99163739323932
 1  3.61755750735074  2.12457353605360 -3.66222855825583
 1  2.59487527682768  0.94455895379538 -4.68897204920492
 1  0.60346425642564  2.43548504500450 -3.03422431443144
 1 -7.11599068516852 -3.32446463036304 -0.40817983918392
 1 -7.75911417631763 -3.25112644314431 -2.32534558805881
 1  3.67612133963396  3.77847720872087  3.78536179037904
 1 -0.66850072887289  4.11728300780078 -3.07283517891789
 1 -4.09495808540854  4.76109269106911 -0.48111926342634
 1 -4.03766251595160  3.77908270187019  1.09901071247125
 1 -2.87094541074107  5.16441673277328  0.88371414131413
 1  8.45266095959596 -2.04185733993399 -0.76724735973597
 1 -1.87808073267327  6.52453291039104 -2.85954080628063
 1 -2.51052340524052  5.91960333613361 -1.28626453395340

