%nproc=4
%Mem=4GB
# td=(NStates=1) B3LYP/SVP 

TD

0 1
 8 -5.50494672467247  0.03562900250025 -3.31677146684668
 8  3.05113511901190  2.97339459415942  3.49265534393439
 8  3.31179952855286  0.83103850285028  3.13623550865087
 8  1.41086872637264 -7.29710598069807  1.41080958725873
 8  1.01953684168417 -7.19960638423842 -0.79510749364936
 8  1.69878692679268  3.91549467226723 -0.09741023362336
 7 -2.36145575667567 -0.88875730593059  0.52710972757276
 7 -4.45145002640264  0.50071773827383 -1.24849320412041
 7  1.82639303090309 -0.63564513751375 -0.44868334593459
 7  2.58637417931793  1.77805355085509 -0.43853059975998
 6 -4.78781517271727  1.18452994999500 -0.01596579677968
 6 -4.35347274007401  0.30670083538354  1.24290164786479
 6 -2.89015411101110  0.08117837453745  1.40521253425343
 6 -1.89026812351235  0.66232118931893  2.12871604120412
 6 -0.71272788308831  0.07914247874787  1.84797547514751
 6 -0.97729191699170 -0.88108116701670  0.78545036443644
 6 -6.32231458755876  1.32927071637164 -0.10324553995400
 6  0.61718032463246  0.21800247674767  2.50276929702970
 6 -6.78438895339534  0.94128337673767 -1.35626135483548
 6 -0.12945920202020 -1.84723346024602  0.21089317081708
 6  1.16003289948995 -1.76495604220422 -0.23430501270127
 6 -5.47045764606461  0.45780399509951 -2.16396370787079
 6  1.93200728592859 -2.91911244964496 -0.73168017731773
 6 -2.13950965186519  1.73836959385939  3.12006639683968
 6 -7.02019951315132  1.90212834203420  1.03460744664466
 6  3.14293062676268 -2.33722367356736 -1.26779802490249
 6  1.09364539183918  1.76320481388139  2.61511514741474
 6  3.07970604590459 -0.92085071067107 -1.10988497669767
 6  1.49582335253525 -4.29267523192319 -0.84445616251625
 6 -7.96023192919292  0.90611224882488 -2.03011139893989
 6  1.66487405300530 -5.06721765636564  0.36759275477548
 6  4.37888349734974 -2.87382585138514 -1.93573280458046
 6  3.98570944154415  0.03412281578158 -1.43389807220722
 6  2.56337695889589  1.76567415561556  3.12825872577258
 6  3.75367974577458  1.45039045054505 -1.04537110441044
 6 -9.21641662506251  0.70729288958896 -1.41768658395840
 6  1.30054511921192 -6.58253490369037  0.25885454445445
 6  4.59558839343934  2.59457621252125 -1.48966604970497
 6  3.87401667006701  3.76850737443744 -1.19343063736374
 6  2.59444101490149  3.27745559665967 -0.50143890659066
 6  5.94235784108411  2.34848968956896 -2.08354030913091
 6  4.18401402120212  5.22249712551255 -1.30985299869987
 6  6.74397445504550  3.28123380818082 -2.47203168006801
 1 -4.41958644474447  2.20373145324532  0.17851089138914
 1 -4.87620227712771 -0.86314779087909  1.23349809400940
 1 -4.65588242814281  0.84559855955596  2.20768767846785
 1 -2.87617665756576 -1.30805820132013  0.01599467766777
 1 -3.55208620592059  0.36639855695570 -1.68904645554555
 1  0.55572000670067 -0.32785247324732  3.34180372847285
 1  1.21663567296730 -0.56072073947395  1.99547468026803
 1 -0.53554221512151 -2.82930039503950  0.11020602290229
 1 -3.22415256055606  1.35234649874987  3.65696568626863
 1 -1.39164037913791  1.59150851475148  3.94569295719572
 1 -2.00422680378038  2.78642246204620  2.68775619741974
 1 -6.47268071897190  2.77449625312531  1.43132536553655
 1 -7.27749751675168  1.18363817301730  1.90269728042804
 1 -8.09938587578758  2.15820190329033  0.65265374557456
 1  1.05970867926793  2.38221025762576  1.71001906920692
 1  0.42842595509551  2.39633645564556  3.28326415061506
 1  1.64978930533053  0.44330497549755 -0.14467983328333
 1  1.93164095629563 -4.92532636303630 -1.65087969766977
 1  0.35549734723472 -4.05068491599160 -1.31937042044204
 1 -8.01494255605560  1.01047127772777 -3.12220815901590
 1  1.18040022892289 -4.55641682138214  1.20577815441544
 1  2.83008927902790 -5.22380958545855  0.87111492639264
 1  4.39005406770677 -4.04526197839784 -2.13795725682568
 1  5.42586368476848 -2.79412826302630 -1.40017363496350
 1  4.34312574567457 -2.36330856345635 -2.97848692229223
 1  5.02135175467547 -0.15490758525853 -1.88989516521652
 1 -9.38747234773477  0.32995045054505 -0.38961165096510
 1 -10.28628676227623  0.65886730243024 -1.91140724072407
 1  4.10842552905291  2.89534291799180  3.59460422612261
 1  6.26691015921592  1.28133028222822 -2.16299511451145
 1  5.19452015181518  5.58905166936694 -0.92207082698270
 1  4.22841486398640  5.78115488118812 -2.35303784868487
 1  3.35231290089009  5.75791539793979 -0.84996673827383
 1  1.14093140124012 -8.23860501760176  1.13630968586859
 1  7.80243268766877  3.01850739063906 -2.81864913821382
 1  6.62707459495950  4.37789330153015 -2.35597795029503

