%nproc=4
%Mem=3GB
# td=(NStates=1) B3LYP/SVP 

TD

0 1
 8 -3.19836674687469 -1.28651370687069 -2.87335799009901
 8  2.94184463926393  3.15162682118212  3.29045331623162
 8  4.07666197439744  1.21876900520052  4.20728517211721
 8  7.67544614751475 -1.42357847204720 -0.86175693749375
 8  6.67176133253325 -3.15191598649865 -1.92875932403240
 8 -2.49865077157716  1.58716420552055  1.49136919741974
 7 -0.34041978817882 -2.20989730403040  0.83669851065106
 7 -2.77640967896790 -0.95473060806081 -0.59844198879888
 7  1.23989553895390  0.25046595629563 -0.64740967816782
 7 -1.03131227672767  1.43751915981598 -0.31418231613161
 6 -3.45120026972697 -1.27258482088209  0.63722069596960
 6 -2.72556118221822 -2.21686583278328  1.63218852565257
 6 -1.26966260796080 -1.99231704570457  1.75047303590359
 6 -0.58214801710171 -1.12127331903190  2.81055907640764
 6  0.78302941554155 -1.12894789578958  2.57814900950095
 6  0.87786047224722 -1.80345678037804  1.24416922092209
 6 -4.85718066466647 -1.85599124782478  0.18378526582658
 6  1.85719031043104 -0.42583291289129  3.30826298079808
 6 -4.84080044144414 -2.09106781518152 -1.12827316781678
 6  2.06360431683168 -1.76436462866287  0.36165844454445
 6  2.11578760066007 -0.75418733093309 -0.53595749724972
 6 -3.61375604550455 -1.45825779107911 -1.70676796019602
 6  3.02285334853485 -0.59023977227723 -1.75118901780178
 6 -1.35743431563156 -0.55962981998200  3.92548805710571
 6 -5.86722194629463 -2.35941242154215  1.27876888248825
 6  2.51963162006201  0.47481484968497 -2.51493610361036
 6  1.97315674807481  1.06407209920992  2.91235787738774
 6  1.48678204470447  0.97143379197920 -1.83912001800180
 6  4.20336568566857 -1.52906233533353 -1.96385601570157
 6 -5.84897923402340 -2.65315740614061 -2.02647609580958
 6  5.50038558955896 -1.16860860606061 -1.17590100700070
 6  3.12162225762576  1.02010041264126 -3.71394790399040
 6  0.53784620872087  1.99782492939294 -2.13266501160116
 6  3.14019265956596  1.76894648014801  3.57343268846885
 6 -0.63382721432143  2.25719035123512 -1.33892918081808
 6 -6.83180710721072 -3.50807457155716 -1.73422198089809
 6  6.65822539213921 -2.03499175427543 -1.39366005600560
 6 -1.47366602140214  3.49855208840884 -1.31342941764176
 6 -2.31747583698370  3.41740221922192 -0.17019492569257
 6 -2.06887916031603  2.02468340184018  0.44666359835984
 6 -1.36143612201220  4.51605786598660 -2.31052282028203
 6 -3.28839947644764  4.33007349024902  0.41308554825483
 6 -1.81395528672867  5.74392981118112 -2.35677941074107
 1 -3.67125561876188 -0.10703619351935  1.22077628222822
 1 -2.89703132953295 -3.33796892189219  1.59496984608461
 1 -3.12108192799280 -2.29628307270727  2.61768115681568
 1 -0.40303560836084 -2.97447621272127 -0.00714370437044
 1 -2.28188657835784 -0.13694999849985 -0.57767186958696
 1  1.58151611301130 -0.77043849764977  4.38358045714571
 1  2.71883921682168 -0.78166005730573  2.72164709410941
 1  2.52859167306731 -2.66559814271427  0.25584863806381
 1 -2.40596322562256 -1.12491176517652  4.13479054085408
 1 -1.03761352935294 -0.33487769136914  5.13346970347035
 1 -1.57978729252925  0.52839528622862  3.55327409270927
 1 -5.75773656085609 -1.65444357555756  2.07316160916092
 1 -5.62485124582458 -3.30510461506151  1.57892073837384
 1 -6.90906828362836 -2.40748639203920  0.85626198789879
 1  2.11159729912991  1.25794573647365  1.89030664196420
 1  1.04282423392339  1.40974321862186  3.20525849954995
 1  0.19507776537654  0.39305367516752 -0.36017805010501
 1  4.49467518671867 -1.62846590559056 -3.11227682958296
 1  3.77207803760376 -2.59914169336934 -1.56612372037204
 1 -5.72509464786479 -2.39186011061106 -3.06105956975698
 1  5.17037495879588 -1.23582406230623 -0.04747152345234
 1  5.73060450175018  0.02218522242224 -1.27788227072707
 1  4.22178208970897  0.57374386648665 -3.99219744924492
 1  3.38641439303930  2.06859793849385 -3.45632796819682
 1  2.27890367966797  0.95244974287429 -4.60327347934793
 1  0.48171208120812  2.61665316181618 -3.14370526252625
 1 -6.92393147924793 -3.83743592749275 -0.74967398859886
 1 -7.45411367626763 -3.91395272577258 -2.74575762926293
 1  3.64472820032003  3.61365072607261  3.59216247044704
 1 -0.74975885468547  4.30601188068807 -3.18184608000800
 1 -4.11237982758276  4.44772135393539 -0.25990714221422
 1 -3.74958370807081  3.98345313891389  1.50225103650365
 1 -2.97039535573557  5.18701899299930  0.61812758265827
 1  8.49835552905291 -1.90201335553555 -0.95427606260626
 1 -1.62101502610261  6.39171962906291 -3.20180503270327
 1 -2.76974932783278  5.97004838063806 -1.62411831933193

