%nproc=4
%Mem=4GB
# td=(NStates=1) B3LYP/SVP 

TD

0 1
 8 -5.42246847684768  0.00722616221622 -3.25968575827583
 8  3.30140014551455  2.83572082678268  3.12673875227523
 8  3.55736408500850  0.66396179517952  2.48690057515752
 8  1.97838547804780 -7.32838910901090  1.26915542184218
 8  0.40063495149515 -6.95258168176818 -0.48260624352435
 8  1.72843989208921  3.95719884268427  0.04850435783578
 7 -2.43170278137814 -0.88286671687169  0.75663267986799
 7 -4.41636651805181  0.64417208370837 -1.27076543134313
 7  1.77143753535353 -0.68750032303230 -0.40095857345735
 7  2.53238878077808  1.93882962846285 -0.48957570427043
 6 -4.77916430763076  1.22190368736874  0.03314911471147
 6 -4.48774616741674  0.41979214451445  1.29231658935894
 6 -2.96107120272027  0.10979123582358  1.44157617061706
 6 -1.92882197889789  0.79743470067007  2.09288245784578
 6 -0.66541315161516  0.11348591309131  1.78789946754675
 6 -1.00831501930193 -0.88583164206421  0.96301812121212
 6 -6.36033838993899  1.39731752105211 -0.20490570597060
 6  0.63817242384238  0.27006768326833  2.60064908500850
 6 -6.68641915641564  0.77063631203120 -1.41521725042504
 6 -0.21672792889289 -1.88708744564456  0.24029611111111
 6  1.02584948114811 -1.72831237783778 -0.42383396559656
 6 -5.41235183548355  0.43016123082308 -2.13455076657666
 6  1.83562764796480 -2.84645518391839 -0.95324233353335
 6 -2.22039774067407  1.83629938683868  3.24689908010801
 6 -7.17667516071607  1.82598072727273  0.91324531043104
 6  3.12992932663266 -2.38137808900890 -1.20459170427043
 6  1.22168819611961  1.64213270667067  2.48185182108211
 6  3.08768684398440 -0.95578420402040 -0.95914990319032
 6  1.30872464266427 -4.24753071747175 -0.97483920082008
 6 -7.98515442144214  0.49040067766777 -2.08041642944294
 6  1.71732929852985 -5.09383031763176  0.35649164466447
 6  4.33063867286729 -3.03051151995199 -1.70770000130013
 6  3.99103997459746  0.07914731823182 -1.17821250365037
 6  2.81562218341834  1.61666925512551  2.73425932583258
 6  3.69957433523352  1.52385779727973 -1.14300086738674
 6 -9.21365634903490  0.55925808610861 -1.55132994829483
 6  1.25843090779078 -6.55734238443844  0.27473613261326
 6  4.53745257985799  2.68241499639964 -1.31988907200720
 6  3.85045431383138  3.81661218491849 -0.90748204250425
 6  2.62575414621462  3.31312916401640 -0.46028479117912
 6  5.87786139143914  2.47154199479948 -2.00060201530153
 6  4.33766938673867  5.19354423022302 -1.06158817221722
 6  6.78819887748775  3.43025871067107 -2.25793026992699
 1 -4.50431491759176  2.26621770187019  0.14453749404940
 1 -5.09267392429243 -0.56676815291529  1.47476222042204
 1 -4.87287412731273  0.98598259795980  2.26287319701970
 1 -2.96024506440644 -1.52770016551655  0.04097717591759
 1 -3.49534053135313  0.79437135423542 -1.60201775267527
 1  0.24015845054505  0.05564587658766  3.58019756785679
 1  1.34740875027503 -0.60759542694269  2.14663979677968
 1 -0.75150381128113 -2.93392085708571  0.16879188148815
 1 -3.29835998129813  2.08283954805481  3.43639362906291
 1 -1.87099831493149  1.72181154505451  4.11940032793279
 1 -1.75335171627163  2.68098191799180  3.08222564436443
 1 -6.62210566146615  2.45444424792479  1.54052628562856
 1 -7.64539430643064  0.95919572877288  1.40095710641064
 1 -7.94983092029203  2.46856293939394  0.68887736793679
 1  1.23429613801380  2.17302933953395  1.62980104740474
 1  0.62907602010201  2.38910573257326  3.14995081928193
 1  1.51358568496850  0.48964960996100 -0.32891825712571
 1  1.77217500970097 -4.59992382278228 -1.91302591229123
 1  0.17957975547555 -4.37279712721272 -0.96328481188119
 1 -7.75207626942694  0.25184541514151 -3.23779971817182
 1  1.39160134903490 -4.64861604130413  1.22610018661866
 1  2.93575984608461 -5.20974817931793  0.39967778267827
 1  3.93245830813081 -4.04667211941194 -2.42287574867487
 1  5.04798589698970 -3.46080493069307 -0.85536915451545
 1  5.05782721582158 -2.53241547414741 -2.39880895449545
 1  4.78935855535554 -0.24468656315632 -1.61508768446845
 1 -9.39980358085809  0.86398385388539 -0.39957264706471
 1 -10.20812894649465  0.23373478917892 -2.10786688668867
 1  4.18729341584158  2.95804918861886  3.01428619431943
 1  6.04128759695970  1.46174832403240 -2.24550336533653
 1  5.20787148694869  5.71939470367037 -0.50046866676668
 1  4.50979300180018  5.29728649434943 -2.25986853175318
 1  3.53637130673067  5.84525413181318 -0.75110685228523
 1  1.52180948904891 -8.22122327942794  1.11800785568557
 1  7.58007045144514  3.12355789568957 -2.70215748904890
 1  6.78498038553855  4.43167868006801 -2.17472982548255

