%nproc=4
%Mem=3GB
# td=(NStates=1) B3LYP/SVP 

TD

0 1
 8 -3.10708761896190 -1.42120717621762 -2.80345099939994
 8  3.27135759055906  3.01007266576658  3.07935220612061
 8  3.80460476867687  1.20090721902190  4.30393483708371
 8  7.68461706460646 -1.37954406860686 -0.62581334313431
 8  6.75148930533053 -2.81313210811081 -2.24476092419242
 8 -2.68105901240124  1.67287277637764  1.51737179767977
 7 -0.30171591779178 -2.60331664596460  0.97423226402640
 7 -2.63821585958596 -1.11319645464546 -0.57085923052305
 7  1.15011656105611  0.02997390709071 -0.61382631983198
 7 -1.08088723422342  1.49556496439644 -0.19462035993599
 6 -3.40383553325332 -1.24828239063906  0.75382235613561
 6 -2.71892051815182 -2.28420256645665  1.67044235103510
 6 -1.24523016471647 -2.12207002100210  1.88209619821982
 6 -0.69673947624762 -1.28696988868887  2.83289130963096
 6  0.72299341194119 -1.23925892689269  2.49723091769177
 6  0.95757844404440 -1.93765019971997  1.30362516651665
 6 -4.70677562416242 -1.84202985168517  0.30220710801080
 6  1.82754734613461 -0.46451678127813  3.22398455295530
 6 -4.75561192259226 -1.82939164756476 -1.06554689518952
 6  2.13791174757476 -1.90540873307331  0.40082236093609
 6  2.11374739663966 -0.94070598279828 -0.59214311581158
 6 -3.43898856875688 -1.43327529282928 -1.60790807420742
 6  3.00026108930893 -0.68180892919292 -1.73776767566757
 6 -1.47008558075808 -0.38930278727873  3.84052956125613
 6 -5.75477070117012 -2.09477595789579  1.27880888648865
 6  2.46384604150415  0.37635500370037 -2.44109871987199
 6  1.91074050645065  1.05388108010801  2.67531417301730
 6  1.36475984248425  0.81086773537354 -1.78758486448645
 6  4.32824817391739 -1.45401483058306 -2.10654028412841
 6 -5.84188852495249 -2.39714180458046 -1.99785323352335
 6  5.44245979697970 -1.00866261146115 -1.13620703760376
 6  3.03754384978498  1.13824222682268 -3.61385789498950
 6  0.49689211331133  1.85635078197820 -1.99316106120612
 6  3.05889452975298  1.74606419191919  3.50687603280328
 6 -0.60028385998600  2.24848948114811 -1.21130641854185
 6 -6.94553848034803 -3.14588835293529 -1.76508506720672
 6  6.73321289088909 -1.84269252435243 -1.43790448044804
 6 -1.50237889268927  3.46642887608761 -1.32835090979098
 6 -2.42312640204020  3.41714219321932 -0.29661756795680
 6 -2.07207948034803  2.14702563606361  0.46520545254525
 6 -1.37934791319132  4.37052331253125 -2.35637740574057
 6 -3.58443908040804  4.26345682858286  0.17269150885089
 6 -1.72735662686269  5.76263168136814 -2.40900463326333
 1 -3.26509500270027 -0.46426191609161  1.15342954755476
 1 -2.84067569396940 -3.30865599059906  1.21804215331533
 1 -3.23723354315432 -2.54517796219622  2.58949833853385
 1 -0.35344064886489 -3.22572133723372  0.06810382038204
 1 -1.94732312201220 -0.33410971447145 -0.61107520992099
 1  1.86566452785279 -0.39121057485749  4.42251435053505
 1  2.81650898379838 -0.84040593189319  2.87583251265127
 1  2.76836565046505 -2.72010359325933  0.66037909110911
 1 -2.13085571487149 -1.00670994499450  4.47526458825883
 1 -0.83317308530853  0.38130392679268  4.52137849434944
 1 -1.98092740654065  0.28212065876588  3.01789055435544
 1 -5.51869265646565 -1.34831296249625  2.19162345534553
 1 -5.62690145084508 -3.28799290389039  1.55229807610761
 1 -6.79872724952495 -1.96184182758276  0.86591295299530
 1  2.14826096549655  1.16820676257626  1.65123273457346
 1  0.93137308880888  1.37366961126113  2.91068904260426
 1  0.26880513811381  0.38312268206821  0.05086305400540
 1  4.77633335253525 -1.40570362936294 -3.19862546444645
 1  4.09837066686669 -2.47654943414341 -2.13831093909391
 1 -5.53859599799980 -2.23859478407841 -2.99471293509351
 1  4.99311723302330 -1.00445092499250 -0.09920669696970
 1  5.68543998529853 -0.00528752485249 -1.24071855435544
 1  4.12880279177918  0.87011350345035 -3.90153838333833
 1  3.29372512411241  2.11575265396540 -3.27424976037604
 1  2.32962875217522  1.14239873777378 -4.36583973597360
 1  0.72253616361636  2.46728822532253 -2.80194108610861
 1 -7.10613970007001 -3.63797598149815 -0.98581760296030
 1 -7.61831009590959 -3.28406973747375 -2.69173222672267
 1  4.32524625212521  3.29962932393239  3.38545179937994
 1 -0.85455933473347  3.97014829432943 -3.52393028842884
 1 -3.98134672427243  4.88051463326333 -0.85261641314131
 1 -4.46208495819582  3.47861265486549  0.74366517791779
 1 -3.06747506370637  5.03428371947195  0.94396016591659
 1  8.43220891439144 -2.14521767596760 -0.97314794979498
 1 -1.59667259185919  6.38409886698670 -3.40237508970897
 1 -2.38152050495050  6.32335371117112 -1.66404231173117

