%nproc=4
%Mem=3GB
# td=(NStates=1) B3LYP/SVP 

TD

0 1
 8 -3.31582849304931 -1.05894094959496 -2.71403205750575
 8  2.91676213101310  3.14752641114111  3.24590886178618
 8  3.47602191039104  1.58404553285329  4.66948139173917
 8  7.72777138003800 -1.51864797899790 -0.91157191899190
 8  6.66701085748575 -3.02322311721172 -2.22428887698770
 8 -2.75330623712371  1.61576706580658  1.39612967346735
 7 -0.13297904410441 -2.45832214651465  0.91484632543254
 7 -2.65150718871887 -1.14117925292529 -0.53377552215222
 7  1.18454000340034  0.01964287398740 -0.72655759295930
 7 -1.04973411891189  1.38698410631063 -0.25967686558656
 6 -3.33762891259126 -1.39031659405941  0.70947792169217
 6 -2.59467809390939 -2.34480862706271  1.64489979677968
 6 -1.09232487418742 -2.05179299329933  1.87973596219622
 6 -0.46488629092909 -1.27699889158916  2.92261028152815
 6  0.81932304490449 -1.11196619761976  2.49701089568957
 6  1.06055874207421 -1.87099353405341  1.21155595959596
 6 -4.77290223682368 -1.88297394609461  0.37686457375738
 6  2.01217580898090 -0.37388771837184  3.11501365586559
 6 -4.79117547894789 -1.93801250965097 -1.00647098759876
 6  2.08094605100510 -1.95674386658666  0.25776805550555
 6  2.10279630153015 -0.95342725492549 -0.68840274177418
 6 -3.46998166806681 -1.35874784008401 -1.53631091449145
 6  3.04238530173017 -0.76667741604160 -1.77877177607761
 6 -1.22581115331533 -0.54158801580158  3.97193270157016
 6 -5.82046727082708 -2.23048952925292  1.29412041764176
 6  2.52204186108611  0.35769313751375 -2.48271288128813
 6  1.94618405080508  1.08373406540654  2.71470811241124
 6  1.31651501800180  0.84961160976098 -1.83514962096210
 6  4.23526887598760 -1.57158658775878 -2.04669429952995
 6 -5.75533987008701 -2.28703079347935 -2.04808825702570
 6  5.44840039103910 -1.20290203540354 -1.16068948584858
 6  3.23879397479748  1.09496789938994 -3.65421193039304
 6  0.51548397249725  2.05523066996700 -2.06420816591659
 6  2.82015065536554  1.96132571807181  3.68149349454945
 6 -0.57402123372337  2.20237486968697 -1.30307559545955
 6 -6.88448237473747 -3.01161492559256 -1.89987854655466
 6  6.57650722032203 -2.08664691979198 -1.45836652665267
 6 -1.51977063186319  3.45710794399440 -1.31432950765076
 6 -2.39531362076208  3.29514999399940 -0.27721562776278
 6 -2.09592186458646  2.00691162466247  0.40516944894489
 6 -1.25349532793279  4.45375163536354 -2.23432520052005
 6 -3.56854749124913  4.23588407130713  0.15613985368537
 6 -1.82029592079208  5.72515793399340 -2.31650538333833
 1 -3.22718121132113 -0.44893038293829  1.29102330693069
 1 -2.78615024142414 -3.41452657765777  1.27858820792079
 1 -3.03771359115912 -2.40811425582558  2.66614600330033
 1 -0.33639894469447 -2.97110587568757  0.11030804080408
 1 -2.00770916061606 -0.20089639313931 -0.73858796119612
 1  1.77978593999400 -0.28204965876588  4.28085018411841
 1  2.96288362126213 -0.80616250755076  2.84389931933193
 1  2.82460127402740 -2.67516909980998  0.49063211641164
 1 -1.97930055935594 -1.17554682868287  4.59448651045105
 1 -0.46687645564556 -0.00110431403140  4.55637199369937
 1 -2.05849516331633  0.22688513521352  3.52574133943394
 1 -5.79251003820382 -1.63925205640564  2.16166045904590
 1 -5.73987274797480 -3.38972307690769  1.58362120842084
 1 -6.94439181598160 -2.00236587998800  0.76682304400440
 1  2.48957509690969  1.18932887478748  1.69936754805481
 1  0.83487343884388  1.47636988128813  2.65801377507751
 1  0.45895415301530  0.16694106390639 -0.09653168546855
 1  4.79508522772277 -1.60451351035103 -2.97818342024202
 1  3.92290312011201 -2.84466624582458 -2.04110121812181
 1 -5.47315945434543 -2.04748567316732 -3.20322378617862
 1  5.15349327062706 -1.11129160906091 -0.03556033233323
 1  5.87971941324132 -0.14251124722472 -1.31302578507851
 1  3.80298020952095  0.14712120422042 -4.09557778727873
 1  3.93528928052805  2.00104118281828 -3.36341867726773
 1  2.45112090139014  1.44436893479348 -4.44046719871987
 1  0.76053996399640  2.52026352285229 -2.89276016801680
 1 -6.93629271537154 -3.35320750465047 -0.93236225742574
 1 -7.48817708260826 -3.42558388888889 -2.68803185668567
 1  3.42948667616762  3.95827518851885  3.93294654885488
 1 -0.42117599639964  4.20258153765377 -2.75533342874287
 1 -4.16596518611861  4.34562114391439 -0.78406955845585
 1 -4.23821257095710  3.84267906150615  0.78885969736974
 1 -3.41214953115312  5.24252454355435  0.55517128702870
 1  8.52895858935894 -1.98924207840784 -0.98804943994399
 1 -1.55335826042604  6.45976643374337 -3.24336918911891
 1 -2.43584593749375  5.85125650145014 -1.38905481298130

