%nproc=4
%Mem=3GB
# td=(NStates=1) B3LYP/SVP 

TD

0 1
 8 -3.32169908010801 -1.39552460796080 -2.93918457275728
 8  3.17770822562256  3.15342700120012  2.97943221412141
 8  3.65404971317132  1.49824695299530  4.50664510811081
 8  7.68211681458146 -1.63588970317032 -0.79269003080308
 8  6.69159331573157 -3.12951374627463 -1.94935138323832
 8 -2.67479838633863  1.63427891699170  1.49389945044504
 7 -0.32049779597960 -2.43931024532453  0.91184602540254
 7 -2.71108314631463 -1.15577071207121 -0.66361850645065
 7  1.16081763116312 -0.01166025632563 -0.75549048624863
 7 -0.94585373087309  1.47624303220322 -0.13305420332033
 6 -3.37473262296230 -1.31615917831783  0.53605057895790
 6 -2.71213984008401 -2.25509965616562  1.61017632443244
 6 -1.23835947764776 -1.89950776477648  1.83113110171017
 6 -0.59542934523452 -1.14620581228123  2.86034405490549
 6  0.69540065266527 -1.02626762776278  2.48423961856186
 6  0.87649033523352 -1.79800623532353  1.25836064006401
 6 -4.76183112971297 -2.03235888458846  0.18861574887489
 6  1.83269786118612 -0.30157048664866  3.18705085958596
 6 -4.74436079747975 -2.22362107050705 -1.18115845634563
 6  2.04484244064406 -1.85814400660066  0.28382066076608
 6  2.06367238913891 -0.95133704590459 -0.70753465496550
 6 -3.54999966986699 -1.55171713701370 -1.66321360476048
 6  3.04224528772877 -0.67735848414841 -1.86135003390339
 6 -1.31017959015902 -0.28353221022102  3.80743625192519
 6 -5.88909413351335 -2.25501198149815  1.27482848844884
 6  2.57198685558556  0.42145951415142 -2.46112072207221
 6  1.93363279567957  1.11752744474447  2.76951359295930
 6  1.37960132663266  0.87089373797380 -1.75875198119812
 6  4.21870721982198 -1.48545797489749 -2.09090872097210
 6 -5.87467180328033 -2.61671376177618 -2.10189363756376
 6  5.46227177817782 -1.14444618981898 -1.30071348824882
 6  3.04819491489149  1.22172057465747 -3.73395990519052
 6  0.57746017011701  2.01813696059606 -1.89013075817582
 6  3.08264690499050  1.94051363686369  3.54759010421042
 6 -0.47579141074107  2.41243587578758 -1.05603089098910
 6 -6.83319724622462 -3.39167293139314 -1.71811036973697
 6  6.62317188678868 -2.09674792989299 -1.36750744074407
 6 -1.31877053185319  3.57590982418242 -1.12035010971097
 6 -2.38351244064406  3.27444792379238 -0.24437234343434
 6 -2.00880315271527  2.09478041154115  0.53384231623162
 6 -1.07765774417442  4.71774803500350 -2.10729249724973
 6 -3.42720335683568  4.18708919181918  0.34675891559156
 6 -1.94940883208321  5.79784520272027 -2.18550228302830
 1 -3.71105959915992 -0.27466295619562  1.09099330393039
 1 -2.78633025942594 -3.19479460446045  1.15211556065607
 1 -3.13524334413441 -2.31486493089309  2.53477286598660
 1 -0.40773607840784 -2.95734449954996  0.14289129912991
 1 -1.81074946464646 -0.57122342584258 -0.73138724112411
 1  1.64791275267527 -0.34594604840484  4.29738183728373
 1  2.85303263616362 -0.87910980228023  2.97853278267827
 1  2.73651246514651 -2.72122370527053  0.27532058525853
 1 -2.25782841214121 -0.71328060206021  4.27585464726473
 1 -0.75054482248225 -0.39810401400140  4.74499085558556
 1 -1.69380869466947  0.48275072177218  3.37825659095910
 1 -5.47110789798980 -1.65487361856186  2.17076136913691
 1 -5.83504226492649 -3.35488959355936  1.58643148944894
 1 -6.95333271007101 -2.04948059145915  0.82965932763276
 1  2.00460660006001  1.15334527642764  1.68539615091509
 1  1.21723167466747  1.92231447574757  2.98907688138814
 1  0.44651290889089  0.24266863666367  0.02076004370437
 1  4.67161288048805 -1.52398545754576 -3.12273787568757
 1  4.06582741254125 -2.53962574177418 -1.90934804280428
 1 -5.91211334973497 -2.04736566116612 -3.10025348914891
 1  5.23236115741574 -1.25450593049305 -0.08319509580958
 1  5.78485992729273 -0.22741973807381 -1.70022450495049
 1  3.80253016451645  0.64387087918792 -4.53833206270627
 1  3.55890164176418  2.19959103780378 -3.33306564196420
 1  2.29410519981998  1.44622912081208 -4.60476362836284
 1  1.02354626462646  2.66350784728473 -2.55014590659066
 1 -6.91452053815382 -3.88677086098610 -0.77949697089709
 1 -7.53261152605261 -3.64205553605360 -2.38806185968597
 1  3.75970969846985  3.60508986998700  3.53141639583958
 1 -0.35750962976298  4.56469774927493 -2.85236313171317
 1 -4.39456804640464  4.36922350415041 -0.30877202870287
 1 -3.70152890259026  3.80350514411441  1.33994480588059
 1 -3.13863217941794  5.22160245134513  0.33697946784678
 1  8.53096879037904 -2.21355450965096 -1.06594722972297
 1 -1.76947987258726  6.61462191929193 -2.87556240844084
 1 -2.63121547444744  5.95689706550655 -1.36133204070407

