%nproc=4
%Mem=3GB
# td=(NStates=1) B3LYP/SVP 

TD

0 1
 8 -3.13696060626063 -1.48294334983498 -2.78608926322632
 8  2.94754520932093  3.12772443094309  3.20028429932993
 8  3.80616492469247  1.34017114541454  4.31415585918592
 8  7.83635223812381 -1.53656977117712 -0.80380114191419
 8  6.69864402080208 -3.09649044394439 -1.98485493359336
 8 -2.62257316381638  1.65961145024502  1.36778683918392
 7 -0.16878262446245 -2.36015232953295  0.89318415921592
 7 -2.61940397839784 -1.17882301730173 -0.53419556415642
 7  1.14340588998900  0.10312122182218 -0.69843478067807
 7 -1.03887303280328  1.53502891079108 -0.15908680658066
 6 -3.28907405710571 -1.33756131853185  0.76184315821582
 6 -2.58450707680768 -2.46259040524052  1.51806711351135
 6 -1.17417305900590 -2.04706252025203  1.77939592819282
 6 -0.57097689999000 -1.23869506120612  2.82082010251025
 6  0.70387149974997 -1.12808780978098  2.52936413101310
 6  0.92548523472347 -1.88077451215121  1.19118392239224
 6 -4.74742968956896 -1.83282893159316  0.33598048534854
 6  1.80766535793579 -0.48838916851685  3.23712586708671
 6 -4.77931429282928 -1.97039574797480 -1.04083442394239
 6  2.10031798819882 -2.01071926412641  0.26652893159316
 6  2.04421044294429 -0.88068998119812 -0.62882678417842
 6 -3.50161483138314 -1.56116808210821 -1.55964324772477
 6  3.00186124932493 -0.62045279357936 -1.71272517141714
 6 -1.33013158535854 -0.55688954595460  3.89768527682768
 6 -5.73341856595660 -2.07079355965597  1.35695670127013
 6  2.52045170207021  0.49647701590159 -2.42527713771377
 6  1.78426785918592  0.98615430743074  2.84409105070507
 6  1.31038440494049  0.91378802740274 -1.85879198519852
 6  4.16704205330533 -1.52824225332533 -1.98736836693669
 6 -5.84418875497550 -2.59572166256626 -1.99897334553455
 6  5.50582613361336 -1.07412915811581 -1.32447586448645
 6  3.23359345474547  1.17049545214521 -3.63554006320632
 6  0.41308373247325  1.98105325222522 -2.07256900200020
 6  2.96006464676468  1.77522710821082  3.53486883208321
 6 -0.70122395399540  2.22961759395940 -1.16408169606961
 6 -6.93048697519752 -3.13971773587359 -1.75902446114611
 6  6.68640821042104 -2.02844109920992 -1.38615930593059
 6 -1.47292594739474  3.51810404360436 -1.40786886158616
 6 -2.35701979137914  3.47793827282728 -0.23749165536554
 6 -2.06011828422842  2.09862079557956  0.43281221322132
 6 -1.24336431483148  4.67486374657466 -2.29144091209121
 6 -3.44109474597460  4.35426590949095  0.13588782848285
 6 -1.88294218541854  5.90897631583158 -2.33559729252925
 1 -3.42332082528253 -0.24238972887289  1.44239844444445
 1 -2.54853648004800 -3.51822694769477  1.03755410451045
 1 -3.32826264606461 -2.44800824522452  2.44487387608761
 1 -0.29112441724172 -2.61746051115111 -0.19405239523952
 1 -2.00169855955596 -0.22502880638064 -0.71176527892789
 1  1.68882684408441 -0.41212266606661  4.45864796389639
 1  2.81268860176018 -0.92912480378038  2.91923685308531
 1  2.73549236313631 -2.81935351825182  0.07615066826683
 1 -2.15057768706871 -1.12412168616862  4.53148020982098
 1 -0.59596936493649 -0.05094929852985  4.51279763626363
 1 -1.82108142194219  0.15000744744474  3.24767353265327
 1 -5.54211499869987 -1.64135226642664  2.21735602860286
 1 -5.72640140084008 -3.15447955255526  1.45302814911491
 1 -6.93010038683868 -2.00076571997200  1.00166652835284
 1  2.02099823922392  1.29400934283428  1.77360497179718
 1  0.84827477897790  1.55249749404940  3.19974794849485
 1  0.42721097869787  0.39990436023602  0.04461242894289
 1  4.20402612181218 -1.52070512951295 -3.20845644754475
 1  3.83904473427343 -2.64591637083708 -1.67164427242724
 1 -5.19120125852585 -2.47968889348935 -2.97733119691969
 1  5.11736965826583 -0.67034751465147 -0.42748952525253
 1  5.89564100540054 -0.18163515961596 -1.63562804530453
 1  3.93248315981598  0.56507299939994 -3.91144937443744
 1  3.49715546714671  2.14296537523752 -3.33304563996400
 1  2.25636142544254  1.45307980588059 -4.32523567556756
 1  0.69979388938894  2.71139263576358 -2.79436032803280
 1 -7.36770585668567 -3.12092427632763 -0.52401142234223
 1 -7.70903916881688 -3.54004533503350 -2.42867592109211
 1  3.69247297479748  3.60114947594759  3.65609886408641
 1 -0.47611148994900  4.28061934143414 -3.05780367576758
 1 -4.07515610521052  4.68658524032403 -0.67162831433143
 1 -3.91656040574057  3.69781457505751  0.91509232063206
 1 -3.04805312151215  5.37083737483748  0.56086185608561
 1  8.39060475397540 -2.26848000220022 -0.76259689468947
 1 -1.71537446204621  6.63208366546655 -2.97656250845085
 1 -2.52971532443244  6.43185456125613 -1.49301520902090

