%nproc=4
%Mem=3GB
# td=(NStates=1) B3LYP/SVP 

TD

0 1
 8 -3.29096600680068 -1.32257731323132 -2.87915857015702
 8  2.93907436223622  3.15250690919092  3.11444571547155
 8  3.86501080928093  1.31723885218522  4.13437788138814
 8  7.90553915681568 -1.47522363656366 -0.78905966776678
 8  6.63805796219622 -2.88818961386139 -2.09940638873887
 8 -2.66280718721872  1.62028751785179  1.36145620612061
 7 -0.34524027022702 -2.42202851715172  0.94714955575558
 7 -2.74031606960696 -1.19295443044304 -0.63217536213621
 7  1.11126267566757  0.04307521722172 -0.77994293149315
 7 -1.04638378387839  1.41313672157216 -0.24634553245325
 6 -3.34739988968897 -1.30566812921292  0.61681865576558
 6 -2.62116074217422 -2.31321546774677  1.63978928572857
 6 -1.21568721042104 -2.11628944294429  1.80026801540154
 6 -0.63303310561056 -1.29868105980598  2.89234725522552
 6  0.70564167676768 -1.15457045804580  2.40863205780578
 6  0.94370705690569 -1.89993642834283  1.26379118311831
 6 -4.76425137173717 -1.83582923162316  0.19357624492449
 6  1.79692428382838 -0.40366069566957  3.17428958345835
 6 -4.86937329872987 -1.97162587098710 -1.03135347584759
 6  2.07725568196820 -1.81918011021102  0.43516579527953
 6  2.06341236313631 -0.90627253945395 -0.61777567906791
 6 -3.58791346124612 -1.47681964726473 -1.66780406380638
 6  3.03953501670167 -0.64794554285429 -1.70380427932793
 6 -1.34937350955096 -0.56279013601360  3.94548005630563
 6 -5.78397362146215 -2.15687216751675  1.27077808340834
 6  2.66192584948495  0.42814018221822 -2.42985759575958
 6  1.87443687608761  1.09972566456646  2.77697433903390
 6  1.32805617211721  0.79467611621162 -1.77927403340334
 6  4.31210655975597 -1.47023645274527 -1.92556218631863
 6 -5.94764910101010 -2.41147323772377 -1.95375882408241
 6  5.45788133913391 -1.10594233943394 -0.99925334223422
 6  3.14798489388939  1.08523692629263 -3.66315282448245
 6  0.54658708280828  1.96189133603360 -1.95759750485049
 6  3.05850449074908  1.84844442994299  3.39890523572357
 6 -0.59789362096210  2.25665029722972 -1.13868915681568
 6 -6.88534246074607 -3.26673043714371 -1.62578113681368
 6  6.79140871047105 -1.93124137923792 -1.39116980698070
 6 -1.44549320412041  3.50313254645465 -1.26324439913991
 6 -2.34097818721872  3.32266274527453 -0.23220112631263
 6 -2.05257753015302  2.05730666416642  0.37594652665267
 6 -1.30207018541854  4.55802206240624 -2.28395016301630
 6 -3.29429006550655  4.26551703460346  0.34710895059506
 6 -1.76069996119612  5.83865928412841 -2.24594832763276
 1 -3.58145663886389 -0.35808129802980  1.02782698729873
 1 -2.70521214761476 -3.31994711971197  1.28012836193619
 1 -3.41336115591559 -2.24929837423742  2.64929431813181
 1 -0.46551185598560 -2.73394215931593  0.02007901790179
 1 -2.04174256395640 -0.46478278177818 -0.82288639103910
 1  1.54458241964196 -0.31961341514151  4.29100119921992
 1  2.69552688558856 -0.98144003530353  3.15190011941194
 1  2.76020483438344 -2.75085666856686  0.34335738893889
 1 -2.13754638393839 -1.23082235623562  4.46923398519852
 1 -0.65997576557656 -0.08522272587259  4.55124148064807
 1 -1.99549886368637  0.33790623732373  3.28056682198220
 1 -5.82705349254925 -1.35398352955295  1.96861115411541
 1 -5.84539330003000 -3.07785188978898  1.75894874117412
 1 -6.73864124092409 -2.11523716711671  0.82476883858386
 1  2.14513065246525  1.09744968686869  1.77781539283928
 1  0.79024897639764  1.57804004830483  3.12008998269827
 1  0.32119037663766  0.30182455225523 -0.38755078737874
 1  4.62289800900090 -1.04927798679868 -3.11130673257326
 1  4.03492432223222 -2.42657443664366 -1.82273938193819
 1 -5.69585172357236 -2.32742366696670 -2.93745720952095
 1  5.42669059035904 -1.55096557645764  0.15407863156316
 1  5.50723216451645 -0.01669866596660 -0.75063954645465
 1  4.07352726422642  0.56415290739074 -4.09287751725173
 1  3.56076182778278  2.10589166786679 -3.54994733013301
 1  2.50233602290229  1.09583408130813 -4.52539569156916
 1  0.72773668366837  2.60437193369337 -2.82268316031603
 1 -7.11997108320832 -3.58153033693369 -0.54857387858786
 1 -7.55877414231423 -3.58821015151515 -2.30179323282328
 1  3.69695342284228  3.52158151915192  3.28426168036804
 1 -0.80371425022502  4.13055433493349 -3.33704159955996
 1 -3.94399298889889  4.61326790859086 -0.41046219771977
 1 -3.99467821752175  3.59583437703770  0.95206601800180
 1 -2.74639295549555  5.04831512261226  0.79398516841684
 1  8.54959065256526 -2.09101225542554 -0.89014964996500
 1 -1.51615454005401  6.50003046014602 -2.97002185438544
 1 -2.52751510441044  6.22668404420442 -1.56992289978998

