%nproc=4
%Mem=3GB
# td=(NStates=1) B3LYP/SVP 

TD

0 1
 8 -3.21503841404140 -1.35720077557756 -2.89768042234223
 8  3.01004145894589  3.26839849834983  3.15933020392039
 8  3.83150745894589  1.42221935023502  4.26667111071107
 8  7.57378598149815 -1.74785089928993 -0.52368313011301
 8  6.70382453885389 -3.02261305620562 -2.18740518861886
 8 -2.66401730823082  1.58279376847685  1.38296835733573
 7 -0.23576932313231 -2.39097541184118  0.98408324912491
 7 -2.61145318331833 -1.34220935593559 -0.61818396299630
 7  1.15164671407141  0.14013492319232 -0.66561149834983
 7 -1.09532867836784  1.40980638853885 -0.29388028592859
 6 -3.33223837353735 -1.44265182758276  0.58316529042904
 6 -2.60600922702270 -2.35716986318632  1.65780108690869
 6 -1.18744438613861 -2.10437825182518  1.94784277287729
 6 -0.62205200750075 -1.19572076377638  2.82920094059406
 6  0.78237935053505 -1.14549955095510  2.44322551715172
 6  0.99357204340434 -1.83384981968197  1.32466727072707
 6 -4.72411735833583 -1.95254090279028  0.27176406370637
 6  1.80474506590659 -0.31852218181818  3.24204635913591
 6 -4.75810217161716 -2.03148185658566 -1.12067240774077
 6  2.08797675407541 -1.92023021522152  0.31501378007801
 6  2.11900792269227 -0.91451336353635 -0.64563846534653
 6 -3.40478514841484 -1.49190115541554 -1.69325660906091
 6  2.90872193539354 -0.73275402370237 -1.82352625152515
 6 -1.21594016621662 -0.47485134213421  3.98153366166617
 6 -5.69036426052605 -2.22453893419342  1.37005801140114
 6  2.47198685558556  0.41615898409841 -2.53600821082108
 6  1.90092952535254  1.17543323532353  2.80182682428243
 6  1.39065243174317  0.89757640624062 -1.81242734873487
 6  4.21159650875087 -1.39484891399140 -2.21405103520352
 6 -5.80967530363036 -2.43510560096010 -2.09991343954395
 6  5.33416896789679 -1.18559030423042 -1.05387880478048
 6  3.14560465586559  1.16439484208421 -3.70215672487249
 6  0.46737916201620  1.93883903080308 -1.99351109620962
 6  3.00595923622362  1.97634722022202  3.50044538973897
 6 -0.66887071867187  2.27582221442144 -1.16216150405041
 6 -6.98354228072807 -3.07297106120612 -1.89239779847985
 6  6.60465003460346 -2.12964121922192 -1.43615430543054
 6 -1.44739339413941  3.53658589178918 -1.20710878557856
 6 -2.28493258265827  3.45666614561456 -0.17094500070007
 6 -2.07229950235023  2.02308324182418  0.42473140514051
 6 -1.31501147954795  4.53843010321032 -2.24943671167117
 6 -3.38060869736974  4.27731821472147  0.36344058375838
 6 -1.92280617181718  5.79719513771377 -2.25301903470347
 1 -3.38209670287029 -0.30618610851085  0.99652385698570
 1 -2.96902852925293 -3.38845397039704  1.10959130823082
 1 -3.09641946174618 -2.46708015241524  2.73683307200720
 1 -0.41192649744974 -2.53847261236124  0.06869387938794
 1 -2.06141453115312 -0.45281158465847 -0.76960106250625
 1  1.70269823122312 -0.40785223902390  4.14514661376138
 1  2.61692902580258 -0.74100599189919  2.75789071847185
 1  2.89769858375838 -2.58001958485849  0.27681073427343
 1 -1.90618324762476 -1.23992326632663  4.76688375017502
 1 -0.32793256125613  0.14921071747175  4.62966932343234
 1 -1.71312062586259  0.19877232393239  3.27135590089009
 1 -5.48574936213621 -1.58740687188719  2.25563985698570
 1 -5.48823758445845 -3.19625372997300  1.59562240854085
 1 -6.74299167596760 -1.89732537593759  0.99904626632663
 1  1.74707084648465  1.41121106300630  1.69646725802580
 1  0.87838779027903  1.80804304860486  2.86818479217922
 1  0.55773403100310  0.77484185398540  0.04682264996500
 1  4.57437315651565 -1.13336639563956 -3.28591419331933
 1  4.15631646144614 -2.60911269046905 -2.06782389038904
 1 -5.53269540794079 -2.35056598119812 -2.94083754755476
 1  5.15516343764376 -1.64459493939394 -0.02530930723072
 1  5.68020946224622 -0.10919791589159 -0.99949443194319
 1  4.20391030253025  0.87257374947495 -3.87142537203720
 1  3.17656340794079  2.46880795949595 -3.29253158855886
 1  2.46522231153115  1.04964946284628 -4.66155930793079
 1  0.80003391339134  2.67151864836484 -2.66493738573857
 1 -7.28148723482348 -3.43956614051405 -0.96877589878988
 1 -7.44677294219422 -3.53302463296330 -2.79720277377738
 1  3.62683641114111  3.62295165616562  3.57704095829583
 1 -0.42895677447745  4.54803608310831 -2.90595849124913
 1 -4.16955554515452  4.45778236003600 -0.34986613811381
 1 -3.77547629732973  3.74796959055906  1.13872468386839
 1 -2.99271758795880  5.30066035713571  0.80258602850285
 1  8.41792748624863 -2.13659681388139 -0.64585522052205
 1 -1.76792971757176  6.41952240934093 -3.06186103830383
 1 -2.84477683058306  6.08551992779278 -1.64027993549355

