%nproc=4
%Mem=4GB
# td=(NStates=1) B3LYP/SVP 

TD

0 1
 8 -5.28547477747775  0.03864930453045 -3.25649543924392
 8  3.00764076957696  2.94522177687769  3.11321740014001
 8  3.36280462906291  0.79033443244324  3.07760964606461
 8  1.69520716021602 -7.30819708980898  1.36039454575458
 8  0.59147403540354 -6.98272469606961 -0.62058004090409
 8  1.63661070917092  3.95438856165617  0.01278078547855
 7 -2.36071568266827 -0.97872630283028  0.66650366696670
 7 -4.28119300070007  0.68920658715872 -1.23833218801880
 7  1.82379277087709 -0.62869444244424 -0.43477195479548
 7  2.59389493139314  1.83408915441544 -0.49004575127513
 6 -4.76293268446845  1.27371886888689  0.03404920472047
 6 -4.37694508730873  0.24692485778578  1.20079743744374
 6 -2.90168526412641  0.03652390909091  1.37893990699070
 6 -1.95220431713171  0.62727768496850  2.19904307390739
 6 -0.67254386468647 -0.00801623712371  1.83528420602060
 6 -1.05754994279428 -1.05681874077408  0.81221304070407
 6 -6.25948830493049  1.38821661096110 -0.12564778017802
 6  0.56284489108911  0.13391406790679  2.49952897299730
 6 -6.59114962946295  0.90872012041204 -1.31948767746775
 6 -0.16573282938294 -2.08456719361936  0.19616169766977
 6  1.17270416661666 -1.91788133473347 -0.35549713191319
 6 -5.40343094339434  0.45800401510151 -2.12632994449445
 6  2.05046913211321 -2.92506304470447 -0.85371238053805
 6 -2.24826052695270  1.71497725462546  3.16740113031303
 6 -7.15241273447345  1.96124425362536  1.02562654855486
 6  3.19498583228323 -2.34238418961896 -1.25066631173117
 6  1.11692772007201  1.60474896829683  2.57633126902690
 6  3.10506858215822 -0.90094872047205 -0.99751373957396
 6  1.55750952115212 -4.35362132653265 -0.92907462436244
 6 -7.98736464246425  0.84099573717372 -2.02851123892389
 6  1.79967753335334 -5.05218615321532  0.33766976247625
 6  4.30073568256826 -3.06260472927293 -1.76146537783778
 6  4.03286415701570  0.13506290979098 -1.28420310271027
 6  2.57554817601760  1.68156574477448  2.88154405430543
 6  3.71059543734373  1.47068247974797 -1.05053162046205
 6 -9.16183116651665  0.93469562986299 -1.52578739403940
 6  1.29672473717372 -6.51994864506451  0.37019567856786
 6  4.51740057465747  2.68315507040704 -1.43839092219222
 6  3.80817008540854  3.79363988768877 -1.11763305760576
 6  2.53981555235524  3.27312516361636 -0.44076283898390
 6  5.81889549484949  2.50007484808481 -2.04648660376038
 6  4.11666728652865  5.19957483328333 -1.26774878827883
 6  6.65295535313531  3.48830451525153 -2.59024350125013
 1 -4.34541902800280  2.33743482358236  0.55178821912191
 1 -4.92836749364936 -0.78138961506151  1.25948069226923
 1 -4.84530137003700  0.79094309400940  2.04560146984698
 1 -2.88623766366637 -1.70217761326133 -0.04144106590659
 1 -3.31274227152715  0.59873179027903 -1.53573112401240
 1  0.64597903260326 -0.16109579757976  3.54975452355236
 1  1.36674068346835 -0.58776344374437  2.09014414721472
 1 -0.62360102100210 -3.04412187718772 -0.03871886958696
 1 -3.19868001330133  2.02494375847585  3.32770275997600
 1 -1.84386560166017  1.43758312221222  4.16286467436744
 1 -1.92904928602860  2.76906072587259  2.95495291709171
 1 -6.48163161406141  2.68863766726673  1.72156438943894
 1 -7.69242900990099  1.19420923012301  1.82141915261526
 1 -7.96212214941494  2.60135621872187  0.71965044524453
 1  0.84619732813281  2.13856589318932  1.48379644694469
 1  0.50205331783178  2.39790661266127  3.07483330753075
 1  1.77735206160616  0.32948359335934 -0.27937330263026
 1  2.07658545074507 -4.84874870527053 -1.76962157185719
 1  0.36944874237424 -4.49006885438544 -1.03080156355636
 1 -7.62652371417142  0.74963519411941 -3.13777971617162
 1  1.24038622752275 -4.63792497219722  1.06320389698970
 1  2.84140041014101 -5.08747595209521  0.68685650055006
 1  4.02242730503050 -4.16784423662366 -1.94350781188119
 1  5.17417851625163 -2.99896874707471 -1.02691630923092
 1  4.75994742784278 -2.52719495209521 -2.58766784038404
 1  4.89278889838984 -0.45659775427543 -1.68853502920292
 1 -9.16898049854986  0.80722817831783 -0.44821751155115
 1 -10.21283941754175  1.29264067976798 -2.12551865186519
 1  3.92431711821182  3.04529791349135  3.40081484718472
 1  6.18099156735674  1.36465861506151 -2.01678049304931
 1  5.16928762856286  5.68531129532953 -0.82930155005501
 1  4.17411943444344  5.47184395009501 -2.35131767666767
 1  3.27710538013801  5.72198180458046 -0.75961770337034
 1  1.49812712081208 -8.19841099819982  1.29598565346535
 1  7.63469591399140  2.95366090599060 -3.32902017531753
 1  6.43446533403340  4.55787129932993 -2.58909126162616

