%nproc=4
%Mem=4GB
# td=(NStates=1) B3LYP/SVP 

TD

0 1
 8 -5.39819604960496  0.22570801040104 -3.29455924562456
 8  3.01356136163616  2.97728498319832  3.15297137553755
 8  3.34945329392939  0.77961336033603  3.04115600070007
 8  1.65711335083508 -7.22148841894189  1.44599310561056
 8  0.42082697069707 -6.92005842944294 -0.39282726562656
 8  1.80335738383838  3.94691781458146 -0.10663115571557
 7 -2.40881049214922 -0.91349978017802  0.72282929952995
 7 -4.40849573097310  0.62363002950295 -1.22736109090909
 7  1.87831822342234 -0.68014958795880 -0.40957943554355
 7  2.72582812471247  1.87815356085609 -0.44260100680068
 6 -4.82256864806481  1.05166666366637 -0.00633483368337
 6 -4.53818121092109  0.10899106440644  1.30703806150615
 6 -2.98961405700570 -0.07096683998400  1.46641865486549
 6 -2.04688378507851  0.55833079027903  2.15595876547655
 6 -0.68331494179418  0.11432599709971  1.82084276187619
 6 -1.01083527132713 -0.87129018791879  0.73707552695270
 6 -6.31633398949895  1.20911870117012 -0.12818803420342
 6  0.53243184978498  0.25896657315732  2.47521654175418
 6 -6.72558307280728  0.79570881928193 -1.41821755045505
 6 -0.18362461856186 -1.81627036393639  0.11985406690669
 6  1.09054595079508 -1.76912645924592 -0.33833541574157
 6 -5.51410201050105  0.47710592529253 -2.10073738523852
 6  1.96938102330233 -2.89254979337934 -0.91572858215822
 6 -2.28473417431743  1.76402215911591  3.16227061726173
 6 -7.18791628482848  1.77449557875788  0.95355934183418
 6  3.11751808550855 -2.27694764596460 -1.40844208930893
 6  1.13607963526353  1.75567406080608  2.52293592949295
 6  3.09550762606261 -0.86006463206321 -1.19506349454945
 6  1.56789055925593 -4.32420838523852 -0.99356107300730
 6 -7.99243514951495  0.67295893349335 -2.00973936173617
 6  1.97110467606761 -5.15388632323232  0.35390138563856
 6  4.17992360136014 -3.02216068486849 -2.14174340564056
 6  3.98329920052005  0.10876027952795 -1.25277996039604
 6  2.61302192339234  1.70261784998500  2.89455535543554
 6  3.80468484628463  1.41417682918292 -1.04143071037104
 6 -9.20420540394039  0.67522968326833 -1.34988980428043
 6  1.20526559125913 -6.44957160736074  0.39189784878488
 6  4.68831766636664  2.58199495439544 -1.43806088918892
 6  4.05969523792379  3.77235775947595 -1.01705299959996
 6  2.76904847564756  3.29162701380138 -0.44004276697670
 6  5.95074868016802  2.44809965056506 -2.06340829592959
 6  4.45981160096010  5.21243611941194 -1.06556857025703
 6  6.77434749234923  3.44234991979198 -2.41934641154115
 1 -4.23476796289629  2.06149722982298  0.25082812311231
 1 -5.16396105300530 -0.66468794489449  0.88014275847585
 1 -4.88464530443044  0.56084008370837  2.13918082778278
 1 -2.65566460636064 -1.37801519701970 -0.12191911371137
 1 -3.50855185248525  0.74732664976498 -1.61803935483548
 1  0.55122955765577 -0.02984267226723  3.70663021112111
 1  1.29989399879988 -0.23618828622862  1.91223635643564
 1 -0.69599826072607 -2.71382884788479 -0.01509650735074
 1 -3.37591773707371  2.25717698179818  3.05085507520752
 1 -2.20265148024803  1.45698506240624  4.40710909880988
 1 -1.53260964206421  2.60849466926693  2.79983740554055
 1 -6.62376582748275  2.41359016251625  1.69045127812781
 1 -7.70994076107611  1.04267407660766  1.46724373507351
 1 -7.90905684288429  2.41167725082508  0.53437191739174
 1  0.96360906930693  2.03283532013201  1.43541160846085
 1  0.59479259175918  2.45196201820182  3.24077990219022
 1  1.57591191759176  0.20681132613261 -0.08493385868587
 1  2.16016380858086 -4.78470230063006 -1.91089569926993
 1  0.48605040254025 -4.55059490699070 -1.18915739913991
 1 -8.02924398619862  0.43128335893589 -3.01367730593059
 1  1.69874206310631 -4.49073025272527  1.24957253385339
 1  3.08861513161316 -5.26619382388239  0.48971678657866
 1  3.87054211651165 -3.87773522572257 -2.56622008310831
 1  5.22751384978498 -3.24404325452545 -1.57418103570357
 1  4.38507994109411 -2.49968220082008 -3.12837191079108
 1  4.79453907340734 -0.16307840234023 -1.94246042174217
 1 -9.45200880138014  0.81111856735674 -0.24444713451345
 1 -10.23253138673867  0.73393480918092 -1.86835293529353
 1  3.94693938043804  2.90853423712371  3.49915468116812
 1  6.23186665486549  1.45088723792379 -2.38105692069207
 1  5.28066876667667  5.47906067026703 -0.18648726862686
 1  4.62335435793579  5.55609237493749 -2.17989053395340
 1  3.36498416801680  5.79943955035503 -0.83934567616762
 1  0.72371968006801 -7.92565372247225  1.52897895279528
 1  7.81602404680468  3.19982552245225 -2.48955622892289
 1  6.34884677217722  4.55421093329333 -2.28802115461546

