%nproc=4
%Mem=3GB
# td=(NStates=1) B3LYP/SVP 

TD

0 1
 8 -3.27012392259226 -1.36153120862086 -2.82947360166017
 8  2.90333078787879  3.16903856235624  3.15235950685069
 8  3.43368767696770  1.54322145044504  4.64940938453845
 8  7.74685328822882 -1.60601671587159 -0.97529829162916
 8  6.66588074447445 -3.14198499339934 -2.20158660676068
 8 -2.67452835933593  1.69763525262526  1.47292735323532
 7 -0.15016076227623 -2.52110842514251  1.01708654945495
 7 -2.61518355635564 -1.30686582158216 -0.58736088068807
 7  1.10447199659966  0.05989689938994 -0.72074701190119
 7 -0.97977712321232  1.34439984788479 -0.16089698759876
 6 -3.39064421412141 -1.37420498289829  0.66590356425643
 6 -2.59457808390839 -2.42751689788979  1.50611591839184
 6 -1.19916555825583 -2.14580239423942  1.85320330893089
 6 -0.53980378267827 -1.29401059275928  2.83101112161216
 6  0.79322043464346 -1.19026402740274  2.49682087668767
 6  1.07252993919392 -1.86253268796880  1.29821462546255
 6 -4.71486643324332 -1.84888053675368  0.29307619491949
 6  1.93364795619562 -0.40325065466547  3.21068322282228
 6 -4.76378273967397 -1.93221192959296 -1.11240158065807
 6  2.18618657505751 -1.81632982518252  0.37285956465647
 6  2.13782980488049 -0.93997590979098 -0.66071997349735
 6 -3.45937060696070 -1.45927789308931 -1.57770505390539
 6  3.06263732693269 -0.62755350365037 -1.72627652655266
 6 -1.31158973117312 -0.52400625762576  3.86921242954295
 6 -5.74164938903890 -2.03039952025203  1.24429543514351
 6  2.59144880178018  0.50845821402140 -2.37885249524952
 6  1.77925735813581  1.11667735973597  2.89958660026003
 6  1.46874024052405  0.93993064166417 -1.73004911091109
 6  4.28219356845685 -1.48890831993199 -2.10054968506851
 6 -5.93227756385639 -2.29785187558756 -1.96613006120612
 6  5.49590514151415 -1.13371511671167 -1.26342975987599
 6  3.07257735313531  1.25965436803680 -3.62965947514751
 6  0.51246367046705  1.96251139803980 -2.04706645174517
 6  2.86570521082108  1.96123570907091  3.68718406360636
 6 -0.58139197079708  2.31437606980698 -1.15961124902490
 6 -6.97920184668467 -3.10091385548555 -1.72900145884588
 6  6.62075164476448 -2.11342959805981 -1.61718240824082
 6 -1.38037669246925  3.50387262046205 -1.26663473817382
 6 -2.31186527592759  3.39245972497250 -0.27190509670967
 6 -1.99278155055506  2.13971490499050  0.53006193819382
 6 -1.22196217461746  4.48800506070607 -2.33448521652165
 6 -3.44797543404340  4.28745922882288  0.28794303400340
 6 -2.00840473167317  5.55486090429043 -2.57929166196620
 1 -3.45195368856886 -0.36047153705371  1.09049325392539
 1 -2.54561618801880 -3.57412253725373  1.13963431253125
 1 -3.17525734553455 -2.60904434883488  2.41730111881188
 1 -0.36097140194019 -2.89795856095610 -0.00668365836584
 1 -1.96865525522552 -0.60307661116112 -0.73534763716372
 1  2.30344830623062 -0.67369882368237  4.37135923502350
 1  2.87458479137914 -0.76866875817582  2.78431336073607
 1  2.88203701760176 -2.64790637353735  0.33146619981998
 1 -1.91576420572057 -1.38460773477348  4.24048110991099
 1 -0.56234600260026 -0.33070727432743  4.69390574707471
 1 -1.98915822962296  0.12621506820682  3.29428819411941
 1 -5.37968875607561 -1.54779291049105  2.14445873887389
 1 -6.09097785848585 -3.22351645624562  1.56001884818482
 1 -6.69950732753275 -1.78631427482748  0.93779014071407
 1  1.86644278367837  1.28947888978898  1.84015162646265
 1  0.79724967646765  1.62797504180418  3.36487446114612
 1  0.10569882748275  0.16310067986799 -0.14895692799280
 1  4.49006472567257 -1.25615867486749 -3.30919652155216
 1  4.00832166196620 -2.53539531873187 -1.94684179217922
 1 -5.71350348874887 -1.90448137273727 -3.01138460226023
 1  5.20663858515852 -1.26235671557156 -0.21689846614661
 1  5.90854229552955 -0.01379837593759 -1.41445592809281
 1  3.98976888838884  0.58203469556956 -3.93648187768777
 1  3.53652940454045  2.25521660036004 -3.75949828522852
 1  2.55391118041804  1.26230072797280 -4.44615776777678
 1  0.85925983598360  2.61960345684568 -2.91521241324132
 1 -7.24056314241424 -3.48759094299430 -0.89444846604660
 1 -7.78989725462546 -3.20258158865887 -2.51830488398840
 1  3.38765249274928  3.75315467646765  3.88514176837684
 1 -0.11613549234923  4.33974525402540 -2.76669456485649
 1 -4.05627421702170  4.68939552135213 -0.61609276077608
 1 -3.85621437113711  3.54695948954895  1.13369418081808
 1 -3.13120143634363  5.28392868396840  0.53802957285729
 1  8.50286598009801 -2.39337249144914 -0.75625626062606
 1 -1.57302022662266  6.15689614671467 -3.50200505270527
 1 -2.91092344524452  5.84957633343334 -2.11271717921792

