%nproc=4
%Mem=3GB
# td=(NStates=1) B3LYP/SVP 

TD

0 1
 8 -3.43654056425643 -1.24977003250325 -2.83790444474447
 8  3.03584403920392  3.18988064656466  2.76421069196920
 8  3.65609991819182  1.56659378767877  4.16562100570057
 8  7.70137874077408 -1.64969108330833 -0.58066882868287
 8  6.66430058645865 -3.05352614751475 -2.03779022712271
 8 -2.74826573307331  1.53708919801980  1.35609567006701
 7 -0.20746649284928 -2.43704001830183  0.89414425522552
 7 -2.70537257525753 -1.15688082308231 -0.51622376697670
 7  1.15913746314631 -0.00843993429343 -0.72574751195120
 7 -1.10352949844984  1.41045645354535 -0.17508840674067
 6 -3.47291244094409 -1.31015857825783  0.71434840874087
 6 -2.56323494959496 -2.36759090529053  1.58669397619762
 6 -1.18859450115012 -2.06934474847485  1.70477846644664
 6 -0.55308511081108 -1.27193838553855  2.86532455295530
 6  0.74785589818982 -1.05805080608061  2.44932612721272
 6  0.93905659185919 -1.80129656435644  1.27164196819682
 6 -4.77262220882088 -1.91429707840784  0.28192507980798
 6  1.79575416681668 -0.35702603220322  3.24581673617362
 6 -4.75415177657766 -2.02118082648265 -1.03935427592759
 6  2.14686264266427 -1.79491768396840  0.37472975167517
 6  2.06772279417942 -0.96597851005101 -0.67238113961396
 6 -3.58183285318532 -1.40812277757776 -1.63697098049805
 6  3.09379044224422 -0.64538528682868 -1.79077297619762
 6 -1.45662423462346 -0.58073193019302  3.93835934423442
 6 -5.91044626872687 -2.44853133343334  1.25082608820882
 6  2.64084374127413  0.42918028622862 -2.43679828982898
 6  1.84300373277328  1.11637732973297  2.71014765636564
 6  1.36042940944094  0.90463711231123 -1.80942704870487
 6  4.33602895199520 -1.48304773387339 -1.99300893099310
 6 -5.79438377447745 -2.46218830923092 -1.92891633983398
 6  5.53920947194719 -1.18637038223822 -1.21908532543254
 6  3.24559465486549  1.08943734633463 -3.64295080428043
 6  0.49490191429143  2.01031617851785 -2.05456720182018
 6  2.95993463376338  1.93457304280428  3.28362370757076
 6 -0.59842367396740  2.28207283948395 -1.14837012491249
 6 -6.78961288778878 -3.28303206730673 -1.81638019671967
 6  6.66810638023802 -2.04595285038504 -1.43282397239724
 6 -1.38311696649665  3.55721795499550 -1.21393946864686
 6 -2.24539862926293  3.43432391139114 -0.11115902210221
 6 -2.11593386578658  2.03415434893489  0.50290922292229
 6 -1.19137911631163  4.70829708990899 -2.12857462546255
 6 -3.30955159165917  4.38884936783678  0.36213045274527
 6 -1.79843373457346  5.82212763096310 -2.08270200300030
 1 -3.56116460966097 -0.45807129702970  1.28131233583358
 1 -2.69366099249925 -3.39374449944994  1.20765111421142
 1 -2.98466828662866 -2.40777422182218  2.72989237793779
 1 -0.36121142594259 -2.88396716181618 -0.06722971297130
 1 -2.01955034473447 -0.39392569606961 -0.66455055745575
 1  1.71892985438544 -0.30324177797780  4.38502060116012
 1  2.79435676857686 -0.77234912621262  2.96941187058706
 1  2.85476429032903 -2.66965854875488  0.09706275947595
 1 -2.28715134443444 -1.16372564656466  4.32499956175618
 1 -0.79340910891089 -0.21465566916692  4.90552690919092
 1 -1.93455276907691  0.31114356105611  3.33207197249725
 1 -5.83145393259326 -1.82279041024102  2.01807610061006
 1 -5.78536729742974 -3.54365847044705  1.69625247154715
 1 -7.00118749554955 -2.22887853125312  0.88972533423342
 1  1.87485362476248  1.13879382128213  1.49783739503950
 1  0.78660861236124  1.46733897819782  3.00960893459346
 1  0.41650990859086 -0.01699732993299  0.01209917761776
 1  4.71436715591559 -1.45891895089509 -3.00264586648665
 1  4.07212804260426 -2.67334911411141 -1.90336744474447
 1 -5.73054519291929 -2.12164308890889 -2.90896436023602
 1  5.28594651595160 -1.25890637053705 -0.04687146344634
 1  5.74776621792179  0.08877188108811 -1.17266174867487
 1  4.14926483798380  0.52730922302230 -3.92220044954496
 1  3.52172792439244  2.11726280498050 -3.26910924632463
 1  2.60995678497850  1.15257975587559 -4.50888404040404
 1  0.76039994999500  2.72027352385238 -2.80868176017602
 1 -7.20945003110311 -3.77711989588959 -0.80460948214821
 1 -7.49528779367937 -3.57133846434643 -2.71625467896790
 1  3.99863359085909  3.64818417941794  2.98814206840684
 1 -0.30029390819082  4.66322760226023 -2.55340323572357
 1 -4.14234282388239  4.33950053185319 -0.24409556105611
 1 -3.77366611631163  4.09228402200220  1.44440525192519
 1 -2.97313562976298  5.46759705080508  0.39225499539954
 1  8.44804049754975 -2.15490864506451 -0.71812244724473
 1 -1.42001492609261  6.69225968306831 -2.75465031723172
 1 -2.72476482938294  5.93647502330233 -1.62062797029703

