%nproc=4
%Mem=4GB
# td=(NStates=1) B3LYP/SVP 

TD

0 1
 8 -5.41897812781278 -0.00932549294929 -3.31549133883388
 8  3.04995500100010  2.81349860456046  3.34392047044704
 8  3.42088043664366  0.68897429642964  2.92635452055205
 8  1.48731637113711 -7.20941721182118  1.51292979927993
 8  0.58751363936394 -6.93080950455045 -0.49861784468447
 8  1.67189423752375  3.95234835763576  0.10335984338434
 7 -2.27660727182718 -0.84329275947595  0.61600861746175
 7 -4.38864374577458  0.50604827132713 -1.31584993979398
 7  1.90160055165517 -0.71117269026903 -0.48308678627863
 7  2.66440198209821  1.87666341184118 -0.42995974267427
 6 -4.78787517871787  1.22713421042104 -0.10538473867387
 6 -4.40748814161416  0.39675984128413  1.16072343004300
 6 -2.91550664626463  0.04137439413941  1.34977699069907
 6 -2.02301139783978  0.66305126232623  2.13378654825483
 6 -0.68640525082508  0.03501806630663  1.88942962056206
 6 -0.95308949674968 -0.94270732963296  0.76975879527953
 6 -6.25292764886489  1.30865865516552 -0.20437565296530
 6  0.54756336293629  0.15233591009101  2.55619463956396
 6 -6.69000951545154  0.71710095849585 -1.37207293599360
 6 -0.17311356745675 -1.96216495339534  0.19486156765677
 6  1.13679057525753 -1.78061760836084 -0.22800438263826
 6 -5.41423202350235  0.33770198489849 -2.14935224672467
 6  1.99336342154215 -2.89026956535654 -0.85775278457846
 6 -2.28343404430443  1.67937369426943  3.25387977817782
 6 -6.93140063326333  2.04009213841384  0.81607559345935
 6  3.17825415911591 -2.36919687088709 -1.34151539663966
 6  1.12914894219422  1.50457895129513  2.67090072597260
 6  3.12426050135014 -0.87196582218222 -1.02411639983998
 6  1.67674144434443 -4.38601456585659 -0.83488520542054
 6 -8.00665657165717  0.71595323292329 -1.96480486828683
 6  1.80641820742074 -5.09040997559756  0.47550354585459
 6  4.20096570557056 -2.97481595039504 -2.21033026432643
 6  3.97858872947295  0.15968537203720 -1.46053073547355
 6  2.60022064326433  1.60985857405741  3.01003690359036
 6  3.71667604540454  1.53186859835984 -1.00158672597260
 6 -9.16524150755076  0.87435959625963 -1.36615143044304
 6  1.24702976767677 -6.41489814001400  0.33855251425143
 6  4.58580741534153  2.66522327722772 -1.48214529762976
 6  3.92552182058206  3.82519304300430 -0.99642093639364
 6  2.68198976977698  3.30557840894089 -0.31857061976198
 6  5.71685529082908  2.52677751835184 -2.19487144224422
 6  4.12499811961196  5.23689856565657 -1.16188820222022
 6  6.66142620022002  3.46757244204420 -2.65835031193119
 1 -4.32549703580358  2.26763784388439 -0.08062502220222
 1 -4.94409906680668 -0.60171164726473  1.17784252845285
 1 -4.70402724262426  1.03342734243424  2.01216812651265
 1 -2.81620065996600 -1.09194659015902 -0.27641456325633
 1 -3.42770376767677  0.68540045714571 -1.59263681458146
 1  0.45663009770977 -0.23592328032803  3.60247979607961
 1  1.36507051645165 -0.31499616701670  2.00571570437044
 1 -0.81374003490349 -2.87473493849385 -0.14832983068307
 1 -3.42144228952895  1.77033829792979  3.51666165586559
 1 -1.89553076817682  1.36420578447845  4.17416580448045
 1 -1.89540592169217  2.76109992979298  3.03750117191719
 1 -6.34786823772377  2.77836664016402  1.41888412141214
 1 -7.26332609960996  1.31888169736974  1.73250026072607
 1 -7.78564450165016  2.55610169326933  0.56045452565257
 1  1.10516322472247  1.99007104370437  1.57462552985299
 1  0.90973408590859  2.10185700770077  3.58791461566157
 1  1.61499582598260  0.08752939793979 -0.09950531583158
 1  2.45352314451445 -5.10567439783978 -1.52174678437844
 1  0.65939773727373 -4.47537738523852 -1.25559404280428
 1 -8.25863692549255  0.53192342294229 -3.13321926012601
 1  1.25190737963796 -4.24754593429343  1.32694027062706
 1  2.83177944804480 -5.17756496099610  0.71479929482948
 1  4.26454151645165 -4.09425687788779 -2.16871033213321
 1  5.31673277167717 -2.80787963816382 -1.64435805340534
 1  4.10971240434043 -2.81911414401440 -3.31410048364837
 1  4.96590621012101 -0.02647474197420 -2.11218739443944
 1 -9.14895849634964  0.83371082658266 -0.41971466126613
 1 -10.12488062166217  0.71490290599060 -1.82711881188119
 1  4.14435912241224  2.82409579327933  3.41090585628563
 1  5.88243171137114  1.47524967416742 -2.41016983198320
 1  5.08362906270627  5.66504926912691 -0.34859347924792
 1  4.48237025952595  5.52066883258326 -2.20602314721472
 1  3.31592926252625  5.93828343474347 -1.05904764636464
 1  1.07189449754975 -8.12666382348235  1.35522157705771
 1  7.58822126652665  3.28283382328233 -3.31814908820882
 1  6.45755764326432  4.40931644384438 -2.24434678717872

