%nproc=4
%Mem=4GB
# td=(NStates=1) B3LYP/SVP 

TD

0 1
 8 -5.18646487648765 -0.01859642004200 -3.14326411611161
 8  2.94217422292229  2.77808506320632  3.06733281168117
 8  3.34581292989299  0.54398979797980  3.18489037413741
 8  1.45093273277328 -7.08668493859386  1.53639214551455
 8  0.50017490549055 -6.99270569416942 -0.43906188908891
 8  1.86188323642364  4.08980210301030  0.09938944634463
 7 -2.36922653375338 -0.82541097129713  0.55324234083408
 7 -4.35900078147815  0.77772543904390 -1.22302065686569
 7  1.89089948154815 -0.59847142014201 -0.39477795539554
 7  2.48877441934193  1.93491923742374 -0.59260600730073
 6 -4.82818921012101  1.22352384938494  0.06411221102110
 6 -4.41192858565857  0.39521968726873  1.24673203090309
 6 -2.98932402800280  0.09233949064906  1.38522053505351
 6 -2.03195229192919  0.60180513771377  2.15924909450945
 6 -0.80378698899890 -0.04228966446645  1.90338101570157
 6 -1.01733592139214 -0.92099515841584  0.78540035943594
 6 -6.29793214931493  1.35467325662566 -0.15520073547355
 6  0.50509911651165  0.12575325182518  2.69906892699270
 6 -6.64319483398340  0.83960320872087 -1.42636836553655
 6 -0.07809406550655 -1.95662439933993  0.27176925842584
 6  1.17657455365537 -1.78660820742074 -0.22707428962896
 6 -5.37719832013201  0.50362857755776 -2.06179349084909
 6  1.98625271047105 -2.75948648704870 -0.92960997029703
 6 -2.22271797269727  1.66121187808781  3.23825821602160
 6 -7.15473296649665  1.78246637583758  0.89267325322532
 6  3.17588392209221 -2.22884283548355 -1.42156340144014
 6  1.18781480878088  1.47897639103910  2.48305194109411
 6  3.04405248054805 -0.82355098069807 -1.12387637583758
 6  1.67512128232823 -4.29323528792879 -1.03096481338134
 6 -7.87349325532553  0.66533817141714 -2.07662605040504
 6  1.88013557915792 -5.05302623722372  0.38748474397440
 6  4.25826143514351 -3.08657712651265 -1.98195742704270
 6  3.95898676927693  0.15660506400640 -1.48050273267327
 6  2.62245286648665  1.49209679787979  2.96524242414241
 6  3.66012038983898  1.51925733723372 -1.18324489178918
 6 -9.10311529492949  0.48877103740374 -1.44178899419942
 6  1.22142720742074 -6.38816546674667  0.31175983498350
 6  4.56393522812281  2.65969272417242 -1.48099518261826
 6  3.97358662706271  3.83531405510551 -1.13040433473347
 6  2.63626519731973  3.43398124922492 -0.49398816151615
 6  5.86949055435544  2.40428526912691 -2.09915187028703
 6  4.35010062986299  5.28842371817182 -1.12257427082708
 6  6.72218227582758  3.35937162196220 -2.63838831573157
 1 -4.41330581668167  2.25743682378238  0.08903194349435
 1 -4.98415307220722 -0.54570604670467  1.27168191239124
 1 -4.54571141104110  0.85092909260926  2.32704961466147
 1 -2.89160820072007 -1.35137253275328  0.00229330753075
 1 -3.29130012731273  0.50484240134013 -1.37029458035804
 1  0.23713814851485  0.15278559055906  3.83864341244124
 1  1.06105011441144 -0.94210887828783  2.34656978977898
 1 -0.50125878677868 -2.88234569956996  0.01906690899090
 1 -3.34720486578658  1.76935819991999  3.66518650835083
 1 -1.56725794089409  1.67034639853985  4.08654704260426
 1 -2.09941632273227  2.90365418521852  2.81618904070407
 1 -6.66591004190419  2.48321712521252  1.36323855685569
 1 -7.62113188018802  0.99833964316432  1.51211822252225
 1 -7.99593553075307  2.26372245534553  0.70178865906591
 1  1.37540024842484  1.47456949354935  1.30767883518352
 1  0.65581869436944  2.21902872487249  2.95944176837684
 1  1.49220354675468  0.32080272527253 -0.24747011231123
 1  2.12117991019102 -4.82526635703570 -1.82240685038504
 1  0.43432523002300 -4.17779762726273 -1.42636111951195
 1 -7.94770583238324  0.72236246684668 -3.17633357155716
 1  1.32815500440044 -4.55345652535253  1.33699127572757
 1  2.93778004810481 -5.05681288578858  0.61169898479848
 1  3.86196125842584 -4.08610606280628 -2.31262472357236
 1  5.20938203660366 -3.15808465866587 -1.39737335493549
 1  4.77954938803880 -2.23800603320332 -2.76233530713071
 1  4.91326094559456 -0.18384047854785 -1.99989616531653
 1 -9.26201980248025  0.31090854635464 -0.31720441024102
 1 -10.12796092969297  0.52394381008101 -1.88035413541354
 1  3.79107379387939  2.66588997269727  3.53434820052005
 1  6.36115958415841  1.35413756295630 -2.12546136113611
 1  5.48134883468347  5.17335009920992 -0.50085870577058
 1  4.32247426992699  5.75513227892789 -2.06216876177618
 1  3.58620629022902  5.82386199259926 -0.40023176477648
 1  1.04380168826883 -7.97633879097910  1.39339539443944
 1  7.58954139853985  3.14545008490849 -3.09315658895890
 1  6.50170205770577  4.43945945814581 -2.75422777527753

