%nproc=4
%Mem=4GB
# td=(NStates=1) B3LYP/SVP 

TD

0 1
 8 -5.34107033703370  0.39321476107611 -3.36714650435044
 8  3.07254726022602  2.90644789948995  3.04467054545455
 8  3.33455180378038  0.67901330033003  3.20397228232823
 8  1.41205884538454 -7.13533980408041  1.64104261056106
 8  0.93964885288529 -7.08412483608361 -0.62760074297430
 8  1.69558660676068  3.93566668946895  0.07203671107111
 7 -2.27391700280028 -0.98712714291429  0.50768778537854
 7 -4.40169505090509  0.59571723822382 -1.22843119791979
 7  1.85273566516652 -0.65831740474047 -0.38334681228123
 7  2.52085762766277  1.91896764226423 -0.51361810851085
 6 -4.89693608480848  1.09833133013301  0.06890269006901
 6 -4.36283367616762  0.17798796409641  1.29467682538254
 6 -2.95834092969297 -0.02860260356036  1.36438845184518
 6 -1.97257635433543  0.51326628382838  2.17834100370037
 6 -0.69342595289529 -0.02003743924392  1.87393807140714
 6 -0.95946013381338 -0.98014107300730  0.85449726912691
 6 -6.31379373547355  1.29991778107811 -0.09187440284028
 6  0.62198080468047  0.16028670517052  2.69242826292629
 6 -6.63795430993099  1.00975022342234 -1.40084581328133
 6 -0.08966522262226 -2.02034077097710  0.25470755225523
 6  1.09472636883688 -1.78116766336634 -0.30066164836484
 6 -5.39708030833083  0.62963117781778 -2.18807611911191
 6  1.91848593379338 -2.80503104150415 -0.86015302460246
 6 -2.09641534243424  1.68816457335734  3.14600899109911
 6 -7.10534802800280  1.85504363356336  1.04142812871287
 6  3.16375270897090 -2.26036598779878 -1.36297754285429
 6  1.12455848314831  1.56831532493249  2.46271990789079
 6  3.08356643194319 -0.92258088368837 -1.03378736693669
 6  1.57411118131813 -4.27185314971497 -0.82254397129713
 6 -7.94966087208721  0.98028966656666 -2.15889427722772
 6  1.84025159075908 -5.11633256785679  0.39320531603160
 6  4.23346895589559 -3.05451392019202 -2.05094432573257
 6  4.04035490609061  0.08568797229723 -1.26578126052605
 6  2.56374699589959  1.61141873007301  2.93718961886189
 6  3.65335971377138  1.43976938843884 -1.07559412671267
 6 -9.21738672207221  0.71134329462946 -1.51849666496650
 6  1.39431449614962 -6.50613726392639  0.43255191419142
 6  4.57324615921592  2.60809756465647 -1.47034411751175
 6  3.81037030543054  3.72263278697870 -1.16469776407641
 6  2.57976954775478  3.23206105720572 -0.37022578527853
 6  5.74395800110011  2.48651349194920 -2.05349730483048
 6  4.28558417821782  5.24547942374237 -1.14597661106111
 6  6.55353541114111  3.44249993479348 -2.77560203710371
 1 -4.41469595569557  1.93922500260026  0.14307734803480
 1 -4.81877653455346 -0.76720819691969  0.84969971417142
 1 -5.20546738663866  0.55707970767077  2.03636054575458
 1 -2.86688572847285 -1.49940733623362 -0.11151807360736
 1 -3.30787178447845  0.29541145824583 -1.37818536943694
 1  0.33187762246225  0.09880019201920  3.78514806290629
 1  1.32528653805381 -0.55647031443144  2.17919305210521
 1 -0.41747040794079 -2.91330879587959  0.13639864216422
 1 -3.35999614491449  1.92618388248825  3.41200118981898
 1 -1.59188040314031  1.74005336923692  4.13761214911491
 1 -1.73088947004700  2.55684950475047  2.69840726252625
 1 -6.60130358125813  2.38890769426943  1.77086931993199
 1 -7.60992075907591  0.95300510971097  1.56540355105511
 1 -7.98962489968997  2.63845992909291  0.73807228742874
 1  1.16580928932893  2.06886892349235  1.38463653095310
 1  0.60384349684969  2.40060688268827  3.13201902610261
 1  1.56511083748375  0.36291693669367 -0.16433179847985
 1  1.89186697889789 -4.79916374677468 -1.80392500220022
 1  0.43087488498850 -4.37990783828383 -0.95698418181818
 1 -7.84127518931893  1.06548677927793 -3.31932787098710
 1  1.41757394629463 -4.68986016571657  1.64044162076208
 1  2.94100037013701 -5.08484568906891  0.52049986488649
 1  4.22543760606061 -4.14023147534753 -2.35841930303030
 1  5.21776287468747 -2.93696254645465 -1.48002161976198
 1  4.33193462656266 -2.16457869046905 -2.92230130373037
 1  4.93018263776378 -0.10233232773277 -1.97556373207321
 1 -9.15350895139514  0.73375083058306 -0.44928761856186
 1 -10.23353148674867  0.88278969466947 -2.10161626162616
 1  4.03992867936794  2.74735811951195  3.39401416711671
 1  6.18288175637564  1.45011716091609 -2.02537135213521
 1  5.30615131493149  5.48920168436844 -0.62402102200220
 1  4.50078210071007  5.66192295799580 -2.19401194609461
 1  3.46667433703370  5.76574618101810 -0.69173091469147
 1  1.07722503060306 -8.00673183028303  1.57467352225223
 1  7.54668711311131  3.19764530443044 -3.24194146744675
 1  6.26817870537054  4.39201471367137 -3.09843219571957

