%nproc=4
%Mem=3GB
# td=(NStates=1) B3LYP/SVP 

TD

0 1
 8 -3.25465237543754 -1.34221927742774 -2.86069672397240
 8  3.07098755355536  3.06731839033903  2.80523479437944
 8  3.66098040624062  1.54808193649365  4.31068551215122
 8  7.81438004090409 -1.34628074227423 -0.69853061486149
 8  6.81241539793979 -2.92967376227623 -1.89262571067107
 8 -2.62965387188719  1.58249373847385  1.55809587008701
 7 -0.29928567476748 -2.36573288758876  0.86564140494049
 7 -2.55508754675468 -1.23205834083408 -0.63867601220122
 7  1.04707625702570  0.02457336703670 -0.83444838203820
 7 -1.12896204170417  1.40843625152515 -0.18899979787979
 6 -3.27320246994699 -1.34055161756176  0.65823279717972
 6 -2.59783840994099 -2.31834598079808  1.58832413921392
 6 -1.23986962866287 -2.00976879087909  1.77385537413741
 6 -0.57002680498050 -1.33932512421242  2.87821584208421
 6  0.80474158675868 -1.30601560256026  2.50039123372337
 6  0.97459014521452 -1.89395583028303  1.23492829682968
 6 -4.61050599719972 -1.73041869056906  0.22707959525953
 6  1.91941653305331 -0.52456278587859  3.14435659015902
 6 -4.76975333673367 -1.97141584998500 -1.07280762126213
 6  2.01501945834583 -1.92416060826083  0.23677595629563
 6  2.03228925082508 -0.95145705790579 -0.62879678117812
 6 -3.40377504740474 -1.53525549084908 -1.68428571197120
 6  2.98504956815682 -0.75106585488549 -1.71780567946795
 6 -1.17746631883188 -0.55926978397840  3.90822633093309
 6 -5.82713793789379 -1.96309278957896  1.31133213881388
 6  2.56058571547155  0.39494686288629 -2.40680529052905
 6  1.92000143254325  0.98424411641164  2.69105574717472
 6  1.34992835933593  0.86250289888989 -1.85814192019202
 6  4.26670201930193 -1.57574700380038 -1.92371200130013
 6 -5.90577491359136 -2.24308639903990 -1.98177162536254
 6  5.44302985398540 -1.13149489468947 -1.05328874577458
 6  3.24441453685369  1.07279568216822 -3.55251176037604
 6  0.46733915801580  1.89157430433043 -2.00257200230023
 6  2.99620826112611  1.80186977247725  3.35497084228423
 6 -0.67469130073007  2.16069070127013 -1.20730601850185
 6 -7.03704763126313 -2.94765852995300 -1.74931349004900
 6  6.68289785938594 -1.88619687478748 -1.28092878287829
 6 -1.48260691549155  3.38534076727673 -1.18721679637964
 6 -2.39855394479448  3.27459793879388 -0.15877378357836
 6 -2.09057132953295  2.10499143264326  0.59274820682068
 6 -1.31870184858486  4.56811307150715 -2.17394916291629
 6 -3.39598023452345  4.35048553145314  0.33498773847385
 6 -2.08798268946895  5.71065648384839 -2.43771750455045
 1 -3.31186968016802 -0.37456294619462  1.26747095169517
 1 -2.83927555395540 -3.20535566056606  1.05192554165417
 1 -3.14647446724672 -2.36397984238424  2.65662505120512
 1 -0.52104740954095 -2.95483424852485 -0.02907589758976
 1 -1.69056744644464 -0.59227553105311 -0.73963806620662
 1  1.89139710111011 -0.57307876167617  4.34562666176618
 1  2.89432676557656 -0.95828772007201  2.98095302470247
 1  2.61864067796780 -2.81424300720072 -0.00171711851185
 1 -1.79441207050705 -1.23006228022802  4.67989505130513
 1 -0.42665243324332  0.17705350175018  4.27310366686669
 1 -1.96043535733573  0.00201264796480  3.58152691799180
 1 -5.69103989118912 -1.34164229542954  2.18045233823382
 1 -5.80157891859186 -3.20438454305431  1.50821366766677
 1 -6.74474185098510 -1.70843648704871  0.82183854555456
 1  2.18802494189419  0.79775971787179  1.64834244554455
 1  0.89156910841084  1.33934617891789  2.69108708240824
 1  0.19580783838384  0.11603597339734 -0.24903693599360
 1  4.49844556375638 -1.35136819581958 -3.00925652755276
 1  4.17036786658666 -2.64910668986899 -1.82729983798380
 1 -5.48116025442544 -1.90843176777678 -3.11731519531953
 1  5.15056297759776 -1.20321080098010 -0.07389416571657
 1  5.45499694099410  0.14344734863486 -1.23637812031203
 1  4.09248916041604  0.72349884198420 -4.05683391289129
 1  3.97426317791779  2.07467854655465 -3.30787312271227
 1  2.37807359665967  1.29195369326933 -4.33085623762376
 1  0.57461137113711  2.60756225272527 -2.86764765676568
 1 -7.40685977207721 -3.36912909680968 -0.73449247044704
 1 -7.72307057195720 -3.08578990949095 -2.62511556505651
 1  3.82313604110411  3.62610197119712  3.43249650385038
 1 -0.40946482528253  4.58408968846885 -2.97295519091909
 1 -4.53800238983898  4.32880946274628 -0.44197534903490
 1 -3.81128987868787  3.84806960056006  1.36896770817082
 1 -3.05401371757176  5.35566585768577  0.57598336823682
 1  8.44184987848785 -1.87533068726873 -1.10477111211121
 1 -1.72761568616862  6.38929938703870 -3.09364421662166
 1 -3.01137349024903  6.09787116291629 -1.69822573007301

