%nproc=4
%Mem=4GB
# td=(NStates=1) B3LYP/SVP 

TD

0 1
 8 -5.16058228822882  0.23602904250425 -3.30492028172817
 8  3.18267827332733  2.74083133783378  3.29134521292129
 8  3.32046039463946  0.51888728772877  3.09184106920692
 8  1.56445408490849 -7.14321059115912  1.53737224352435
 8  0.76474136213621 -6.98332475607561 -0.52933091599160
 8  1.82100914901490  3.91315443824382  0.32722222962296
 7 -2.30759037013701 -0.98497692789279  0.64803181978198
 7 -4.25021990339034  0.79491715821582 -1.24416277107711
 7  1.78876926852685 -0.54049562256226 -0.48446692429243
 7  2.54000954285429  1.90535628112811 -0.59855660236024
 6 -4.78600499169917  1.25792728972897 -0.06673087328733
 6 -4.40235762856286  0.37775794109411  1.21365872357236
 6 -3.00068516411641  0.04961521822182  1.30928294129413
 6 -1.95101419811981  0.64202916011601  2.15077824742474
 6 -0.76972358265827  0.02333689818982  1.90405108270827
 6 -0.93088727652765 -1.05896895579558  0.97330915031503
 6 -6.33787614371437  1.37791558085809 -0.21574679007901
 6  0.59187779437944  0.22110278677868  2.63259227932793
 6 -6.56509702420242  0.88475772417242 -1.48779450815082
 6 -0.15502175827583 -2.02218095499550  0.30600268176818
 6  1.06725362156216 -1.72365191179118 -0.29898148034803
 6 -5.30166076637664  0.48281649634964 -2.15760307180718
 6  1.92160624582458 -2.90024056245625 -0.79778678797880
 6 -2.18133383428343  1.69486524342434  3.19155354555456
 6 -7.15024251745175  1.99145727492749  0.82220620652065
 6  3.00197653135313 -2.35993594479448 -1.38492973807381
 6  1.21901792909291  1.52548104150415  2.66154979087909
 6  2.95739381468147 -0.91005963156316 -1.18298228642864
 6  1.43611738193819 -4.30366633103310 -0.85086680358036
 6 -7.79936584258426  0.69197083468347 -2.12706109390939
 6  1.79936750235023 -5.12382331693169  0.45374136963696
 6  4.20335594459446 -3.02555102390239 -1.90860009130913
 6  3.87378824942494  0.15867527102710 -1.56340102250225
 6  2.68916953815381  1.50272786098610  3.06240214011401
 6  3.56873125092509  1.54771018251825 -1.19314588188819
 6 -9.03145812921292  0.46530869116912 -1.41171598689869
 6  1.35546061076108 -6.54933158335834  0.42004066306631
 6  4.45804463906391  2.74019077397740 -1.58898598169817
 6  3.77466673507351  3.79314983868387 -1.02604389868987
 6  2.64767633843384  3.34490234133413 -0.35179394209421
 6  5.70579418471847  2.50062490309031 -2.34907686278628
 6  4.08524414421442  5.28541341714171 -1.21879389278928
 6  6.58698875647565  3.42874855965597 -2.68018249514952
 1 -4.29184367046705  2.18756983708371  0.20951399169917
 1 -5.09642429932993 -0.44556603270327  1.29087383158316
 1 -4.76376321622162  1.04556855655566  2.19052596229623
 1 -2.85271431133113 -1.52986038153815  0.06000907910791
 1 -3.28631962926293  0.94702661976198 -1.57967551845184
 1  0.35962039673967 -0.13038272627263  3.60312986108611
 1  1.48899290869087 -0.38832349974997  2.34680981378138
 1 -0.58930759165917 -2.97281474647465  0.30494549684969
 1 -3.19248939423942  1.94490575467547  3.33644363406341
 1 -1.97447866296630  1.26075543944394  4.18470685858586
 1 -1.36918329942994  2.61346516631663  3.06677409920992
 1 -6.93775722662266  3.33064186768677  1.14279651265126
 1 -7.06717648464846  1.26726653585359  1.76349336003600
 1 -8.20600653785378  1.94651073417342  0.45554403460346
 1  0.99719242764276  2.04702673927393  1.57162522982298
 1  0.63565667816782  2.18550537253725  3.20507633183318
 1  1.63282760916092  0.58034867986799 -0.31370673597360
 1  2.04756254845485 -4.80404423482348 -1.58545315501550
 1  0.41214301180118 -4.47222707020702 -1.01763024642464
 1 -7.78238930073007  0.84457468806881 -3.39651558975898
 1  1.34988717761776 -4.60801198089809  1.28386596319632
 1  3.02303857395740 -4.92309951445145  0.69386720162016
 1  4.02633769606961 -4.08142559475948 -2.39766322742274
 1  5.13996509490949 -2.94916376657666 -1.23021663926393
 1  4.78891032413241 -2.56813904650465 -2.82829190279028
 1  4.80337995749575 -0.21013310781078 -2.00176635233523
 1 -8.84488808930893  0.35914336983698 -0.29170185998600
 1 -9.90138827242724  0.58114953065306 -2.04586068606861
 1  4.15544023052305  2.62333571727173  3.56414117981798
 1  5.91774524272427  1.36938908810881 -2.49428824382438
 1  4.89262996279628  5.67780054425443 -0.72778139803980
 1  4.16493851635163  5.52901966766677 -2.34908745364536
 1  3.31711938153815  5.94127373377338 -0.69691143274327
 1  1.08842615071507 -8.05358651575157  1.22952900780078
 1  7.40177262166217  3.00821636153615 -3.29078635193519
 1  6.32763465096510  4.50649616181618 -2.45386773927393

