%nproc=4
%Mem=4GB
# td=(NStates=1) B3LYP/SVP 

TD

0 1
 8 -5.22557878787879  0.19870531013101 -3.30597038673867
 8  3.07916792229223  2.95114236893689  3.15145122352235
 8  3.32237058565857  0.72042744174417  3.38417030213021
 8  1.77071471097110 -7.30189645974597  1.32841134743474
 8  0.42726761476148 -6.89491591519152 -0.42763074597460
 8  1.68707575567557  3.98743186598660  0.00559006640664
 7 -2.29189880098010 -1.02064049424943  0.71241825842584
 7 -4.20568544994499  0.71263893039304 -1.30947930273027
 7  1.75141553315332 -0.61527310031003 -0.43082155975598
 7  2.56246178807881  1.91920766626663 -0.55408215491549
 6 -4.67268365956596  1.17229872687269 -0.01508570877088
 6 -4.45411280408041  0.32585275057506  1.27050440814081
 6 -3.02620771637164 -0.03361310461046  1.42179419241924
 6 -1.99454855155516  0.52644760196020  2.28494166376638
 6 -0.82139875017502 -0.03692912841284  1.94315499309931
 6 -0.96284047184718 -0.99942300120012  0.93223504290429
 6 -6.22085444154415  1.42080987028703 -0.20800601600160
 6  0.60097870447045  0.15451612811281  2.73053207330733
 6 -6.58931944644464  0.84459370777078 -1.37102283098310
 6 -0.08923517961796 -2.03519225612561  0.35799788128813
 6  1.05053194939494 -1.85334488108811 -0.26249783198320
 6 -5.31082168246825  0.55992420712071 -2.10565787728773
 6  1.86412049724973 -2.87090762916292 -0.90337734703470
 6 -2.23874957585759  1.58730448734873  3.27033142334233
 6 -7.08429592279228  2.00437856705671  0.86079006490649
 6  3.09287562126213 -2.27245719691969 -1.40998224332433
 6  1.17930395769577  1.60606910031003  2.67249088498850
 6  2.93031110641064 -0.97485611121112 -1.09940392859286
 6  1.67497126732673 -4.37274323872387 -0.94249596649665
 6 -7.82133803980398  0.80610224782478 -2.13870225802580
 6  1.98882644824482 -5.19545047964797  0.32987898339834
 6  4.33388899789979 -2.89906837563756 -2.02483171447145
 6  3.81873274387439  0.10694009750975 -1.42361704410441
 6  2.59822044324432  1.67508509670967  3.14026992689269
 6  3.64609898769877  1.48458386988699 -1.14912147944794
 6 -9.01479646304631  0.75142730303030 -1.56147096239624
 6  1.17133219791979 -6.51168781898190  0.34366302530253
 6  4.43284211881188  2.61461821672167 -1.48762584568457
 6  3.81917118551855  3.71650217391739 -1.16885818011801
 6  2.51182275307531  3.38905675677568 -0.58734749744974
 6  5.74913851915192  2.49897473807381 -2.24249620472047
 6  4.16480210001000  5.15091996779678 -1.20739275267527
 6  6.64685474307431  3.43536922172217 -2.66892136903690
 1 -4.25365985208521  2.03332441254125  0.33748678897890
 1 -5.02016667356736 -0.55263673977398  1.13711845604560
 1 -4.78060490039004  0.81015501520152  2.12963987368737
 1 -2.70005904580458 -1.42451984748475 -0.17612453425343
 1 -3.27952895019502  0.68384030113011 -1.56362391329133
 1  0.50957539223922 -0.49618930693069  3.61561110921092
 1  1.41682569196920 -0.44200886828683  2.02281741454145
 1 -0.54758341924192 -3.15441290629063  0.35085008730873
 1 -3.26650679597960  1.92070333443344  3.50064005370537
 1 -1.80811202630263  1.55020438433843  4.21636002390239
 1 -1.80521690279028  2.49941376117612  2.89762718451845
 1 -6.58639209010901  3.09987879137914  1.10740297329733
 1 -7.10284005100510  1.23105291449145  1.76927393809381
 1 -8.17598353555355  2.34423050615061  0.36570505070507
 1  1.14195690409041  2.13621565816582  1.77053512081208
 1  0.37502061456146  2.20696751875187  3.35015083928393
 1  1.51483580998100  0.55275592059206 -0.68380374567457
 1  2.31398919111911 -4.86535036543654 -1.68288289798980
 1  0.55976777427743 -4.67039688718872 -0.92227071047105
 1 -7.67353841564157  0.98253848444844 -3.20578651685168
 1  1.41715390429043 -4.50077125682568  1.11619919651965
 1  3.11028729882988 -5.11664886938694  0.67481529642964
 1  4.34494955725573 -4.14335178737874 -1.84204766586659
 1  5.25925702410241 -2.50483933413341 -1.52764638223822
 1  4.24534596769677 -2.82426465906591 -3.33580265386539
 1  4.79315893539354 -0.17734982948295 -1.78893506920692
 1 -9.00380398089809  0.07937539303930 -0.44273696349635
 1 -10.10365849944995  0.82815423112311 -2.13407950795080
 1  4.13563825032503  2.88468185188519  3.27148191389139
 1  6.01022449064906  1.49500164936494 -2.17355617061706
 1  5.12286298609861  5.34674743894389 -0.64160278017802
 1  4.47044906740674  5.68201496719672 -2.20537308220822
 1  3.37548521812181  5.77647725412541 -0.77341908350835
 1  1.40037734583458 -8.01957311441144  1.18659471437144
 1  7.59404184858486  3.11311685158516 -3.19008628192819
 1  6.29246113361336  4.35115062726273 -2.75500785328533

