%nproc=4
%Mem=4GB
# td=(NStates=1) B3LYP/SVP 

TD

0 1
 8 -5.33196942694269  0.27032247184718 -3.25678546824683
 8  3.20238024352435  2.73143039773977  3.15660173857386
 8  3.36360470907091  0.53921932093209  2.99168105320532
 8  1.79726736623662 -7.14942121222122  1.54999350565056
 8  0.89675456345635 -7.19895631923192 -0.42776075897590
 8  1.67203425152515  3.94665778857886  0.21815132253225
 7 -2.36963657475748 -0.93189161936194  0.52346936353635
 7 -4.29181406280628  0.77241490799080 -1.23167152195220
 7  1.76681707330733 -0.80413198619862 -0.35951442904290
 7  2.48881442334233  1.83975972147215 -0.45046179287929
 6 -4.75644203540354  1.31451294829483 -0.00593479367937
 6 -4.47473486628663  0.34503466876688  1.15905326302630
 6 -2.98552364796480  0.07024728142814  1.26994900790079
 6 -1.91947104380438  0.60043500070007  2.10290345994599
 6 -0.67862447274727 -0.08606404190419  1.78525920352035
 6 -0.93405759355936 -0.95075813471347  0.71283310271027
 6 -6.24621697779778  1.45476326562656 -0.17847306270627
 6  0.62571117771777  0.14673535003500  2.54081310141014
 6 -6.56234674917492  0.93241248964896 -1.35790151885189
 6 -0.19019527562756 -2.04799353625363  0.15899798129813
 6  1.10807770397040 -1.90714026062606 -0.29877145934593
 6 -5.36404700500050  0.54207242194219 -2.11938925042504
 6  1.96722080728073 -2.92311284968497 -0.85122213151315
 6 -2.20825652655266  1.64726048294829  3.15088947914791
 6 -7.04945243844384  2.07108523772377  0.84757874377438
 6  3.17415374907491 -2.38758871007101 -1.24343558865887
 6  1.18516454375438  1.54973346674667  2.45637927382738
 6  3.02570064536454 -0.94301292689269 -0.89615360356036
 6  1.60482425262526 -4.38545450985098 -0.90586230313031
 6 -7.97889379537954  1.01051268886889 -2.07524591239124
 6  1.74809237483748 -5.09459039363936  0.45119111461146
 6  4.41256686568657 -3.02142061086109 -1.64594382568257
 6  3.92499336993699  0.06601600510051 -1.34655933833383
 6  2.64618523972397  1.55091267946795  2.89638553845385
 6  3.61840621842184  1.47243265476548 -1.00895746304630
 6 -9.20355533893389  0.87724988528853 -1.38381319661966
 6  1.45446051075107 -6.56964361456146  0.41785044404440
 6  4.44683351795180  2.68924567946795 -1.41422850595060
 6  3.75970523892389  3.72376289999000 -1.03662495679568
 6  2.54705627642764  3.29683753485349 -0.38399716241624
 6  5.62367597289729  2.60826566716672 -2.33428538363836
 6  3.96175179497950  5.20997587338734 -1.08597061046105
 6  6.47136719431943  3.66748243304330 -2.87206168306831
 1 -4.17005149124912  2.19855093519352  0.18250129042904
 1 -4.75170982788279 -0.66479795589559  0.69708445264526
 1 -5.17375421532153  0.70186418611861  2.10117702740274
 1 -2.87954699459946 -1.39002639813981 -0.21299822162216
 1 -3.33993499079908  0.84461637873787 -1.60332788368837
 1  0.43124755945595 -0.07500718871887  3.53441298939894
 1  1.52471648104810 -0.34464913231323  2.12575770857086
 1 -0.75934459535954 -3.07412487748775 -0.00340533823382
 1 -3.25170531583158  1.60432169626963  3.53880387008701
 1 -1.40258147324732  1.39097846174617  3.92945133303330
 1 -2.01423780488049  2.61211503130313  2.74129155095510
 1 -6.52308575947595  2.78327713121312  1.47476970997100
 1 -7.70893066006601  1.22665247444744  1.36714372507251
 1 -7.81113705090509  2.69990607370737  0.30510899109911
 1  1.06248895729573  2.11540357695770  1.45824389168917
 1  0.71292440494049  2.05427224922492  3.11930775497550
 1  1.45333966036604  0.15668631363136 -0.22157752305231
 1  2.32448024022402 -4.98596242664266 -1.49592420212021
 1  0.48611040854085 -4.69602945044504 -1.51607009040904
 1 -7.83970503230323  0.96521675227523 -3.21798773697370
 1  0.99108129702970 -4.80585176487649  1.24950252685269
 1  2.74697096719672 -5.06715391989199  0.74757257215722
 1  4.21209627192719 -3.99259671187119 -1.87058051915192
 1  5.42523362176218 -2.84562341254125 -1.10844446204620
 1  4.66887832093209 -2.53521575417542 -2.59946902050205
 1  4.91669128862886 -0.07757985248525 -1.86428260396040
 1 -9.15658925942594  0.82956041154115 -0.25927861766177
 1 -10.27651578517852  0.82599401510151 -1.84528062806281
 1  4.08631331783178  2.52504588828883  3.34711947764777
 1  6.06694016221622  1.62085423462346 -2.25414422942294
 1  5.14612531233123  5.65562832703270 -0.86639525942594
 1  3.74702672517252  5.80889765546555 -1.97535007990799
 1  3.22801047064706  5.67311691809181 -0.20103184478448
 1  1.33172048014801 -7.87376853395340  1.42643869876988
 1  7.43800624502450  3.42188772867287 -3.31322859615962
 1  6.14680656815682  4.58304381658166 -2.87553990649065

