%nproc=4
%Mem=4GB
# td=(NStates=1) B3LYP/SVP 

TD

0 1
 8 -5.39773600360036 -0.14941950235024 -3.21816160586059
 8  3.11438144364436  2.84881213591359  3.20035611401140
 8  3.37141549014901  0.61804720372037  3.11410329542954
 8  1.42526016551655 -7.20875714581458  1.44740324662466
 8  0.97001188918892 -7.16756317991799 -0.79920790369037
 8  1.83073012111211  4.13980710351035  0.03860336773677
 7 -2.31395100620062 -0.81801023122312  0.52952996959696
 7 -4.48238311971197  0.63554122062206 -1.21693004780478
 7  1.90569096069607 -0.64442601560156 -0.36914539213921
 7  2.50831637353735  2.03943968946895 -0.57735448214821
 6 -4.91869826102610  1.22470396739674  0.04641044084408
 6 -4.39674706750675  0.39183934923492  1.25996335403540
 6 -2.98965406100610  0.06182643934393  1.33478549154915
 6 -1.96594569126913  0.62982793999400  2.08587175677568
 6 -0.67903451375138  0.11421598609861  1.74444512211221
 6 -0.91404559235924 -0.90866392529253  0.71977379677968
 6 -6.44777713381338  1.23448123742374 -0.08987420282028
 6  0.60919952655266  0.27305798229823  2.54299331943194
 6 -6.76189670417042  0.84681392979298 -1.39859558825883
 6 -0.23415967206721 -1.96058479537954  0.15796787828783
 6  1.11483838003800 -1.76658620522052 -0.32827440964096
 6 -5.52240284058406  0.30784899959996 -2.10301761326133
 6  1.97459154435444 -2.91306184458446 -0.79050605990599
 6 -2.24473017391739  1.67330308720872  3.12523691389139
 6 -7.22582007520752  1.90328845804580  1.00066405230523
 6  3.20398673237324 -2.38519847104710 -1.20978222332233
 6  1.28666469376938  1.66136462986299  2.36333996989699
 6  3.12992106740674 -0.89650827642764 -0.93706769496950
 6  1.61250502070207 -4.29253521792179 -0.88802051895190
 6 -8.06562246824683  0.78610024762476 -1.99923831163116
 6  1.62260982658266 -5.07196813141314  0.46734272977298
 6  4.36923253225323 -2.99759822862286 -1.86511574287429
 6  3.93789466006601  0.12185158865887 -1.30976565896590
 6  2.66259688088809  1.61531912011201  2.92267816771677
 6  3.64407878567857  1.53557896939694 -1.22339890719072
 6 -9.25243022642264  0.79742190249025 -1.34596941224122
 6  1.19071413611361 -6.57813446364637  0.28951761076108
 6  4.54213304790479  2.64514126902690 -1.56175325842584
 6  4.01089035743574  3.82208273197320 -1.14217551185119
 6  2.61031260206021  3.37548539963996 -0.51127989068907
 6  5.94695830113011  2.39090393099310 -2.02841479657966
 6  4.40146576637664  5.28134301010101 -1.03172518591859
 6  6.78956901450145  3.32883856865687 -2.44453893079308
 1 -4.52347683378338  2.19270035013501  0.28517155745575
 1 -4.91377603450345 -0.55371684778478  1.10641538573857
 1 -4.89553639353935  0.90945494519452  2.03130003970397
 1 -2.73136217611761 -1.55966336183618 -0.06297321912191
 1 -3.43359435673567  0.47139905700570 -1.46777432833283
 1  0.20345478017802  0.13130344234423  3.60720026812681
 1  1.30476448584859 -0.63569823722372  2.32499763256326
 1 -0.85011367226723 -2.77552501750175 -0.05292028972897
 1 -3.23346349164916  1.88390965506551  3.46805679537954
 1 -1.86328754385439  1.63130249414941  4.02731111901190
 1 -1.97578395949595  2.70095391519152  2.76825424722472
 1 -6.62636608750875  2.54649345284528  1.69743197619762
 1 -7.73932369936994  1.16458626782678  1.55680269096910
 1 -8.00186612381238  2.69358544164416  0.38022650285029
 1  1.32459516791679  2.26557859445945  1.47448551585159
 1  0.78322143464346  2.38392521452145  3.11543736793679
 1  1.62949727612761  0.40712135713571 -0.36524188948895
 1  2.19679747194719 -4.89286311671167 -1.45886049574958
 1  0.54858665616562 -4.23207305480548 -1.24875335873587
 1 -8.03431449324932  0.58496872747275 -3.17060299849985
 1  1.06746893579358 -4.71081226092609  1.31870944754475
 1  2.57839410951095 -5.30234743924392  0.92250006490649
 1  4.30282534483448 -3.91216866906691 -1.87128058915892
 1  5.23703480188019 -2.79990884108411 -1.05497911551155
 1  4.50759219231923 -2.40871310391039 -2.81138021162116
 1  4.78099771927193 -0.17250934543454 -1.87166334203420
 1 -9.24078767926793  0.51187864336434 -0.32488517831783
 1 -10.41664979857986  0.74129554525453 -1.64977107710771
 1  4.06919160566057  2.83637702140214  3.40166493219322
 1  6.61449491769177  1.40614276347635 -1.80278909390939
 1  5.40342104190419  5.30682344654466 -0.48864748464846
 1  4.52995501800180  5.53733049874988 -2.01582412731273
 1  3.54699236883688  5.88982858925893 -0.56319806140614
 1  1.35701300940094 -8.27870902800280  1.11157721262126
 1  7.72066451085109  3.09785532543254 -2.94425169846985
 1  6.34029591709171  4.53115862806281 -2.67546989948995

