%nproc=4
%Mem=4GB
# td=(NStates=1) B3LYP/SVP 

TD

0 1
 8 -5.26504273427343  0.33662910251025 -3.33193298299830
 8  3.01652165766577  2.97240449514951  2.90707678607861
 8  3.40359870847085  0.71930732973297  2.97717960306031
 8  1.51062870237024 -7.07662393249325  1.66813531983198
 8  0.89075396339634 -7.14653107670767 -0.50365834873487
 8  1.64578162626263  3.92507563036304 -0.02556304890489
 7 -2.41470108120812 -1.15505393559356  0.65835285188519
 7 -4.29448432983298  0.62215988248825 -1.17049540434043
 7  1.78487887948795 -0.76722829582958 -0.48375685328533
 7  2.50158570047005  1.86757250275027 -0.42324907160716
 6 -4.71731812301230  1.21025252225223  0.06088188798880
 6 -4.35935332813281  0.28771893719372  1.31878923662366
 6 -2.97094218981898 -0.12025176847685  1.44770678367837
 6 -1.90598969566957  0.47973293049305  2.06596976657666
 6 -0.74629123942394 -0.03590902640264  1.79581025862586
 6 -0.99464365216522 -1.04715777467747  0.81044286368637
 6 -6.25417777387739  1.35822361166117 -0.08305352075208
 6  0.64241284788479  0.13781445794579  2.50079910001000
 6 -6.59273978847885  0.95340458885889 -1.40795652435244
 6 -0.18159441554155 -2.04566330323032  0.25003708520852
 6  1.06687358355836 -1.93508305490549 -0.28926050825082
 6 -5.34509510981098  0.55776399109911 -2.05499281078108
 6  2.00295438063806 -2.98753929232923 -0.93847085638564
 6 -2.01090679157916  1.53912966986699  3.08654304450445
 6 -7.05883337653765  1.92327045624562  0.94538852475248
 6  3.16413274697470 -2.32854280548055 -1.36556780188019
 6  1.12507853515352  1.65470396379638  2.58884252015202
 6  3.04317239253925 -0.95989461506151 -1.02949693789379
 6  1.61076484668467 -4.32608857325733 -0.90560227712771
 6 -7.91144705070507  0.87585922352235 -2.04083247104711
 6  1.79107667326733 -5.12329326392639  0.47949394489449
 6  4.35710131913191 -2.93984245304530 -2.04841407270727
 6  3.85520639123912  0.16517592109211 -1.39048373077308
 6  2.61520214141414  1.67786537473747  2.85036093599360
 6  3.62229660746075  1.50326573807381 -1.09111567886789
 6 -9.09046402980298  1.16721888218822 -1.54000881618162
 6  1.29724478917892 -6.56234288448845  0.43232189118912
 6  4.49419825442544  2.70454720962096 -1.43869095219522
 6  3.68910817921792  3.77167769146915 -1.09037033133313
 6  2.49517108790879  3.21553940504050 -0.45314407710771
 6  5.80525413071307  2.59786462706271 -1.95374732983298
 6  3.92799841964196  5.24449932573257 -1.22661467486749
 6  6.74305436303630  3.51298698349835 -2.28757323422342
 1 -4.20055454155415  2.17891897199720  0.23723676397640
 1 -5.14590924782478 -0.59236071217122  1.13433817801780
 1 -4.72064890479048  0.88093209290929  2.18387529722972
 1 -3.01695073497350 -1.73677107260726 -0.07099402120212
 1 -3.37948894619462  0.58204012111211 -1.51350890179018
 1  0.71467590229023 -0.51427111511151  3.30898044614461
 1  1.29318332773277 -0.38449311671167  1.68179331213121
 1 -0.66836549744975 -3.03206067106711 -0.19107410511051
 1 -2.99523966926693  1.78441970607061  3.18113810351035
 1 -1.51762297739774  1.12257162106211  3.96268465636564
 1 -1.33023940504050  2.44482830263026  2.77270469226923
 1 -6.63915736663666  2.70776958045805  1.60692292529253
 1 -7.58234800180018  1.25859566876688  1.48277528822882
 1 -7.73852979017902  2.71362744584458  0.48778725892589
 1  1.05448815721572  2.50472250885089  1.65407347464746
 1  0.66115922842284  1.99117593959396  3.52330815501550
 1  1.54827915431543  0.07195784078408 -0.23962932823282
 1  2.07256504870487 -5.05305913631363 -1.68419302900290
 1  0.56773857135714 -4.47767761526153 -1.18918740214021
 1 -7.82490355215522  0.34497472807281 -3.07924386258626
 1  1.15975816471647 -4.67409858955896  1.32430000660066
 1  2.87492376247625 -5.16537374187419  0.68131594649465
 1  4.05637069936994 -3.80111756395640 -2.46012947404740
 1  5.31051214961496 -3.15629447964796 -1.33403702130213
 1  4.67231866496650 -2.16929916251625 -2.81129020262026
 1  4.72054167366737  0.00647855335534 -2.16840301600160
 1 -9.39394299479948  1.44999245474547 -0.47883057285729
 1 -10.04666279987999  1.00526194189419 -2.09216531653165
 1  3.93381806830683  2.94636802050205  3.20764553025303
 1  6.03462693089309  1.54384653385339 -2.27358617361736
 1  4.63703440324032  5.80642340654065 -0.17319593949395
 1  4.35859788228823  5.47368413411341 -2.49677222212221
 1  3.00980865046505  5.76065567196720 -1.00733247484748
 1  1.33145045314531 -8.02556371347135  1.66882293719372
 1  7.68054049844985  3.16287182708271 -2.76537381068107
 1  6.52132401990199  4.48292380458046 -2.25504785728573

