%nproc=4
%Mem=4GB
# td=(NStates=1) B3LYP/SVP 

TD

0 1
 8 -5.20506673667367  0.07696313591359 -3.26406619631963
 8  3.04583458895890  2.87389464416442  3.08080415881588
 8  3.28417676627663  0.66777217621762  3.08132001710171
 8  1.58805644514451 -7.34360063016302  1.36757526382638
 8  0.64896978497850 -6.89583600720072 -0.68430641354135
 8  1.67553460156016  3.98087120992099 -0.07249774237424
 7 -2.40427003810381 -0.92446087628763  0.68707572417242
 7 -4.34403928532853  0.57461512801280 -1.24911326612661
 7  1.88178857045705 -0.69820139313931 -0.24361283888389
 7  2.57203274517452  1.87661340684068 -0.64768151485149
 6 -4.78707509870987  1.23362485948595 -0.00250445064506
 6 -4.38677607040704  0.42248241354135  1.33115047274727
 6 -2.95717081268127  0.09297955465547  1.56434844784478
 6 -1.95535463216322  0.70849580678068  2.35446861646165
 6 -0.75444205450545 -0.04322975847585  1.91439211681168
 6 -0.99380356815682 -1.01740479937994  0.87226904630463
 6 -6.26748910501050  1.31191898119812 -0.16766198159816
 6  0.63119172577258  0.11839251575158  2.55861488158816
 6 -6.55884639913991  0.88196744514451 -1.40064579327933
 6 -0.12248850495050 -1.92029076597660  0.15902798429843
 6  1.14371126732673 -1.86559610621062 -0.23633521572157
 6 -5.37419802010201  0.42337055175518 -2.12407971947195
 6  1.98766285148515 -2.86261680008001 -0.90810782008201
 6 -2.13465916681668  1.78568432533253  3.32212660286029
 6 -7.09076656985699  1.95532366156616  0.94291827772777
 6  3.17636397009701 -2.32296224742474 -1.24389563466347
 6  1.09794582188219  1.54139263266327  2.61986562246225
 6  3.14293236853685 -0.90429905550555 -0.93206719491949
 6  1.49476324652465 -4.27258322272227 -0.87740945784578
 6 -7.88422432843284  0.77557919551955 -2.10454884268427
 6  1.78163572917292 -5.14601553615362  0.34738073357336
 6  4.36403201220122 -3.05208367716772 -1.72232146344634
 6  4.00202107270727  0.10052945644564 -1.32821750415041
 6  2.53232385358536  1.64095168336834  2.87631353125313
 6  3.66563094089409  1.47279269076908 -1.14761132843284
 6 -9.16653163656366  0.83937609790979 -1.58002281758176
 6  1.24287935263526 -6.58054470467047  0.30846950595059
 6  4.52583141774177  2.70819757465747 -1.51847893099310
 6  3.80201947034703  3.76419694339434 -1.17330862516252
 6  2.52807437823782  3.30629848094809 -0.54519328202820
 6  5.76738034333433  2.54043888448845 -2.23673562866287
 6  4.13611923172317  5.17340221602160 -1.16132814621462
 6  6.62587264486449  3.56243192799280 -2.53569804670467
 1 -4.50764525062506  2.25439651975197 -0.01467842754275
 1 -4.98581323822382 -0.57003847994799  1.08076282048205
 1 -4.84510135003500  0.80019401910191  2.17812472217222
 1 -3.13500254015402 -1.52458985448545  0.11846492469247
 1 -3.31236223352335  0.57140905800580 -1.53998154905491
 1  0.46628106280628 -0.13382307030703  3.59293884198420
 1  1.42803681308131 -0.58045271267127  2.01357649044905
 1 -0.76263492439244 -2.75039250425043 -0.28780377807781
 1 -3.29496964226423  1.98458972307231  3.51085107480748
 1 -1.61897311241124  1.44486385028503  4.19719810771077
 1 -1.46541292239224  2.52029584938494  2.90616803860386
 1 -6.42248569946995  2.69029783328333  1.35580781378138
 1 -7.29017878487849  1.23676348554855  1.85258226892689
 1 -7.94267020422042  2.59081516461646  0.75365384558456
 1  0.98800150855086  2.06039807640764  1.63128119541954
 1  0.76200931343134  2.23900072207221  3.38747457165717
 1  1.56363068946895  0.30658130313031 -0.12571793709371
 1  2.06551434363436 -4.85984981538154 -1.53550816051605
 1  0.47831962946295 -4.13227307480748 -1.17667615101510
 1 -7.91964302610261  0.51439166976698 -3.27537347554755
 1  1.42695488438844 -4.53606478617862  1.10362793939394
 1  2.85196146624662 -5.19318652315232  0.49158697359736
 1  3.99617467976798 -4.06602405460546 -1.84881834293429
 1  5.22202330073007 -3.13438228842884 -1.19513313091309
 1  4.55813724682468 -2.82841507410741 -2.76255532913291
 1  5.04650426992699 -0.15685778027803 -1.68228440414041
 1 -9.34205780628063  0.91545900140014 -0.50618330813081
 1 -10.06632476607661  0.75059647534754 -2.06163226322632
 1  4.10954564106411  2.67516089978998  3.31256602230223
 1  6.15677914611461  1.50343249244925 -2.54259307430743
 1  5.07396809660966  5.35617838203820 -0.37988660856086
 1  4.48536055855586  5.63637040274027 -2.11722426732673
 1  3.22195986558656  5.67603721012101 -0.72542428402840
 1  1.39800710881088 -8.37990914801480  1.03485954085409
 1  7.49170161456146  3.34722026192619 -2.96191346464646
 1  6.22107399489949  4.64485999819982 -2.45803815631563

