%nproc=4
%Mem=4GB
# td=(NStates=1) B3LYP/SVP 

TD

0 1
 8 -5.37250348034803  0.18353379297930 -3.32504229392939
 8  3.23886389188919  2.73950120482048  3.24289036743674
 8  3.44585293389339  0.51483688268827  3.12595448054805
 8  1.62774041354135 -7.17532380248025  1.57800630693069
 8  0.46192108010801 -7.00562698629863 -0.29891787468747
 8  1.76130317841784  3.96846996979698  0.24645415281528
 7 -2.29335894699470 -0.87049547974797  0.51181819841984
 7 -4.34385926732673  0.81675934243424 -1.36682503730373
 7  1.99013940554055 -0.79808138113811 -0.21249972757276
 7  2.52941848374837  1.85055080058006 -0.43748049474948
 6 -4.76792318351835  1.21366286328633 -0.07354155435544
 6 -4.33862125492549  0.27494766006601  1.17763512121212
 6 -2.96316141174117 -0.00542028532853  1.27128914191419
 6 -1.95973507020702  0.62665762296230  2.14424759435944
 6 -0.72585919621962  0.06662122662266  1.77159783738374
 6 -0.91791597939794 -0.96365942484248  0.77017883728373
 6 -6.33702605870587  1.36455424472447 -0.15417063246325
 6  0.54315292189219  0.19224990149015  2.58894791489149
 6 -6.71137165166517  0.95277452585259 -1.41907763646365
 6 -0.11123737983798 -2.06225496239624  0.16560864236424
 6  1.22428932513251 -1.91755130173017 -0.21405298749875
 6 -5.43974457475748  0.63178139283928 -2.12031934343434
 6  2.10960504570457 -2.89979051745174 -0.86716372567257
 6 -2.20828652955296  1.69053481038104  3.20255464566457
 6 -7.21119861306131  1.91058918811881  0.87453143904390
 6  3.24140047374737 -2.38423837503750 -1.32196344144414
 6  1.25458148544854  1.56672516591659  2.73418705460546
 6  3.20683875917592 -0.92702132773277 -0.92679666786679
 6  1.69865363556356 -4.46414237863786 -0.91165288218822
 6 -7.96945285128513  0.87290892849285 -2.03802219001900
 6  1.91579914551455 -5.12079301390139  0.42915891139114
 6  4.29564517351735 -2.89442791159116 -2.13271250255025
 6  3.90013088368837  0.17685708920892 -1.44634931733173
 6  2.75237585878588  1.44550213841384  3.09312521242124
 6  3.56848122592259  1.54933034453445 -1.06703327062706
 6 -9.25176015941594  0.84301646194619 -1.61026584188419
 6  1.33751881658166 -6.51004765496550  0.41436009500950
 6  4.41968080268027  2.61363811871187 -1.53317040014001
 6  3.74004327272727  3.76488701240124 -1.18667996229623
 6  2.56135770657066  3.36158400950095 -0.47015577827783
 6  5.64359796509651  2.53068790939094 -2.33220517561756
 6  3.98202382218222  5.26547142294229 -1.22502451585159
 6  6.52775283288329  3.57558324312431 -2.69572404930493
 1 -4.48260274637464  2.27148822892289  0.17498053835384
 1 -4.89908456535654 -0.82887436353635  1.00067481168117
 1 -4.80040688058806  0.59846384608461  2.19118602830283
 1 -2.92412145204520 -1.62600999649965  0.16915999419942
 1 -3.29769076637664  0.69462137923792 -1.64452200310031
 1  0.32535697039704 -0.28438812681268  3.54085363346335
 1  1.10497450685068 -0.49077374477448  2.12475760856086
 1 -0.46802546344634 -3.01472893789379 -0.00582558025803
 1 -3.21835198049805  1.76127739183918  3.56502649234923
 1 -1.32737395249525  1.61621098499850  3.98252664056406
 1 -1.73336971807181  2.85300912071207  2.94931235303530
 1 -6.69490294119412  2.71907071057106  1.59322155515552
 1 -7.57389715671567  1.12084189338934  1.64567157785779
 1 -8.11791772897290  2.25454153725373  0.53277175737574
 1  1.10687339573957  1.93086512311231  1.78665673297330
 1  0.70580369286929  2.21174799679968  3.41151697589759
 1  1.63517784418442  0.09458010301030 -0.02644801010101
 1  2.25876366856686 -5.05854968536854 -1.68498310801080
 1  0.66433823132313 -4.78818866636664 -1.42334081748175
 1 -7.85280634243424  0.54984521512151 -3.13737967616762
 1  1.31091328022802 -4.67158833853385  1.20462803940394
 1  2.86999326942694 -5.20527773227323  0.94526234113411
 1  3.92968803110311 -3.99011646384638 -2.60178363946395
 1  5.14592569096910 -2.96412526272627 -1.52425604320432
 1  4.54519595269527 -2.08207043964396 -3.01920099369937
 1  4.85582520202020  0.09473737923792 -1.85875205090509
 1 -9.71762536303630  1.04140159565957 -0.51557424722472
 1 -9.93991212481248  0.59117053275327 -2.29051515151515
 1  4.12520720722072  2.85613899759976  3.52490725642564
 1  6.08749221742174  1.51665381458146 -2.56759557455746
 1  4.75975667546755  5.70232299649965 -0.37115573547355
 1  4.33037506000600  5.67220398609861 -2.12594513941394
 1  2.89705737533753  5.67780738713871 -0.81415315691569
 1  1.02729003710371 -7.93922507960796  1.58002405730573
 1  7.52174461886189  3.35464100400040 -3.46338361166117
 1  6.36752864036404  4.70185569776978 -2.33334568706871

