%nproc=4
%Mem=4GB
# td=(NStates=1) B3LYP/SVP 

TD

0 1
 8 -5.17117334733473  0.08521396099610 -3.30953074277428
 8  3.19419942544254  2.93126038073807  2.93736981538154
 8  3.37580592919292  0.71212661166117  2.96709859495950
 8  1.61837947744774 -7.04268053815381  1.56518502480248
 8  0.91134602260226 -7.09885630923092 -0.60563854675468
 8  1.83471051915192  4.01295441824182  0.26744625202520
 7 -2.33404301540154 -1.07212564276428  0.61303832043204
 7 -4.35551043244324  0.50178784528453 -1.16501485628563
 7  1.74313470507051 -0.72293386638664 -0.45374385198520
 7  2.61763730563056  1.92174792029203 -0.31617836453645
 6 -4.79139553075307  1.16111760876088 -0.03550775097510
 6 -4.45063245604560  0.29677984328433  1.28095545324532
 6 -3.00171526712671 -0.00648039133913  1.35984799779978
 6 -1.97415651235124  0.61464642184218  2.23643681328133
 6 -0.75358196849685 -0.06930236573657  1.99346002360236
 6 -0.96462064986499 -1.10214327322732  0.96806862626263
 6 -6.31935429152915  1.34254204350435 -0.12987820322032
 6  0.63236184278428  0.18140881738174  2.49813883398340
 6 -6.67628814331433  0.88883813221322 -1.37377310601060
 6 -0.24810106620662 -2.08634737163716  0.29006108760876
 6  1.04262115831583 -1.85444499109911 -0.28006958915892
 6 -5.35477607790779  0.49173738843884 -2.22090940244024
 6  1.88423250845085 -2.89601013941394 -0.92383939323932
 6 -2.20554625552555  1.75010076697670  3.15788017821782
 6 -7.11591908510851  1.97588571777178  0.83936792269227
 6  3.10911724542454 -2.32133208440844 -1.39999124422442
 6  1.21943797109711  1.66903539693969  2.51553518941894
 6  2.88886696199620 -0.86775540114011 -1.05215920412041
 6  1.48063183338334 -4.36465242964296 -0.97173889078908
 6 -7.99317522352235  0.79053069066907 -2.06254464226423
 6  1.70104767036704 -4.93773470807081  0.38356435193519
 6  4.30918652765277 -2.93833230203020 -2.01608083938394
 6  3.79764063466347  0.07590699419942 -1.33368805120512
 6  2.69757037823782  1.66026361456146  2.83194909480948
 6  3.70081445924592  1.46369178067807 -1.00651721902190
 6 -9.23100808420842  0.91453361366137 -1.52024683998400
 6  1.29899496419642 -6.44814146434643  0.33662232123212
 6  4.51746058065807  2.62204895979598 -1.38976605970597
 6  3.82972224062406  3.76872739643964 -1.05570686498650
 6  2.60344191499150  3.26946479757976 -0.36877564026403
 6  5.75642924822482  2.44069891049105 -2.17814977007701
 6  4.23549916971697  5.27669254505451 -1.08378039143914
 6  6.69162922052205  3.36915260006001 -2.62338681558156
 1 -4.41451593769377  2.10508158825883  0.27273031333133
 1 -4.83331798869887 -0.69458093419342  1.06494123832383
 1 -4.97486432633263  0.65260926062606  2.29174608430843
 1 -2.64091313121312 -1.50034743024302 -0.17959488128813
 1 -3.28879987728773  0.49299121622162 -1.31111866276628
 1  0.68364279897990 -0.25241492949295  3.60168971707171
 1  1.41068507790779 -0.47708237563756  1.95379051185119
 1 -0.72020068096810 -3.04199166416642 -0.01488648634863
 1 -3.15228537383738  2.06008727282728  3.26582657235724
 1 -1.78402961806181  1.69050841474148  4.07222561046105
 1 -1.83583996509651  2.68408222802280  2.65031245304530
 1 -6.60184363526353  2.55182398589859  1.43958619161916
 1 -7.68996876387639  1.26191600080008  1.61996900760076
 1 -7.76013195039504  2.67034311741174  0.33056153635364
 1  1.12620532893289  2.08412044864486  1.35953402070207
 1  0.87042015451545  2.26152297429743  3.23574939913991
 1  1.41420574697470  0.23727437243724 -0.35819118441844
 1  2.01568936113611 -4.75237906830683 -1.79444405410541
 1  0.47506930443044 -4.64013386088609 -1.30186867026703
 1 -7.71503256505651  0.22902313291329 -2.97629356755676
 1  1.28941113001300 -4.35608678837884  1.26982455905591
 1  2.73321959205921 -4.55053225772577  0.64161197609761
 1  4.18967402970297 -3.91321877407741 -2.18257171827183
 1  5.06447754615462 -2.88611746194619 -1.12869648724872
 1  4.81019245234523 -2.13598583118312 -2.74192326592659
 1  4.85511513101310 -0.08960105460546 -1.66614278997900
 1 -9.61065466596660  1.14751220672067 -0.47991068086809
 1 -10.06410454405441  0.73911532723272 -2.27318341834183
 1  4.02579726622662  2.71469485318532  3.39056382208221
 1  6.03854732293229  1.29026117531753 -2.65237405240524
 1  5.23389408920892  5.62770553475348 -0.56457507740774
 1  4.20844286678668  5.72540930663066 -2.06588913381338
 1  3.54795246484648  5.65556516291629 -0.14096583818382
 1  1.44012132023202 -8.09520067716772  1.49199525442544
 1  7.57507995239524  3.12940848074807 -3.26965423872387
 1  6.79306119361936  4.53394890709071 -2.41434378687869

