%nproc=4
%Mem=4GB
# td=(NStates=1) B3LYP/SVP 

TD

0 1
 8 -5.44893112311231  0.26714215381538 -3.32599238893889
 8  2.97568757425743  2.98378563326333  3.25911198959896
 8  3.28200654925493  0.75544094309431  3.22419430453045
 8  1.70908854835484 -7.17716398649865  1.56239474577458
 8  1.00000488848885 -7.14013043664366 -0.66011399429943
 8  1.73106015411541  4.01055417821782 -0.09362985558556
 7 -2.33370298139814 -0.95512394259426  0.62959997659766
 7 -4.48202308370837  0.60534820132013 -1.19692804760476
 7  1.88127851945195 -0.72696426942694 -0.42928140574057
 7  2.68803434533453  1.81580732623262 -0.49559630633063
 6 -4.84286067726773  1.20978247524752 -0.01128532873287
 6 -4.44698209100910  0.18903906920692  1.15443280098010
 6 -2.99195429102910 -0.02794253755376  1.35428744174417
 6 -2.00074917161716  0.54234919211921  2.08551172077208
 6 -0.68603521382138 -0.04031946744674  1.76397707530753
 6 -0.93756794459446 -0.97534059295930  0.75439725912591
 6 -6.32414477057706  1.36487427672767 -0.09252446784678
 6  0.52169077567757  0.26663734023402  2.54395341544154
 6 -6.76752726722672  0.99750899929993 -1.34024975367537
 6 -0.21209746584658 -1.97946668356836  0.11536361786179
 6  1.13927082328233 -1.82605215181518 -0.31266284848485
 6 -5.47688828912891  0.57418563326333 -2.13760107160716
 6  1.97676176137614 -2.93888442684268 -0.82526953625363
 6 -2.23477917881788  1.52819857675768  3.08228261846185
 6 -7.20221771497150  1.79532766196620  1.04868885478548
 6  3.15025135883588 -2.33013296449645 -1.26398764386439
 6  1.16921294859486  1.78277677107711  2.50287392329233
 6  3.08603667896790 -0.89561818741874 -0.95656964516452
 6  1.40751452165217 -4.32398836323632 -0.96114783168317
 6 -8.12811871787179  0.98092973057306 -2.04965335313531
 6  1.89915748134813 -5.05205614021402  0.37371336683668
 6  4.40615622462246 -3.08876734553455 -1.98872810411041
 6  4.04546541714171  0.01743114661466 -1.32863754615462
 6  2.55954657585759  1.74865245344534  3.05044094399440
 6  3.78631300910091  1.43184859635964 -1.00612718001800
 6 -9.34412939633963  0.97851001130113 -1.36994180948095
 6  1.43801886658666 -6.60170682088209  0.40863952295230
 6  4.53010184478448  2.58539529442944 -1.48221530463046
 6  3.96299556795680  3.75334585828583 -1.12865415971597
 6  2.65375694649465  3.34055190629063 -0.47603636633663
 6  5.87536114141414  2.35813065366537 -2.17936989208921
 6  4.28353397319732  5.14583945974598 -1.17323933733373
 6  6.65557561516152  3.39291497629763 -2.50342481938194
 1 -4.52398688478848  2.23093417351735  0.23497653795380
 1 -4.79348400530053 -0.76221769786979  1.09662440664066
 1 -4.82362920282028  0.63416741644164  2.09710662036204
 1 -2.66933597349735 -1.40936833233323 -0.10325724752475
 1 -3.39502049934994  0.62497441454145 -1.42372992389239
 1  0.41663609830983  0.03184349634963  3.52566211431143
 1  1.37426143554355 -0.45357002440244  2.18803393619362
 1 -0.72657131803180 -2.95981344634464 -0.21573657135714
 1 -3.29024917021702  1.81327259135914  3.33921391109111
 1 -1.87610882598260  1.50779014291429  4.08323671157116
 1 -1.97237361846185  2.65216903670367  2.67553497529753
 1 -6.38244169506951  2.36241504500450  1.74373660666067
 1 -7.35820558755876  0.82138194739474  1.76456346704670
 1 -8.25007094429443  2.50508659175918  0.98879735993599
 1  1.10386309470947  2.02315435203520  1.44571263856386
 1  0.70712382488249  2.33475029702970  3.19170499469947
 1  1.71425575197520  0.38484912991299 -0.67845321062106
 1  1.87991578377838 -4.72103593399340 -1.81166577627763
 1  0.30004180168017 -4.48018786628663 -1.10305878927893
 1 -7.98120918271827  1.09104933553355 -3.25015095329533
 1  1.24920710961096 -4.65974715441544  1.18463604020402
 1  3.13392966306631 -4.88886609110911  0.45789360426043
 1  4.10529559185919 -4.16003345554555 -2.10523398449845
 1  5.07076817521752 -3.10038888908891 -1.24271788938894
 1  4.45455688878888 -2.39400163276328 -2.81623069666967
 1  5.01594121362136 -0.24348644314431 -1.91846802250225
 1 -9.42836643714372  0.80381783728373 -0.29938262806281
 1 -10.30644877847785  0.82256367206721 -1.92410851085108
 1  3.98500318681868  3.02413579727973  3.09138390409041
 1  6.15283875207521  1.29288143734373 -2.40572938793879
 1  5.19703040284028  5.42879564376438 -0.47196581648165
 1  4.56758878137814  5.44108087378738 -2.13936648154815
 1  3.41636930653065  5.55502510891089 -0.73210495209521
 1  1.29966727482748 -8.10951210831083  1.72641869676968
 1  7.69376182058206  3.40225576547655 -3.01802907620762
 1  6.46441832933293  4.55395090729073 -2.39681203370337

