%nproc=4
%Mem=4GB
# td=(NStates=1) B3LYP/SVP 

TD

0 1
 8 -5.28543477347735 -0.25884044444444 -3.23641343104310
 8  2.97845785128513  3.04913216791679  2.98150422882288
 8  3.36942529112911  0.84263966296630  3.20870275537554
 8  1.31564920442044 -7.34227049714971  1.31105961226123
 8  0.84672956095610 -7.08347477107711 -0.92488047094709
 8  1.79723677177718  4.01468459125913  0.28509801720172
 7 -2.40703031413141 -0.89704813501350  0.69913693029303
 7 -4.33604848624863  0.30226789328933 -1.15949430423042
 7  1.75773616521652 -0.66750832383238 -0.35455393299330
 7  2.47128267016702  1.98344408990899 -0.64035078177818
 6 -4.69382577377738  1.13509500650065  0.03860966076608
 6 -4.36030342314231  0.46098626392639  1.29579693739374
 6 -2.92874797039704  0.11208146484648  1.52766477947795
 6 -1.92629172587259  0.72909786698670  2.24004717431743
 6 -0.69405601590159  0.06023058755876  1.90395107270727
 6 -1.03627781558156 -0.97091014991499  0.89452127152715
 6 -6.18174053015302  1.30631842114211 -0.26432164756476
 6  0.63115172177218  0.34274495099510  2.50119914001400
 6 -6.56769728422842  0.70831007940794 -1.40455618431843
 6 -0.15924218031803 -1.93043178007801  0.28769085058506
 6  1.04803169936994 -1.82011155775578 -0.29108069026903
 6 -5.40415101540154  0.14408262296230 -2.12239955145515
 6  1.92132621782178 -2.86805734413441 -0.86781379067907
 6 -2.11879758065807  1.83241899879988  3.25651004120412
 6 -7.03819131233123  2.01758988818882  0.87190117601760
 6  3.06684301800180 -2.34517446864686 -1.37448869396940
 6  1.25324135143514  1.77500599399940  2.56788042394239
 6  3.02417049234923 -0.89816844244424 -0.94472846104610
 6  1.42379614981498 -4.27592355675568 -0.98398011491149
 6 -7.93572947894789  0.60324196179618 -2.00701908970897
 6  1.61172873847385 -5.01305223982398  0.37871386688669
 6  4.30874648364837 -2.98274674347435 -1.94157338863886
 6  3.88463933453345  0.06558596209621 -1.30684536693669
 6  2.63037365856586  1.77546513471347  2.89372527242724
 6  3.65032941074107  1.52953836533653 -1.09445601290129
 6 -9.14131911531153  0.89105126542654 -1.53232804810481
 6  1.23462852755276 -6.58126477667767  0.14360301930193
 6  4.60063889848985  2.64879163406341 -1.44460154325433
 6  3.88856812521252  3.76065658935894 -1.06957825212521
 6  2.65663723452345  3.42959081018102 -0.37706646934693
 6  5.92342594789479  2.38795363596360 -2.06408836393639
 6  4.23272889268927  5.24308918471847 -1.08192020542054
 6  6.74818487608761  3.31624730953095 -2.63984846174617
 1 -4.03185767186719  2.14477555765577 -0.00110707040704
 1 -4.85791044794479 -0.57681915801580  1.37765250945095
 1 -4.68004484438444  0.90404440414041  2.36189309900990
 1 -2.99505854575458 -1.62240963646365 -0.01653857565757
 1 -3.52023302060206  0.33988590569057 -1.58728627952795
 1  0.52502693739374  0.21363167516752  3.69862941104110
 1  1.28065207460746 -0.38740340774077  2.12096722952295
 1 -0.63583224412441 -2.91856932193219  0.24541954425443
 1 -3.24662480778078  1.77227849194919  3.69948993869387
 1 -1.35464667976798  1.73327269116912  4.13296168406841
 1 -2.10685706680668  2.84455827562756  2.77800522232223
 1 -6.32277572847285  2.64973377687769  1.37453968696870
 1 -7.50449021602160  1.33263307250725  1.51728873957396
 1 -7.83156909410941  2.56287237033703  0.58586706690669
 1  0.85104781318132  2.36849888648865  1.67210527782778
 1  0.81372448494849  2.30350717271727  3.54822064626463
 1  1.55796012241224  0.30899154415441 -0.19112447774777
 1  2.04692248444845 -4.84622845324532 -1.59495410511051
 1  0.37034883238324 -4.49180902840284 -1.32366084948495
 1 -7.92012307410741  0.12498272887289 -2.93885982418242
 1  0.94814700360036 -4.69224040374037  1.23100067666767
 1  2.72732900300030 -5.10186739123912  0.81427924282428
 1  3.82775783808381 -4.00839829202920 -2.26340980208021
 1  5.09747084548455 -3.31058990919092 -1.08388200580058
 1  4.97592902600260 -2.40219245184519 -2.60993006660666
 1  4.63948356785679 -0.31767386188619 -1.91085726142614
 1 -9.35718931943194  1.45671312681268 -0.45638832863286
 1 -9.90146828042804  0.94559597529753 -2.34131023102310
 1  3.96529121562156  3.19227261096110  3.15555032073207
 1  6.19120258845885  1.34422657185719 -2.09077789278928
 1  5.24020472027203  5.45367813201320 -0.47693631353135
 1  4.54328635113511  5.81003776947695 -2.12415496039604
 1  3.58418608820882  5.69674928132813 -0.40856259785979
 1  0.90687799589959 -8.19035019211921  1.06515257015702
 1  7.63343578797880  3.02567810771077 -3.00338761206121
 1  6.41083297079708  4.42255776797680 -2.74250660316032

