%nproc=4
%Mem=3GB
# td=(NStates=1) B3LYP/SVP 

TD

0 1
 8 -3.24685159535954 -1.28439349484949 -2.83110376467647
 8  2.98457891269127  3.25432709120912  2.98110238113811
 8  3.50598490669067  1.53312044034403  4.44089853345335
 8  7.66429503240324 -1.71053716791679 -0.74035479727973
 8  6.72793695009501 -2.82077287218722 -2.51705815391539
 8 -2.65082598909891  1.59375486458646  1.51069112961296
 7 -0.25713145934593 -2.52207852215222  1.06071091189119
 7 -2.62190422842284 -1.25819095409541 -0.61349349394940
 7  1.16566811621162  0.02353326302630 -0.64464940214021
 7 -1.01302044754475  1.40888629652965 -0.09980087798780
 6 -3.31375652535253 -1.34056161856186  0.68475544944494
 6 -2.61599022512251 -2.43264741094109  1.55222052885289
 6 -1.23986962866287 -2.13973178717872  1.82793078167817
 6 -0.77341714401440 -1.07773896559656  2.71226924742474
 6  0.74360547314731 -1.04416941794179  2.51812300690069
 6  0.98220090629063 -1.85630206490649  1.39427423142314
 6 -4.69234418101810 -1.78782443114311  0.19639652695270
 6  1.80629522092209 -0.26429675927593  3.14588674317432
 6 -4.79166552795280 -1.99969867826783 -1.09756009650965
 6  2.09860781718172 -1.95305349754975  0.38650092879288
 6  2.08434445634563 -0.98065997819782 -0.58872277377738
 6 -3.47082175207521 -1.42157412271227 -1.68003528692869
 6  2.97015807900790 -0.74094484278428 -1.64492839173917
 6 -1.34321289348935 -0.43045690269027  3.86993250155016
 6 -5.82562778687869 -2.06286276657666  1.22066307190719
 6  2.57453711061106  0.35707307550755 -2.39109371937194
 6  1.92504193659366  1.25118081008101  2.67338397999800
 6  1.38987235373537  0.83381002960296 -1.74560066606661
 6  4.09620496959696 -1.57462689178918 -1.98253788388839
 6 -5.85025936203620 -2.37800989138914 -2.00714416261626
 6  5.56280183118312 -1.12729447464746 -1.30086350325033
 6  3.24524461986199  0.96110451305131 -3.65414192339234
 6  0.59059148324832  1.94709985688569 -1.87098884398440
 6  2.89018765906591  1.90823040854085  3.48381372657266
 6 -0.63637746934693  2.21652628482848 -1.20348563646365
 6 -6.88056198269827 -3.23194695879588 -1.84580313901390
 6  6.71512108170817 -2.02414066916692 -1.54095478547855
 6 -1.30850950575057  3.55288752195219 -1.06737481218122
 6 -2.26658074747475  3.30879135813581 -0.16694460066007
 6 -2.03774604700470  2.01525245874587  0.47164609660966
 6 -1.19052903130313  4.58435469566957 -2.09766153415342
 6 -3.49016965346535  4.19646012891289  0.28595283498350
 6 -1.88924281548155  5.76696211441144 -2.31528526132613
 1 -3.24201269446945 -0.52118760866087  1.28425262986299
 1 -2.65187681408141 -3.48737386238624  1.21104145324532
 1 -3.20922074187419 -2.88715215961596  2.48039742844284
 1 -0.33300860566057 -2.96592535763576  0.18996600660066
 1 -1.85525391509151 -0.48309461296130 -0.66038014041404
 1  1.80535849724972 -0.43497495129513  4.19501160026003
 1  2.58148548144814 -0.81265315661566  2.55804073347335
 1  2.84101291519152 -2.69050063296330  0.69977303050305
 1 -2.10026265556556 -0.89866914091409  4.75071213301330
 1 -0.54519428742874  0.06500229662966  4.56509286578658
 1 -1.86856617041704  0.45635808250825  3.28102686798680
 1 -5.84693548074807 -1.41193932513251  2.00043433643364
 1 -5.47046580728073 -3.11858596319632  1.61676452275228
 1 -6.86160353715371 -2.26189183258326  0.87264362606261
 1  2.20400654005401  1.43007294919492  1.69089670097010
 1  0.88015796729673  1.65959820412041  2.76704467816782
 1  0.45331358895890  0.36318068786879 -0.04176620892089
 1  4.14988070727073 -1.64068712771277 -3.04205980788079
 1  3.98196902670267 -2.58518029722972 -1.75635274327433
 1 -5.80928306670667 -1.89617054165416 -2.96431989578958
 1  5.28260618191819 -1.21890237013701 -0.22182895919592
 1  5.77191863316332 -0.04651164726473 -1.51059554205421
 1  3.70247015851585  0.21117760986099 -4.38336656615662
 1  3.71746749834983  1.91313239193919 -3.19613194859486
 1  2.32416820612061  1.55708020592059 -4.29435258725873
 1  0.68731264126413  2.63459495599560 -2.73410430243024
 1 -6.79373845994600 -3.79289147304731 -0.89155817701770
 1 -7.23983224812481 -3.73163449394939 -2.66250930443044
 1  3.48654238173817  3.86451581258126  3.77551080528053
 1 -0.23380725952595  4.59810108960896 -2.63797169256926
 1 -4.21179976957696  4.38144472627263 -0.71932308380838
 1 -4.05150390009001  3.59464425802580  1.02759357075708
 1 -3.08562687888789  5.12149244034403  0.66021179107911
 1  8.32434812831283 -2.39636279047905 -0.74274490949095
 1 -1.44599752435243  6.28543900100010 -3.07302215441544
 1 -2.83552590549055  6.09804117991799 -1.79271517901790

