%nproc=4
%Mem=3GB
# td=(NStates=1) B3LYP/SVP 

TD

0 1
 8 -3.21817872807281 -1.32648770427043 -2.85180583488349
 8  3.15401585638564  3.04723638213821  3.27618188908891
 8  3.52540684888489  1.33938106640664  4.64218866246625
 8  7.76056465936594 -1.58717483168317 -0.82960372217222
 8  6.58442259865987 -3.10310110501050 -1.99661610971097
 8 -2.64330523702370  1.54918040714071  1.38961902240224
 7 -0.30438618481848 -2.44032034633463  0.87377221802180
 7 -2.66596863486349 -1.12154728972897 -0.58974111871187
 7  1.25712726212621  0.13982489218922 -0.64311924912491
 7 -0.94860400590059  1.44158956685669 -0.21638253615362
 6 -3.39348449814981 -1.29246680908091  0.70215718961896
 6 -2.56117474357436 -2.31576572277228  1.61903721052105
 6 -1.20191583328333 -2.01796961096110  1.80184817341734
 6 -0.62440224252425 -1.15686687838784  2.82474049454945
 6  0.74217533013301 -1.13735873687369  2.43968516311631
 6  0.95406809300930 -1.82687912261226  1.16695149914992
 6 -4.73341828842884 -1.77986363506351  0.25503239053905
 6  1.93358795019502 -0.38984931453145  3.23919607410741
 6 -4.76133249464946 -2.06224493289329 -1.12816315681568
 6  2.09246720312031 -1.88090628282828  0.23737601630163
 6  2.12267828972897 -0.91492340454045 -0.73392729422942
 6 -3.52863753365336 -1.47385935123512 -1.66299358275828
 6  3.02203326652665 -0.65210595889589 -1.79502340124012
 6 -1.20711928412841 -0.44085794279428  3.90823633193319
 6 -5.83998922302230 -2.17311379167917  1.28261926752675
 6  2.67472712961296  0.53565093329333 -2.45343995399540
 6  1.92823225562556  1.06289198119812  2.88286492809281
 6  1.36493986048605  0.92918956755676 -1.70318642464246
 6  4.20603595269527 -1.51029045814581 -2.13680331043104
 6 -5.76879121522152 -2.53264535493549 -2.03503695189519
 6  5.50323587458746 -1.04465621082108 -1.32121553845385
 6  3.04600469586959  1.06482488508851 -3.75854236343634
 6  0.46820924502450  2.00562570947095 -2.04636638173817
 6  2.91776041634163  1.78183776927693  3.70822616781678
 6 -0.59669350095009  2.32051668386839 -1.25763105100510
 6 -6.91495542204220 -3.20934469856986 -1.50399895859586
 6  6.70347991759176 -2.01567982308231 -1.36004669466947
 6 -1.52716137093709  3.49809204240424 -1.30481855655566
 6 -2.32780687008701  3.40493097209721 -0.18961686788679
 6 -1.99704197659766  2.10601153465347  0.43192212421242
 6 -1.39071905030503  4.57526378657866 -2.28049981798180
 6 -3.40749138563856  4.27188767166717  0.12968720842084
 6 -1.95147903910391  5.75752117031703 -2.43397713051305
 1 -3.33981247444745 -0.19946543644364  1.17867207180718
 1 -2.74207583398340 -3.36304142914291  1.08225857495750
 1 -2.96090591039104 -2.35051849624963  2.52185157385739
 1 -0.61723702850285 -3.21775054015402  0.10038704870487
 1 -1.98229661936194 -0.37822412591259 -0.68466256865687
 1  1.84965292669267 -0.62783423722372  4.36039813891389
 1  2.94075140804080 -0.96544843614361  2.77039196859686
 1  2.80729954385439 -2.42709429232923  0.28976202940294
 1 -2.08259088838884 -1.07160643464346  4.48141520332033
 1 -0.42512228022802 -0.02281648524852  4.33448980548055
 1 -1.77872718651865  0.31751419811981  3.35061382668267
 1 -5.63697448464846 -1.59123725492549  2.19709400240024
 1 -6.00901966266627 -3.14180828542854  1.64973782008201
 1 -6.82173955075508 -1.84641028442844  0.57938430013001
 1  1.92013815321532  1.40358029992999  1.83028063936394
 1  0.87007695919592  1.40309255355536  2.92748072177218
 1  0.18217647524752  0.43063743354335 -0.37333936623662
 1  4.61037675687569 -1.69099215821582 -3.13964956685669
 1  4.14729555935594 -2.61978375757576 -1.68607571557156
 1 -5.62793493189319 -2.43249417401740 -3.16590005380538
 1  4.92539046034604 -0.99643012291229 -0.28923569986999
 1  5.75169661096110  0.12466547044704 -1.24481896439644
 1  4.21732164366437  0.77048354045405 -4.07017524702470
 1  3.02640839243924  2.23826490519052 -3.84593692909291
 1  2.20883667296730  0.74319881778178 -4.56976012801280
 1  0.78859276927693  2.63927542404240 -2.78957984998500
 1 -7.00970005610561 -3.58235041894189 -0.49873889508951
 1 -7.79151741664166 -3.61084241474147 -2.15684873837384
 1  3.63610733823382  3.44114347534753  3.99860311451145
 1 -0.64727860666067  4.35682696219622 -3.14339223462346
 1 -4.17542613221322  4.36983356515652 -0.62026317781778
 1 -3.70913966366637  3.72765755935594  1.19254006540654
 1 -3.33242155835583  5.27304759585959  0.50306607650765
 1  8.68833452695270 -1.89859301350135 -0.99856049104910
 1 -1.90280320492049  6.29298975607561 -3.41746659885989
 1 -2.73093544644464  6.06232760856086 -1.63795970347035

