%nproc=4
%Mem=4GB
# td=(NStates=1) B3LYP/SVP 

TD

0 1
 8 -5.51484771477148  0.23381882148215 -3.36544633433343
 8  3.03942394789479  2.86937419211921  2.96226230463046
 8  3.40012836143614  0.71407680668067  3.02673455855586
 8  1.57778541804180 -6.99640591069107  1.70602910921092
 8  0.75883077107711 -7.10377680128013 -0.45770375327533
 8  1.70111715981598  3.94024714751475  0.05101460886089
 7 -2.38075768686869 -0.95342377257726  0.44927194379438
 7 -4.41596647804780  0.63857152365237 -1.28012636743674
 7  1.80849124072407 -0.54567614061406 -0.58960743834383
 7  2.59700524242424  1.93854960046005 -0.50479722642264
 6 -4.73523991519152  1.17074857185719  0.04523032283228
 6 -4.45373276607661  0.19234940024002  1.25415277297730
 6 -2.95268036363636 -0.06684642794279  1.33460547354735
 6 -1.96172526922692  0.56770172737274  2.15774894449445
 6 -0.70800741104110 -0.04526996249625  1.86467714531453
 6 -0.94984917271727 -0.99254231313131  0.84679649904990
 6 -6.27107946404640  1.34223201250125 -0.14019923532353
 6  0.63595220182018  0.12813348984899  2.48002702280228
 6 -6.57700821532153  0.84194344274427 -1.33623935263526
 6 -0.16295255135514 -1.97866660356036  0.07986006750675
 6  1.11462835903590 -1.78140768736874 -0.39010059225923
 6 -5.45148574887489  0.58081629632963 -2.15455276677668
 6  1.91557564276428 -2.82779331773177 -0.87961497079708
 6 -2.14410011091109  1.59717547444744  3.17293168336834
 6 -7.05675316851685  1.86875500470047  0.92217620352035
 6  3.18022435613561 -2.29318927012701 -1.27889913501350
 6  1.16862288958896  1.50957945134513  2.56536017191719
 6  3.13876195149515 -0.84831345694569 -1.11764575277528
 6  1.46801057125713 -4.27027299169917 -0.89571128802880
 6 -7.93526943294329  0.69294093169317 -1.91707009480948
 6  1.70834840044004 -5.03993492809281  0.45977197269727
 6  4.24721033003300 -3.04719318811881 -1.84200343164316
 6  3.94173504410441  0.17131653515352 -1.39425410781078
 6  2.63866448764876  1.57139472767277  2.85075097499750
 6  3.65583996179618  1.48501391289129 -1.15598216551655
 6 -9.15276025942594  0.80342250255026 -1.42466728202820
 6  1.27358242294229 -6.43542019221922  0.40161882088209
 6  4.61547038163816  2.62878963386339 -1.48492557565757
 6  3.94743401180118  3.75311583528353 -1.04348564286429
 6  2.64861643244324  3.24809266036604 -0.41310007270727
 6  5.82029563486349  2.50133497409741 -2.04466642174217
 6  4.22559817961796  5.13570844664466 -0.94351636503650
 6  6.68059811741174  3.48259394419442 -2.41162563946395
 1 -4.27621210731073  2.28769985008501  0.17120016031603
 1 -4.94364902180218 -0.84787626372637  1.18047279147915
 1 -4.70572741264126  0.68290228992899  2.23482039173917
 1 -2.70395943584358 -1.46227362286229 -0.24440136193619
 1 -3.44145514281428  0.29890180728073 -1.59300685158516
 1  0.84167860256026 -0.47735742374237  3.57466701480148
 1  1.13909791919192 -0.39843451085108  1.56928206100610
 1 -0.57449611051105 -2.85803326832683  0.00725572787279
 1 -3.26442658795880  1.85115637973797  3.04762475217522
 1 -1.98940015511551  1.01432079597960  4.22570095799580
 1 -1.42628901000100  2.68873269306931  3.12385980778078
 1 -6.48432188308831  2.60660946444645  1.53140537353735
 1 -7.47932769976998  1.14743455265527  1.77299431013101
 1 -8.18656459365937  2.33556964006401  0.71914039423942
 1  0.85674838323832  1.97194923152315  1.61425949324933
 1  0.54866797929793  2.08294511651165  3.31715753995400
 1  1.59169349574957  0.36110675567557 -0.20066543184318
 1  2.10491828402840 -4.87699152955295 -1.62811742144214
 1  0.46872867036704 -4.44982482998300 -1.19647813121312
 1 -7.86555761756176  0.60945117571757 -3.04626056425643
 1  1.13422561146115 -4.59817099679968  1.16972454905491
 1  2.75963223332333 -4.93746095059506  0.84878269316932
 1  3.83252831513151 -3.87771522372237 -2.59089255035504
 1  5.13226432483248 -3.26277512771277 -0.98225184278428
 1  4.70393182628263 -2.27807003960396 -2.71195026862686
 1  5.01857147664767 -0.16301839633963 -1.65985216091609
 1 -9.45256885738574  1.00223767926793 -0.21390408020802
 1 -10.03037117071707  1.01891330703070 -2.05367146714671
 1  4.06494118061806  2.92767615131513  2.55110987668767
 1  6.11127459565957  1.56886903610361 -2.51643045804581
 1  5.13962466226623  5.49253201740174 -0.30287890779078
 1  4.59676169866987  5.42011877757776 -1.97410995589559
 1  3.35239290889089  6.10579018541854 -0.76210795239524
 1  1.21404871297130 -7.85571672877288  1.71553760866087
 1  7.57915035943594  3.13298883878388 -2.95559283258326
 1  6.51739362686269  4.60039555175518 -2.25383773627363

