%nproc=4
%Mem=3GB
# td=(NStates=1) B3LYP/SVP 

TD

0 1
 8 -3.25203211341134 -1.46655171067107 -2.86314696899690
 8  3.07847830263026  3.03200485898590  3.11672594349435
 8  3.79634394259426  1.28236536483648  4.22944738833883
 8  7.72690129302930 -1.43428954315432 -0.63707446924692
 8  6.81536569296930 -2.88655945084508 -2.04722117021702
 8 -2.58603951045104  1.70441593069307  1.46748680918092
 7 -0.32285803200320 -2.30406672097210  0.85666050685068
 7 -2.75508754675468 -1.12167730273027 -0.62150429502950
 7  1.21972352175218  0.24015492519252 -0.69404434163416
 7 -0.88008715421542  1.46995240314031 -0.19195009290929
 6 -3.47717286698670 -1.33744130653065  0.67087406130613
 6 -2.78022664876488 -2.35066921312131  1.67901320812081
 6 -1.22809845154515 -2.01534934893489  1.82300028862886
 6 -0.51337113941394 -1.37945913761376  2.80959898039804
 6  0.75766687928793 -1.13445844684468  2.42821401600160
 6  0.90548323452345 -1.85555198989899  1.16142094609461
 6 -4.76297124372437 -1.83093874257426  0.25832271957196
 6  1.86310090149015 -0.49211954155416  3.18719087358736
 6 -4.82361872327233 -2.07105581398140 -1.03183352385239
 6  2.07487544394439 -1.89270746294629  0.26311859055906
 6  2.08044406630663 -0.80301221342134 -0.65155905740574
 6 -3.51024569446945 -1.45870783608361 -1.70966825022502
 6  3.01774283748375 -0.59318006630663 -1.73795769466947
 6 -1.31536010821082 -0.52065592259226  3.87852336063606
 6 -5.92291751585159 -2.02686916721672  1.21460246584658
 6  2.62638229512951  0.49085645384538 -2.46975158515852
 6  1.89890932333233  0.94680037203720  2.78937557915792
 6  1.36246961346135  0.86930357895790 -1.83039914591459
 6  4.21509685878588 -1.50317974707471 -1.89905953605361
 6 -5.86564090019002 -2.55352744314431 -1.96523997219722
 6  5.34629018001800 -1.23815556075608 -1.05516893379338
 6  3.16421651705171  1.08949735233523 -3.76523303250325
 6  0.55374779887989  1.98037318421842 -2.09137088218822
 6  3.11831047134713  1.77588717421742  3.41704704990499
 6 -0.44495832743274  2.34409904210421 -1.11240652855286
 6 -6.94524845134513 -3.36895065916592 -1.67803636233623
 6  6.68634820442044 -1.94226248134813 -1.38339902990299
 6 -1.40099875467547  3.50290252345235 -1.23811188588859
 6 -2.26914100350035  3.43345382438244 -0.12730063626363
 6 -1.88739101150115  2.06835776927693  0.54777370937094
 6 -1.21764174257426  4.65882214241424 -2.33048481648165
 6 -3.50556119261926  4.25899638253825  0.31549578927893
 6 -2.13780767196720  5.68195361356136 -2.45955968876888
 1 -3.45897439063906 -0.31313680358036  1.06696090069007
 1 -2.84679630603060 -3.43101822682268  1.33824417351735
 1 -3.24226404620462 -2.21615505990599  2.69348873757376
 1 -0.28906421122112 -2.89344810991099 -0.09317230723072
 1 -2.05629401910191 -0.24963126662666 -0.69076317871787
 1  1.75769373077308 -0.73023447724772  4.25966806590659
 1  2.67229456235624 -1.05178707000700  3.01175610501050
 1  2.62526134003400 -2.79089067196720  0.26145919911991
 1 -2.07533016231623 -0.75402467646765  4.68427548934894
 1 -0.47256702470247  0.26228202460246  4.47243359985999
 1 -1.58198751255125  0.47957040374037  3.61048981428143
 1 -5.92272305950595 -1.05677380858086  1.91832612561256
 1 -6.03804256495650 -2.95855996059606  1.79032187848785
 1 -6.72086946374637 -2.02025766916692  0.50343670537054
 1  1.94293043244324  1.20051999389939  1.59483709500950
 1  0.94072402390239  1.52580482478248  3.34687266096610
 1  0.18673693129313  0.25715008480848 -0.30932296459646
 1  4.46307202640264 -1.55688874787479 -2.90509611151115
 1  3.75033586338634 -2.46348812801280 -1.60113722172217
 1 -5.81123326172617 -2.08831975657566 -2.91488495229523
 1  5.22010993229323 -1.14560504040404 -0.01445822212221
 1  5.58895033633363 -0.15512250835083 -1.04625910841084
 1  3.65621553305331  0.24853134523452 -4.28493672317232
 1  3.68043379497950  2.06135721442144 -3.56779911531153
 1  2.10392618191819  1.27124162206221 -4.51478463046305
 1  0.63561747174718  2.73456495299530 -2.96323721572157
 1 -7.15491457755776 -3.85255743964396 -0.69534855605561
 1 -7.65250351525152 -3.75167649814981 -2.61522457595760
 1  3.74976870437044  3.42990235123512  3.70275352955295
 1 -0.33494737353735  4.50879215871587 -3.08734663006301
 1 -4.21248983858386  4.46835341714171 -0.28521967346735
 1 -3.93364211391139  3.87927272087209  1.35980679207921
 1 -2.93696201240124  5.35353564466447  0.57488325822582
 1  8.49792548604861 -1.90045319951995 -0.61405204020402
 1 -1.91964488908891  6.34838529562956 -3.35578043024302
 1 -3.03603595649565  5.81653302910291 -1.80803671117112

