%nproc=4
%Mem=4GB
# td=(NStates=1) B3LYP/SVP 

TD

0 1
 8 -5.40474670467047  0.15689112871287 -3.32246203590359
 8  3.07981798729873  2.89699695439544  3.33830990939094
 8  3.32017036563656  0.65712111111111  3.01564344944494
 8  1.58964660416042 -7.12470874097410  1.58263676997700
 8  0.76139102710271 -7.13602002560256 -0.50713869676968
 8  1.60815786388639  4.04258738153815  0.02445195259526
 7 -2.31747135823582 -0.99134756495650  0.68017503410341
 7 -4.35507038843884  0.54007167366737 -1.22544089888989
 7  1.86318671027103 -0.66573814681468 -0.55696417401740
 7  2.47507304920492  1.91244699019902 -0.53383012971297
 6 -4.81532792399240  1.14165566256626  0.02137793759376
 6 -4.36022341514151  0.27431759705971  1.28926628432843
 6 -2.94649974557456 -0.00650039333933  1.46264827782778
 6 -1.92663175987599  0.65569052625263  2.19782295189519
 6 -0.69253586388639  0.03577814231423  1.69489016661666
 6 -0.98857304510451 -1.01212427132713  0.77266908630863
 6 -6.30754311041104  1.30911870117012 -0.11419663506351
 6  0.63378198479848  0.19656033253325  2.39525854595460
 6 -6.64068458295830  0.90187943634363 -1.38415414411441
 6 -0.12159841594159 -2.10238897579758  0.20233231473147
 6  1.13369026522652 -1.85804535113511 -0.38181976417642
 6 -5.48988958925893  0.43736195089509 -2.12789010051005
 6  1.99727381258126 -2.88286882528253 -0.99643665296530
 6 -2.18088378927893  1.78600435733573  3.14718910911091
 6 -7.19457695089509  1.90814894409441  0.93837782368237
 6  3.22624895859586 -2.38256820802080 -1.22700394549455
 6  1.19579560686069  1.74192268566857  2.52377601350135
 6  3.12488056335634 -0.93750237583758 -1.06016000420042
 6  1.55133890409041 -4.44518048244824 -0.91605332223222
 6 -8.02271817781778  0.93859549714972 -2.06081446924692
 6  1.79778734433443 -5.10290122472247  0.37401339683968
 6  4.41301691069107 -2.98509697849785 -2.07532676397640
 6  3.99647051765176  0.16456586008601 -1.29903458585859
 6  2.63606422762276  1.72746033423342  2.96629252915292
 6  3.65259963776378  1.49926533803380 -1.03952051935194
 6 -9.21357634103410  1.00364252455245 -1.41408622392239
 6  1.36229129382938 -6.51991864206421  0.43960261926193
 6  4.49464829942994  2.61811856675668 -1.57415449854985
 6  3.78282755115512  3.78344886858686 -1.11320261456146
 6  2.50946251705171  3.35427327842784 -0.49107787048705
 6  5.83171677697770  2.40444528512851 -2.05929788488849
 6  4.26736235603560  5.14334921072107 -0.98945095849585
 6  6.62220227782778  3.38351403620362 -2.44891936883688
 1 -4.42365685178518  2.18924000410041  0.39450249054906
 1 -4.90793545044504 -0.72093356945695  0.97817256145615
 1 -4.84575141504151  0.67069106880688  2.24925183488349
 1 -2.80551959185919 -1.68188558405841  0.07318039623962
 1 -3.39753075037504  0.44042595969597 -1.52174972587259
 1  0.55191962666267 -0.17446713471347  3.43502305040504
 1  1.64070808020802 -0.51643631103110  2.09401453425343
 1 -0.47348600950095 -3.07872533753375  0.03573857615762
 1 -3.22343248854886  1.89936120022002  3.42109209890989
 1 -1.48365958105811  1.50533989788979  3.98138652655266
 1 -1.99275565666567  2.82622644244424  2.62028945074507
 1 -6.68335178607861  2.57530633413341  1.57413964696470
 1 -7.89180894789479  1.08902871207121  1.35330234093409
 1 -7.92805874307431  2.77284336743674  0.54394287448745
 1  1.00030273867387  2.33554559115912  1.55445351265127
 1  0.53717683018302  2.30420724272427  3.29008483268327
 1  1.42289661606161  0.21981262626263 -0.37903326862686
 1  2.19109690189019 -4.91993582398240 -1.62996760646065
 1  0.48416021352135 -4.56252610011001 -1.33640212361236
 1 -7.91130219201920  0.95629586018602 -3.16273221142114
 1  1.14542673157316 -4.50531171087109  1.22665024162416
 1  2.86950322042204 -4.92227943244324  0.69057687258726
 1  4.39517457975798 -4.09638709090909 -2.46059952105211
 1  5.50541163956396 -2.91086993719372 -1.39648326592659
 1  4.58452988608861 -2.56569880248025 -3.09789886348635
 1  4.91319093859386 -0.08673076757676 -1.74260043574357
 1 -9.24857845834583  1.31494895039504 -0.41150384018402
 1 -10.17399553315331  0.88888030373037 -2.04141024102410
 1  3.99595428192819  2.56559994369437  3.43791855755576
 1  6.33688715691569  1.46092824202420 -2.17340615561556
 1  5.43541424122412  5.08592135633563 -0.82879149904991
 1  4.20801282378238  5.43201996769677 -2.01089363426343
 1  3.79585725532553  5.90712031843184 -0.26437817941794
 1  1.52186949504950 -7.97972913001300  1.32588864376438
 1  7.42559500390039  3.22978851875187 -2.87229450275027
 1  6.37661954945494  4.42079759195920 -2.30337268976898

