%nproc=4
%Mem=3GB
# td=(NStates=1) B3LYP/SVP 

TD

0 1
 8 -3.33482039223922 -1.41404646014601 -2.82175282958296
 8  2.95978643344334  3.02322398089809  3.14114838573857
 8  3.82109641784178  1.36302343064306  4.25729017261726
 8  7.83342194509451 -1.59791590579058 -0.70188094989499
 8  6.59675383178318 -3.05032582748275 -1.95540198829883
 8 -2.38225913241324  1.49964545364536  1.49868992949295
 7 -0.31969771597160 -2.30133644794479  0.83403824462446
 7 -2.68384042204220 -1.26648178317832 -0.56047819241924
 7  1.19981153055306  0.13999490919092 -0.75141007820782
 7 -0.88454760026003  1.39210461836184 -0.19642053995400
 6 -3.39439458915892 -1.36634419681968  0.67554452835284
 6 -2.67965659175918 -2.23413755995600  1.72939824662466
 6 -1.22773841554155 -1.93833164716472  1.77813580218022
 6 -0.52871267356736 -1.14896608830883  2.87314533503350
 6  0.80062117471747 -1.10804580558056  2.47460865546555
 6  0.94482716891689 -1.83322975767577  1.19855465946595
 6 -4.79079402600260 -1.94280992969297  0.23424031133113
 6  1.88879347074707 -0.30793112271227  3.12479463396340
 6 -4.84672103350335 -2.02953166156616 -1.07680802130213
 6  2.04613256965697 -1.97211540374037  0.23194547324732
 6  2.07528355025503 -0.81741365356536 -0.74071797329733
 6 -3.59754442434243 -1.44976694199420 -1.62069935333533
 6  3.07480854405441 -0.59589033733373 -1.77022092099210
 6 -1.38013658585859 -0.42633649064906  3.93298880718072
 6 -5.86166139023902 -2.19634611491149  1.30006101170117
 6  2.53769342624262  0.51213858205821 -2.48094270427043
 6  1.81706113851385  1.03999969196920  2.77968461006101
 6  1.47946131263126  0.96907355595560 -1.79478558455846
 6  4.27935328442844 -1.36550597969797 -1.99864949504951
 6 -5.91144548064806 -2.35069716011601 -2.02492594079408
 6  5.47266281728173 -1.07651939713971 -1.09781319821982
 6  3.20175027042704  1.11863026562656 -3.69993650285029
 6  0.52210463456346  2.01725687258726 -2.06570831593159
 6  2.92050069036904  1.81497108260826  3.54013935913591
 6 -0.55084891649165  2.27246187838784 -1.24396968486849
 6 -6.99885381188119 -3.14749851395140 -1.85790434913491
 6  6.59059862946295 -1.93099135423542 -1.27718840884088
 6 -1.47612626742674  3.48528076127613 -1.29023709840984
 6 -2.34108819821982  3.26505698469847 -0.21262916911691
 6 -1.83981625402540  1.95445637913791  0.47822675467547
 6 -1.30210018841884  4.58151441164116 -2.20843261126113
 6 -3.35576621312131  4.29407989088909  0.38145238493849
 6 -2.17046093729373  5.65386080428043 -2.44416814961496
 1 -3.44512300550055 -0.41472696259626  1.18078228282828
 1 -2.82285391179118 -3.36884200920092  1.29699004810481
 1 -3.06072589238924 -1.90802424682468  2.70257964666467
 1 -0.24760006480648 -3.01950071517152 -0.01388437843784
 1 -2.18475686538654 -0.52260856435644 -0.80255435783578
 1  1.75915387678768 -0.64739619341934  4.23853595269527
 1  2.79734706760676 -0.87359925122512  2.96626155555556
 1  2.81896070997100 -2.88247983088309  0.32302535573557
 1 -1.79684231353135 -1.25314458845885  4.39012607440744
 1 -0.63033280128013  0.17077287368737  4.66958331483148
 1 -1.97757707150715  0.14010645734573  3.27104586988699
 1 -5.70298108530853 -1.84257238843884  2.27824211721172
 1 -5.65201396209621 -3.35167927252725  1.48218106440644
 1 -6.86795417221722 -2.11945758915892  0.87640400210021
 1  1.82582872227223  1.30169011091109  1.70169778107811
 1  0.91750170167017  1.54693693799380  3.12070004370437
 1  0.33281153875388  0.22309667946795 -0.25512754505451
 1  4.53874959415942 -1.36887994699470 -3.07175277717772
 1  4.10206103590359 -2.51071285048505 -1.84773188118812
 1 -5.43593573197320 -2.20686161076108 -3.00480394419442
 1  5.22238015931593 -0.83563404330433  0.05070829452945
 1  5.89762120342034 -0.05595259135914 -1.47092157465747
 1  4.45511542304230  0.58198469056906 -3.59536776627663
 1  3.25063081468147  2.32718379707971 -3.85829816521652
 1  2.67320310961096  0.55757025492549 -4.73813696569657
 1  0.65137904790479  2.55443694019402 -3.00204109610961
 1 -7.20277936403640 -3.00577276117612 -0.76554557575758
 1 -7.70212847774777 -3.42721405190519 -2.78011106460646
 1  3.75171889938994  3.37492685368537  3.49872312651265
 1 -0.40399427822782  4.57162844234423 -2.88739663506351
 1 -4.39611820142014  4.21210779257926 -0.07370852235224
 1 -3.53392214191419  3.95373016661666  1.45624643604361
 1 -3.04969328552855  5.48956924802480  0.52744851475148
 1  8.44947064056406 -2.25869902410241 -1.04814544954495
 1 -1.72948587318732  6.33767422452245 -3.24065891809181
 1 -3.15319767266727  5.63846522232223 -1.90849675717572

