%nproc=4
%Mem=4GB
# td=(NStates=1) B3LYP/SVP 

TD

0 1
 8 -5.44793102310231 -0.04208876927693 -3.29625941564156
 8  3.31516152165217  2.62247950265026  3.05473155155516
 8  3.33201154975498  0.39425482448245  3.18916080118012
 8  1.75270290979098 -6.94369063916392  1.60480898719872
 8  0.77351223922392 -6.95602202580258 -0.37390537343734
 8  1.59923697179718  4.01680480328033 -0.13233372597260
 7 -2.35000461156116 -1.04074250445044  0.69404642124212
 7 -4.40930581198120  0.46888455495550 -1.23628198299830
 7  1.65490588218822 -0.60618219121912 -0.59795827342734
 7  2.53603914581458  1.90997674317432 -0.53308005470547
 6 -4.77627401860186  1.22421391839184 -0.07651185138514
 6 -4.38778617141714  0.31060122542254  1.27519487718772
 6 -2.90587568316832  0.04361461816182  1.47262927592759
 6 -1.81775087178718  0.55996095329533  2.27187035663566
 6 -0.65600221052105 -0.12624806030603  1.86906758435844
 6 -0.98522271007101 -1.06502956185619  0.88074989438944
 6 -6.22501485758576  1.47519530883088 -0.19191440684068
 6  0.61125973257326  0.01216189268927  2.55845486558656
 6 -6.63506402090209  1.02776202460246 -1.42308803750375
 6 -0.17846410251025 -2.01244998189819  0.23842592409241
 6  1.08296519271927 -1.89373892049205 -0.34842642484248
 6 -5.46945754605461  0.28307652235224 -2.16579389088909
 6  1.90617470267027 -2.85949648804880 -0.92024903420342
 6 -2.12489819071907  1.63821957885789  3.12996738693869
 6 -7.01114860806081  2.12221035023502  0.84620860676068
 6  3.08297463116312 -2.27721767296730 -1.33939518461846
 6  1.16590261756176  1.47664615801580  2.61503513941394
 6  2.89532760806081 -0.82369099469947 -1.12711669986999
 6  1.65824959515952 -4.38700466486649 -0.98967068396840
 6 -7.96636254225423  0.91153279087909 -2.11702008980898
 6  1.75040260586059 -4.89260019461946  0.39763575907591
 6  4.33393900290029 -2.84298276707671 -1.88900813211321
 6  3.92111298189819  0.11019042254225 -1.25078976137614
 6  2.74344496569657  1.34179176737674  3.07882378227823
 6  3.65383976177618  1.48765417691769 -1.04971153845385
 6 -9.22642762616262  1.01830399069907 -1.58431324662466
 6  1.33741880658066 -6.34395104530453  0.46745540454045
 6  4.58764759935994  2.70991774667467 -1.40961804490449
 6  3.81517078547855  3.75684620832083 -1.07586888118812
 6  2.50666223702370  3.21400925202520 -0.45499426212621
 6  5.84117772307231  2.59319416001600 -2.17004895999600
 6  4.00285590539054  5.27407228302830 -1.12397441084108
 6  6.68337839543954  3.58342402720272 -2.56508098499850
 1 -4.13543802990299  2.16766784688469  0.00449348964897
 1 -5.13946860376038 -0.57132860896090  1.37030177437744
 1 -4.66933377327733  1.06841084078408  2.19142605230523
 1 -2.77010605050505 -1.56915431093109 -0.16295321712171
 1 -3.54735573287329  0.50541245834584 -1.62460001090109
 1  0.32943737843784 -0.26055574357436  3.65678522662266
 1  1.44423843324332 -0.75775044244424  2.20800593339334
 1 -0.62103076397640 -3.04599206420642  0.09813481578158
 1 -3.11704184948495  1.58968023212321  3.42640262996300
 1 -1.41198241334133  1.69232859675968  4.10856924482448
 1 -1.64679106020602  2.63823764356436  2.96784420622062
 1 -6.11127457835784  2.84161296479648  1.31756398939894
 1 -7.49472923992399  1.55793560276028  1.51009802050205
 1 -7.79683562076208  2.47045312841284  0.41667014721472
 1  1.28633134153415  1.75649768636864  1.65088315561556
 1  0.63525663816382  2.06048287028703  3.29538536273627
 1  1.24356868326833  0.41136178117812 -0.63167853315332
 1  2.29636742894289 -4.81634546494649 -1.86015062476248
 1  0.46895869336934 -4.39893974147415 -1.36038452185219
 1 -7.74448551035104  0.44045427602760 -3.05805174337434
 1  1.02293448234823 -4.32649382908291  0.95708328492849
 1  2.73485975607561 -4.92165937043704  0.84464227912791
 1  4.29432449474948 -4.01529898209821 -2.02623608470847
 1  5.17606870527053 -2.60926977717772 -1.00511412901290
 1  4.88636006910691 -2.26545877847785 -2.72527160076008
 1  4.84476409590959 -0.21757385188519 -1.72993916961696
 1 -9.63039664016402  1.15314276977698 -0.52900559035904
 1 -10.05921405500550  1.17705912161216 -2.35233133313331
 1  4.33502818931893  2.42851623532353  3.29514428012801
 1  6.08236170437044  1.59815196439644 -2.61864067906791
 1  4.90154085388539  5.50916368056806 -0.40815943584358
 1  4.31521354385439  5.68493525922592 -2.06259880478048
 1  2.98162583218322  5.71299090549055 -0.93589533113311
 1  1.57478478657866 -7.93953511061106  1.72089814471447
 1  7.59111155555556  3.51993753365336 -3.19852712601260
 1  6.57353924142414  4.38933444564456 -2.25707806030603

