%nproc=4
%Mem=3GB
# td=(NStates=1) B3LYP/SVP 

TD

0 1
 8 -3.26650356055606 -1.54919997549755 -2.98598925322532
 8  3.16339679447945  3.04158581708171  2.95515978687869
 8  3.79023333153315  1.45054218251825  4.24117856145615
 8  7.74435303820382 -1.65546166036604 -0.62922368416842
 8  6.60369452585258 -2.92551334623462 -2.13086953505351
 8 -2.55412631913191  1.70937642674267  1.55556561706171
 7 -0.33336908310831 -2.35925223952395  1.01699654045405
 7 -2.67914995299530 -1.20877601260126 -0.68730087468747
 7  1.11299284868487  0.04459536923692 -0.73370830803080
 7 -1.13503264876488  1.43606901480148 -0.29908080598060
 6 -3.43208835853585 -1.22969053145315  0.47867484138414
 6 -2.75190381648165 -2.03168731493149  1.63941924872487
 6 -1.19852549424943 -1.97297511151115  1.90899888848885
 6 -0.49546934923492 -1.16856804850485  2.86119413991399
 6  0.85140625322532 -1.18148314931493  2.49830102470247
 6  0.89175186138614 -1.94455088978898  1.30897570157016
 6 -4.69890483708371 -1.82110775947595  0.16867375467547
 6  1.84368896029603 -0.40322065166517  3.13723587808781
 6 -4.76772313371337 -2.09873858225823 -1.10128046854685
 6  1.95440339673967 -1.94207239943994  0.29144142284228
 6  2.02787880978098 -0.99291120332033 -0.68373227472747
 6 -3.45253992389239 -1.57656962226223 -1.81650893429343
 6  3.00435149834983 -0.62976372467247 -1.63234713361336
 6 -1.25655422762276 -0.55975983298330  3.99767527582758
 6 -5.78277350145015 -2.03881036133613  1.25691669726973
 6  2.56411606850685  0.49288665686569 -2.41116572657266
 6  1.89690912331233  0.99400509250925  2.68371501310131
 6  1.29377274377438  0.93365001360136 -1.72542864886489
 6  4.33329867896790 -1.51102053115311 -1.92395202530253
 6 -5.73270760686069 -2.71068315871587 -2.06308975717572
 6  5.45834138513851 -1.11928367356736 -1.24920833773377
 6  3.15565566096610  1.16683508610861 -3.49975648484849
 6  0.54480690479048  2.06235138203820 -2.01943368846885
 6  3.09451809210921  1.81338092359236  3.38967431263126
 6 -0.62840667226723  2.35468010021002 -1.23370865876588
 6 -6.92985691219122 -3.35849961406141 -1.68426698539854
 6  6.65951552115212 -1.99009726482648 -1.35971666166617
 6 -1.39137779257926  3.52046427962796 -1.16305438013801
 6 -2.26762085148515  3.39695017401740 -0.17277518371837
 6 -2.08056032843284  2.05180611411141  0.48779771177118
 6 -1.28456843524352  4.72100836103610 -2.05594736273627
 6 -3.33444408090809  4.32415289818982  0.28731297099710
 6 -2.12582647384738  5.74979039723972 -2.25454918771877
 1 -3.66575506870687 -0.12873836373637  0.89814401900190
 1 -2.86681830823082 -3.00821594659466  1.30520086918692
 1 -3.15192501230123 -2.08526197059706  2.63263265196520
 1 -0.74113941874187 -2.70544931003100  0.03580059005901
 1 -1.95701409110911 -0.45173147664766 -0.75421952435244
 1  1.62139010041004 -0.27075852965297  4.27614971407141
 1  2.80475780868087 -0.73079497079708  3.04258918831883
 1  2.69318813271327 -2.75761734463446  0.21694474767477
 1 -1.98900152945295 -1.28289756375638  4.57835489728973
 1 -0.55772554055406 -0.04548875247525  4.81880823732373
 1 -1.88063737753775  0.25303775047505  3.67221598689869
 1 -6.05255604280428 -1.21437956915692  1.79524381738174
 1 -5.83460222092209 -3.11844594919492  1.85930877717772
 1 -6.67143452025203 -2.28974461786179  0.59298566026603
 1  1.93033917331733  1.02689263116312  1.65486309760976
 1  0.74838478997900  1.57241948624863  2.82802077577758
 1  0.17594585218522  0.41566593639364 -0.05670770307031
 1  4.55159087828783 -1.81293435243524 -2.98764436633663
 1  4.02793362316232 -2.47923970317032 -1.74837194519452
 1 -5.25760789918992 -2.56293721832183 -3.22017548134813
 1  5.25472339363936 -1.06745722562256 -0.04117089338934
 1  5.80993243454346 -0.14341133723372 -1.52298678117812
 1  3.97720763226323  0.65076156825683 -3.96053428292829
 1  3.55965171677168  2.28357943664366 -3.13289562496250
 1  2.38118390769077  1.27304180208021 -4.31714486648665
 1  0.96559046904690  2.60196169266927 -2.94784567656766
 1 -7.01502058815882 -3.45976816071607 -0.49864888608861
 1 -7.83859212411241 -3.51700303080308 -2.32347540104010
 1  3.81264499199920  3.39050841184118  3.49628288248825
 1 -0.30767464626463  4.76419769926993 -2.67426532193219
 1 -4.02836142574257  4.47333391519152 -0.54658581008101
 1 -4.01047979767977  3.81274606820682  1.14708551995200
 1 -3.12615093129313  5.42450274137414  0.75866163606361
 1  8.30614630813082 -2.36751990619062 -0.69769040404040
 1 -1.94579750435044  6.44797525462546 -3.05484033623362
 1 -3.14527688058806  5.80126150195019 -1.88171407890789

