%nproc=4
%Mem=4GB
# td=(NStates=1) B3LYP/SVP 

TD

0 1
 8 -5.34862109210921  0.08576401600160 -3.22411220092009
 8  3.10917092259226  2.99740699539954  2.86245232363236
 8  3.24230257885789  0.69996539553955  3.06900878597860
 8  1.57081472097210 -7.02033830393039  1.66962546884688
 8  1.03734862286229 -7.13111953555356 -0.59931791469147
 8  1.71094814291429  3.93495661846185  0.09455896329633
 7 -2.28241785288529 -1.09796822702270  0.70036705330533
 7 -4.42954783618362  0.53060072657266 -1.23932228702870
 7  1.84897528912891 -0.75117669066907 -0.43070154775478
 7  2.52098764066407  1.87495324082408 -0.65657240394039
 6 -4.74355074627463  1.12924442144214  0.03965976577658
 6 -4.43281067386739  0.21829199449945  1.23000035773577
 6 -2.92170726632663 -0.02469221252125  1.38354036703670
 6 -2.00845994269427  0.62206716391639  2.11268443804380
 6 -0.70626723702370 -0.00003543904390  1.74786546414641
 6 -0.95477966576658 -1.00790384928493  0.83310512991299
 6 -6.30904326042604  1.32977076637664 -0.09667488288829
 6  0.59881848844884  0.23247392389239  2.46438545864586
 6 -6.71635214971497  0.96061530993099 -1.36373210191019
 6 -0.17962421852185 -1.99225796269627  0.12240432193219
 6  1.05376227242724 -1.89287883448345 -0.39102068426843
 6 -5.54716531683168  0.47147536223622 -2.07365467696770
 6  1.90429451465147 -2.93698423682368 -0.97760476977698
 6 -2.13399910081008  1.76106186308631  3.04117850805081
 6 -7.01493898709871  1.92333046224622  1.02757674357436
 6  3.11522785648565 -2.37630758195820 -1.38271951705171
 6  1.03789981728173  1.65437393079308  2.42168580448045
 6  3.05735381068107 -1.02435106070607 -1.03708769696970
 6  1.48385215541554 -4.38880484488449 -0.95298701560156
 6 -8.06247215321532  1.04431606920692 -1.97182557035704
 6  1.72352991859186 -5.10297123172317  0.33995999149915
 6  4.38873448244825 -2.95873434223422 -1.93376260756076
 6  3.96700757135714  0.08921832533253 -1.26770145254525
 6  2.60296091729173  1.69026661486149  2.84019991989199
 6  3.67099147694770  1.46244165566557 -1.22467903520352
 6 -9.28001298469847  0.93781594189419 -1.42026684198420
 6  1.40937600230023 -6.49047569776978  0.38005666466647
 6  4.60286912151215  2.62613936883688 -1.39596667976798
 6  3.89879914831483  3.71928245194519 -0.97030832513251
 6  2.56404797559756  3.33032088318832 -0.49683844654465
 6  5.88100170547055  2.49910475107511 -1.96716867196720
 6  4.20341596139614  5.22925780158016 -0.91398341174117
 6  6.79925998359836  3.48871455625563 -2.28923340024002
 1 -4.24204869096910  2.12572365246525  0.00343338363836
 1 -5.03720837773777 -0.59574105020502  1.14543928812881
 1 -4.75553239313931  0.73476747644764  2.17572448214821
 1 -2.73414245414541 -1.49975737123712 -0.15169209100910
 1 -3.59704070137014  0.34944686178618 -1.68258580948095
 1  0.39352378707871 -0.14323401140114  3.49887943604360
 1  1.47686169556956 -0.28664333173317  1.86620175297530
 1 -0.72393105400540 -2.84762222722272 -0.12091708940894
 1 -3.26194633993399  2.04295555965597  3.23090308000800
 1 -1.56512772787279  1.62049141304130  3.95573396129613
 1 -1.85584196529653  2.76830064986499  2.68902632443244
 1 -6.45668911981198  2.71148995249525  1.60428266126613
 1 -7.37157692469247  1.16819662886289  1.59182619331933
 1 -7.91673761096110  2.74340042314231  0.71279976017602
 1  1.12077478587859  2.21150318691869  1.43509157645765
 1  0.63694680718072  2.43988081008101  3.06196202040204
 1  1.44446877327733  0.23368401340134 -0.20563592889289
 1  1.92554034623462 -4.89094292469247 -1.73785839553955
 1  0.33622542004200 -4.21707155465547 -1.09178766216622
 1 -7.91023208500850  0.85643587418742 -2.99997593579358
 1  1.34822701160116 -4.62090327002700  1.33313088968897
 1  2.75729199929993 -4.97176438093809  0.53133094799480
 1  4.01074613691369 -3.91605905810581 -1.94552801390139
 1  5.24496559495950 -2.97443629382938 -1.17637125472547
 1  4.68763019611961 -2.52100433303330 -2.97007608120812
 1  4.78052767226723 -0.23756585108511 -1.77998417411741
 1 -9.33055665616562  1.00700815631563 -0.36586927672767
 1 -10.18781691529153  0.90033144884488 -2.06393249324933
 1  4.03177786428643  2.78385176887689  2.98534330003000
 1  6.15064853305330  1.40704285348535 -2.18990780578058
 1  5.10631133093309  5.37014977917792 -0.26707532743274
 1  4.60805282778278  5.58161492719272 -1.84224676957696
 1  3.39674734433443  5.77388699509951 -0.71404314591459
 1  1.15586289438944 -8.02233339043904  1.68774482938294
 1  7.72514495889589  3.27246278617862 -2.74685195849585
 1  6.57023891139114  4.45446095829583 -1.97737008950895

