%nproc=4
%Mem=3GB
# td=(NStates=1) B3LYP/SVP 

TD

0 1
 8 -3.26773368356836 -1.59424447994800 -2.85587624192419
 8  3.01898235303530  3.26945860436044  3.42962723362336
 8  3.80588489668967  1.35502263056306  4.35122956655666
 8  7.60397900080008 -1.85868198239824 -0.73964472627263
 8  6.40888504490449 -3.05311610651065 -2.15314176227623
 8 -2.64508541504150  1.61537702680268  1.30679073957396
 7 -0.18689443564356 -2.36240255455546  0.87682252305231
 7 -2.65287732573257 -1.16969210421042 -0.65137728232823
 7  1.21041259065907  0.17659856955696 -0.85221015821582
 7 -1.01140028552855  1.48169357725773 -0.29951084898490
 6 -3.36328147784778 -1.32906046844684  0.65743271717172
 6 -2.53511213731373 -2.25722986918692  1.59709501630163
 6 -1.24331997369737 -1.97722553655366  1.79560754935494
 6 -0.56100590289029 -1.26178737043704  2.82463048354835
 6  0.74412552515251 -1.12045704670467  2.50504169876988
 6  1.03769645584558 -1.83137957265727  1.25724052805281
 6 -4.68337328392839 -1.91141679037904  0.29187607490749
 6  1.78594318571857 -0.35216554615462  3.25933808830883
 6 -4.76009237063706 -2.14582329072907 -1.09901024152415
 6  2.04977293369337 -1.82780097229723  0.24258653735374
 6  2.09531555345535 -0.81732364456446 -0.68200210171017
 6 -3.49417408730873 -1.64885685098510 -1.66253353675368
 6  2.99321038423842 -0.53605435373537 -1.76436033493349
 6 -1.25630420262026 -0.59825368236824  3.96554206250625
 6 -5.73049827392739 -2.08543502380238  1.26833783938394
 6  2.63574323122312  0.55770313851385 -2.45176978697870
 6  1.86854628702870  1.15995168716872  2.90782742434243
 6  1.38400176667667  1.08752540114011 -1.82966907290729
 6  4.14177952705271 -1.35578500760076 -2.13959358945895
 6 -5.90782511861186 -2.68883097349735 -1.94255770397040
 6  5.32986853785379 -1.14934667986799 -1.23802721962196
 6  3.27192728812881  1.26923532613261 -3.57715422462246
 6  0.67109953405341  2.13082822972297 -2.05362710781078
 6  2.95211385168517  1.87820740624062  3.63317866306631
 6 -0.62725655725573  2.31289592179218 -1.34733002090209
 6 -6.90574450095010 -3.55753951805181 -1.52697125582558
 6  6.50581015061506 -2.19724797989799 -1.32607329732973
 6 -1.42527118191819  3.57655988918892 -1.23883195789579
 6 -2.37359144854485  3.32078255725573 -0.23988189438944
 6 -2.07311958435844  2.12916384988499  0.27006593859386
 6 -1.16827680608061  4.64262052225223 -2.12414418241824
 6 -3.44592522902290  4.34038452135214  0.13705794549455
 6 -1.77542143334333  5.84730014821482 -2.29520325312531
 1 -3.41458995219522 -0.31400689058906  1.00510471507151
 1 -2.68161978837884 -3.28855398039804  1.38834918401840
 1 -3.19302912271227 -2.08026147054706  2.58854824352435
 1 -0.50797610241024 -2.68831759685969 -0.08424141414141
 1 -2.04743313301330 -0.39361566506651 -0.90350445284528
 1  1.57795575697570 -0.45877733153315  4.27774987408741
 1  2.71253858675868 -0.80026191749175  3.29391432083208
 1  2.90334914881488 -2.50201178407841  0.31652470567057
 1 -2.05501813111311 -1.21328060206021  4.66061312311231
 1 -0.49494926292629 -0.38412261586159  4.71759811631163
 1 -1.85107442124212  0.16848929562956  3.68589735503550
 1 -5.57231801900190 -1.54400253145315  2.15503979697970
 1 -5.85864462516252 -3.22375648024802  1.57230007630763
 1 -6.85209258605861 -1.77611325472547  0.98577493919392
 1  1.98915505490549  1.30491043294329  1.73736134743474
 1  0.77209716121612  1.58780102440244  3.12671064476448
 1  0.44963322092209  0.13641801160116 -0.12681471377138
 1  4.55155087428743 -1.37405046404640 -3.17169277117712
 1  3.84810564036404 -2.47652943214321 -1.89647675567557
 1 -5.61730386878688 -2.17156808140814 -3.02396586038604
 1  5.18984690599060 -1.14736521642164 -0.24695147144714
 1  5.56566800810081 -0.22687968406841 -1.47801228372837
 1  3.95396530803080  0.87286377847785 -4.19358758825883
 1  3.71680743234323  2.21580265896590 -3.23949628502850
 1  2.45681147044704  1.57215171307131 -4.30570372237224
 1  1.12069597959796  2.70888238473847 -2.78675956795680
 1 -7.18928801490149 -4.00592277617762 -0.58514753595360
 1 -7.73001126602660 -3.83987531803180 -2.17019007250725
 1  3.73496722422242  3.33466282728273  4.03811706590659
 1 -0.53982786158616  4.43960524002400 -2.80940883628363
 1 -3.92441103070307  4.79537611941194 -0.85221637313731
 1 -4.10819956965697  3.86747154075408  0.79324013541354
 1 -2.88580689688969  5.16771706280628  0.87943371327133
 1  8.38518421192119 -2.55212836703670 -0.95909654465447
 1 -1.33529645424542  6.52776323342334 -2.92283713591359
 1 -2.49775212811281  6.08936031183118 -1.50219612711271

