%nproc=4
%Mem=3GB
# td=(NStates=1) B3LYP/SVP 

TD

0 1
 8 -3.19832674287429 -1.40057511301130 -2.75036569086909
 8  3.04703515831583  3.00343200170017  3.31889616051605
 8  3.96083039123912  1.12518964726473  4.26511095469547
 8  7.77979658255826 -1.59050516471647 -0.65109587138714
 8  6.61247540394039 -2.90889168406841 -2.13470991909191
 8 -2.63753465996600  1.66444193329333  1.32996305680568
 7 -0.40360610681068 -2.37340365466547  0.85691053185319
 7 -2.70959299729973 -1.11550668566857 -0.49969211381138
 7  1.10543209260926  0.10567147684768 -0.75729066626663
 7 -1.12386153165317  1.44895030293029 -0.33670456835684
 6 -3.49250440014001 -1.31172873527353  0.75052202610261
 6 -2.75577420352035 -2.35230937713771  1.77015232203220
 6 -1.31864750645065 -1.96801461546155  1.84624261286129
 6 -0.56884668696870 -1.16688788048805  2.81952997349735
 6  0.76672778537854 -1.14482948394840  2.44865606020602
 6  0.83024571077108 -1.77848428312831  1.19511431543154
 6 -4.80192513911391 -1.90341599029903  0.27725461276128
 6  1.82021661306131 -0.47253758335834  3.21139329382938
 6 -4.84626098749875 -2.01004971337134 -1.03917425792579
 6  2.03885184158416 -1.87124531673167  0.32943522222222
 6  2.07447346924692 -0.93861577377738 -0.70072397389739
 6 -3.51221589148915 -1.50295226052605 -1.59481676507651
 6  3.09015007820782 -0.62729347764776 -1.74358825772577
 6 -1.28129670187019 -0.59801365836584  4.04633014131413
 6 -5.78457368146815 -2.15310179047905  1.33515452105211
 6  2.60331998889889  0.48512588078808 -2.43001761176118
 6  2.01137056945695  1.02449814181418  2.73532017361736
 6  1.49950331683168  0.95773242184218 -1.67383348934894
 6  4.29475482458246 -1.46552598169817 -1.99492912301230
 6 -5.78256259235924 -2.62571466186619 -1.94528797699770
 6  5.52004755575558 -0.96177792299230 -1.19651306820682
 6  3.18172826822682  1.18667707030703 -3.62084859405941
 6  0.60840326442644  2.06359150605061 -2.00362210731073
 6  3.10456909720972  1.72818240374037  3.59614495969597
 6 -0.63294712631263  2.31219585178518 -1.32803809170917
 6 -6.89278320482048 -3.28397216131613 -1.68615717441744
 6  6.69947951755176 -1.92074032913291 -1.41180187018702
 6 -1.49132778757876  3.50508274147415 -1.38466654135414
 6 -2.37261135053505  3.34946542554255 -0.38942684888489
 6 -2.14474674707471  2.07406834033403  0.30219915191519
 6 -1.16444642304230  4.71947820802080 -2.21730349834983
 6 -3.52188282478248  4.30290077297730  0.08114235393539
 6 -1.95738963016302  5.75990140834083 -2.42553628642864
 1 -3.61711020422042 -0.20976646654665  1.43398760336034
 1 -2.60694232063206 -3.37019214421442  1.22284263336334
 1 -3.35872569236924 -2.69451289568957  2.79844923362336
 1 -0.47869317411741 -2.65060382548255 -0.15883887388739
 1 -2.04391278097810 -0.35982228572857 -0.62422652505250
 1  1.74480244164416 -0.71394284808481  4.30803290239024
 1  2.83235056795680 -0.92780467176718  3.05259018841884
 1  2.71573038693869 -2.61445302820282  0.37401045424543
 1 -1.89147177647765 -1.15158443244324  4.75708277007701
 1 -0.47772754075408 -0.08602280588059  4.55023137963796
 1 -1.99893920772077  0.29155160186019  3.68829759505951
 1 -5.85242602980298 -1.37598572977298  2.09647394039404
 1 -5.76650541124112 -3.15971007560756  1.66472931923192
 1 -6.80061743854385 -2.12493813721372  0.81983834553455
 1  2.42845898529853  0.98047798969897  1.92017962926293
 1  1.05042499399940  1.61979422372237  2.49155712941294
 1  0.26182444004400  0.37239160896090 -0.23720575287529
 1  4.64056977617762 -1.60517357635764 -2.95690129202920
 1  4.05031586138614 -2.50776255545555 -1.95241234923492
 1 -5.92708484688469 -2.38320924552455 -2.96572003580358
 1  5.39683760506051 -0.86388686858686  0.02008523222322
 1  5.76310775207521  0.06305930983098 -1.29922440494049
 1  4.17130704220422  0.79184567666767 -3.96725495499550
 1  3.30500625222522  2.20651172987299 -3.39485182058206
 1  2.64162995229523  1.05171966986699 -4.68956210821082
 1  1.08832274227423  2.65950744724472 -2.89873076507651
 1 -7.18607769386939 -3.43734591849185 -0.59170819201920
 1 -7.55777404230423 -3.74530586108611 -2.41065411891189
 1  3.78475220272027  3.49593895489549  3.81615486968697
 1 -0.17519139793979  4.68383966346635 -2.94810270567057
 1 -4.02181077067707  4.53813039483948 -0.84008516001600
 1 -4.18910766046605  3.80223501710171  0.85258607000700
 1 -3.30794911111111  5.23849414051405  0.32574834473447
 1  8.38498419191919 -2.24559771397140 -1.20738137313731
 1 -1.62059498409841  6.63925438253825 -3.23750860306031
 1 -2.91280363326333  6.19072044784479 -1.83315922342234

