%nproc=4
%Mem=4GB
# td=(NStates=1) B3LYP/SVP 

TD

0 1
 8 -5.63108933893389 -0.13676823722372 -3.25402519221922
 8  2.90737074257426  3.12499975467547  3.62926900530053
 8  3.26185453405341  0.87359275827583  3.20167205230523
 8  1.51324896439644 -7.08913518361836  1.51434994129413
 8  0.98781366936694 -7.11581800540054 -0.77738572147215
 8  1.96100314841484  4.07129025182518  0.16947645504550
 7 -2.38289790089009 -0.98616704690469  0.57677469406941
 7 -4.56241112251225  0.36354402090209 -1.35557391219122
 7  1.83742413401340 -0.71328290129013 -0.39357783538354
 7  2.71851739363936  1.90843658915892 -0.44150089678968
 6 -4.83951034223422  1.08444994199420 -0.07247144734473
 6 -4.38209560236024  0.40258042334233  1.27059441714171
 6 -2.93204830043004  0.06001625832583  1.37453946694669
 6 -1.89698879557956  0.70737569476948  2.06989015861586
 6 -0.63660027032703  0.06886145064506  1.75220589818982
 6 -0.95620980878088 -0.90449350825083  0.84442626202620
 6 -6.36455881198120  1.24843263256326 -0.11699691509151
 6  0.67620622722272  0.33098377487749  2.40379940004000
 6 -6.79351986648665  0.74587383578358 -1.30494622332233
 6 -0.15663191929193 -1.89909864676468  0.09572165366537
 6  1.08700559675968 -1.86028557515752 -0.33449503170317
 6 -5.55089568986899  0.17649586428643 -2.09412672417242
 6  1.86190027522752 -2.93537407580758 -1.01585859515952
 6 -2.24171987288729  1.86933269016902  3.02012640284028
 6 -7.08164565776578  1.95097322652265  0.93977796369637
 6  3.08949528322832 -2.39262921412141 -1.39712095719572
 6  1.08655468276828  1.76926541994199  2.71728536443644
 6  3.03346142144214 -0.96505513111311 -1.06136012421242
 6  1.35357912811281 -4.33633959835984 -1.01879359625963
 6 -8.08802470847085  0.72446408400840 -1.90911929972997
 6  1.67570513611361 -5.02644357895790  0.41416741224122
 6  4.18618422742274 -2.86036450525053 -2.22528175947595
 6  3.92845371597160  0.07732713621362 -1.48743342574257
 6  2.53542416361636  1.76864445264526  3.18128402830283
 6  3.80388476627663  1.44102951445145 -1.05955252255226
 6 -9.27200218361836  0.80283244354435 -1.42869768506851
 6  1.34054911961196 -6.51836848704871  0.30268892789279
 6  4.71966080068007  2.55364211911191 -1.48784586768677
 6  4.20885015341534  3.72133265696570 -1.00458175247525
 6  2.83128469926993  3.24773262436244 -0.30155891859186
 6  5.92250585588559  2.40858569916992 -2.30819277437744
 6  4.56053167296730  5.12310718651865 -1.14723673707371
 6  6.81577163476348  3.34096978177818 -2.54540901780178
 1 -4.52855734183418  2.14047512761276 -0.10626758645865
 1 -4.93121777867787 -0.79201067716772  1.36629137333733
 1 -4.72555939583958  1.16144014371437  2.16253316301630
 1 -2.81544058395840 -1.39453684918492 -0.30402732453245
 1 -3.61654265156516  0.48505042214221 -1.78122567346735
 1  0.70927536223622 -0.13817350535054  3.48083763186319
 1  1.41846585598560 -0.20709537693769  1.90858599139914
 1 -0.77879654055406 -2.77493495849585 -0.37778277597760
 1 -3.47282742804280  1.71671293539354  3.24085407510751
 1 -1.73013422852285  1.78509787368737  3.76442483038304
 1 -2.06279266036604  2.94174799459946  2.51163858565857
 1 -6.38613206410641  2.65412421592159  1.41550378337834
 1 -7.41138090509051  1.32445225442544  1.74273128382838
 1 -8.12989892709271  2.52406848994899  0.63325180538054
 1  1.21639434783478  2.31809384598460  1.73957202450245
 1  0.35260837333733  2.43416023802380  3.49518534273427
 1  1.39566389278928  0.18539918491849 -0.00701606690669
 1  1.88736652885289 -5.07703153355336 -1.57648225792579
 1  0.04009580708071 -4.48062791029103 -1.15883436683668
 1 -7.96561762356236  0.55392562316232 -2.84592053025303
 1  1.00007219611961 -4.53649482918292  1.35268284488449
 1  2.69768603870387 -4.66614381888189  0.72096991189119
 1  4.21795685798580 -3.96623407560756 -2.34802826392639
 1  5.25889698809881 -2.47832668286829 -1.82780639823982
 1  4.23880531363136 -2.37026925952595 -3.30332940654065
 1  4.89970959045905 -0.06168826332633 -1.96295247094709
 1 -9.33646724722472  1.17503495899590 -0.28923161296130
 1 -10.21150928452845  0.68696011171117 -1.99165526552655
 1  3.75006969346935  3.03079646334634  4.11405617131713
 1  5.94996846504650  1.28875102430243 -2.58628744374437
 1  5.62046274607461  5.32077484168417 -0.53877249714972
 1  4.72033405590559  5.38544531023102 -2.24169671457146
 1  3.59875754535454  5.64566417281728 -0.80421216281628
 1  1.14578188628863 -8.00386154325433  1.46728278317832
 1  7.72291473587359  2.98658419831983 -3.05486275957596
 1  6.72228411591159  4.47602311451145 -2.00161251375138

