%nproc=4
%Mem=4GB
# td=(NStates=1) B3LYP/SVP 

TD

0 1
 8 -5.35571180118012 -0.01651621202120 -3.31501129082908
 8  3.08836884238424  2.83754100880088  3.25569164756476
 8  3.37364571317132  0.55133053205321  3.00534241934193
 8  1.71970961046105 -7.28891516161616  1.40027853415342
 8  0.61833672167217 -6.81891831543154 -0.50938892179218
 8  1.68006505460546  4.07796091889189 -0.06892738533853
 7 -2.33237284838484 -1.04951338153815  0.60106712331233
 7 -4.25668054945495  0.54725239173917 -1.22206056085609
 7  1.81594198579858 -0.63473504650465 -0.38911738933893
 7  2.53176871877188  1.98901464696470 -0.63897064376438
 6 -4.75045143634363  1.24490598759876 -0.04897909810981
 6 -4.38258565136514  0.28974914021402  1.26925428312831
 6 -2.96020111571157 -0.10250999429943  1.41836384938494
 6 -1.98105720242024  0.50651560876088  2.29422259185919
 6 -0.75954256455646 -0.08317375287529  1.94943562116212
 6 -0.97746193399340 -1.02743580248025  0.91169298869887
 6 -6.20881323742374  1.38165595489549 -0.12229744514451
 6  0.59701830843084  0.08019869636964  2.50016903700370
 6 -6.59686020052005  0.91411065946595 -1.38221395009501
 6 -0.21179743584358 -1.94973371027103  0.22785486698670
 6  1.05506240244024 -1.82778232483248 -0.26823840604060
 6 -5.41856245654565  0.43394160886089 -2.17621493299330
 6  1.88560264546455 -2.88670920932093 -0.79422643194319
 6 -2.15517121802180  1.65141089798980  3.20446483668367
 6 -7.11267876107611  1.94441257045705  0.83024701060106
 6  3.05815214891489 -2.35242519371937 -1.31792303740374
 6  1.26873290059006  1.44914340774077  2.52691632753275
 6  3.02787086238624 -0.85217384298430 -1.01298528672867
 6  1.56741051125112 -4.37525348974897 -0.85556727362736
 6 -7.91860776677668  0.83896553415342 -2.01101948974897
 6  1.64729229482948 -5.03146408100810  0.55445144064406
 6  4.29540514951495 -2.90832930173017 -1.95651488278828
 6  3.85177604820482  0.17602700620062 -1.45787046944694
 6  2.69898051925193  1.57407499569957  2.94176007590759
 6  3.70124450225022  1.52171758325833 -1.14954152145215
 6 -9.23962894629463  0.86546870717072 -1.49853466876688
 6  1.31167623232323 -6.44446109630963  0.45702436143614
 6  4.59467830243024  2.69798655355536 -1.45847293039304
 6  3.80375964436444  3.84302482618262 -1.08840013431343
 6  2.56303787458746  3.45546339743974 -0.62162092479248
 6  5.88335194049405  2.52405724632463 -2.18701065616562
 6  4.17723334313431  5.32507738353835 -1.19862187558756
 6  6.83380343794379  3.41387707250725 -2.43067754465447
 1 -4.33390787688769  2.30196127622762  0.42478551885189
 1 -5.15113977087709 -0.62214369046905  1.04727947214721
 1 -4.86558339823982  0.76461046074607  2.00727763746375
 1 -2.91989102900290 -1.49620701620162 -0.24502142394239
 1 -3.24083508080808  0.56360827792779 -1.41750930183018
 1  0.62478691339134 -0.13314300230023  3.60804035213521
 1  1.42112612201220 -0.68391305870587  2.23534866766677
 1 -0.80700936183618 -2.87992545754575 -0.13537853555356
 1 -3.15930607590759  1.72831409550955  3.62929291899190
 1 -1.46207742284228  1.63854321822182  4.15520390829083
 1 -1.97164354545455  2.63011683148315  2.89050647244724
 1 -6.25240869176918  2.37307611111111  1.59853208620862
 1 -8.02236200320032  1.26972678187819  1.46102311301130
 1 -7.59476541374137  3.01952803590359  0.49813829402940
 1  1.19971267966797  1.98233026962696  1.52435050235024
 1  0.46190930343034  2.01871869386939  3.26510233443344
 1  1.48659298569857  0.31758240324032 -0.42386775207521
 1  2.35877366956696 -4.87599142954295 -1.58022263196320
 1  0.61352314981498 -4.44179402690269 -1.45378386178618
 1 -7.76620768256826  0.40103033363336 -3.01855779397940
 1  0.62125431433143 -4.46698787848785  1.15996357295730
 1  2.71748801890189 -4.89132633713371  0.93286110101010
 1  4.31279634193419 -4.08973642584258 -2.08810227132713
 1  5.22195329372937 -2.59563841404140 -1.42467608520852
 1  4.30965239833983 -2.40144237683768 -2.95857493109311
 1  4.80095971547155 -0.35466756125613 -1.82674885058506
 1 -9.39732333283328  1.40431788728873 -0.48480116991699
 1 -10.03691182478248  0.74972638833883 -2.24051015101510
 1  3.92341702820282  2.89127251095110  3.43719848554856
 1  5.90597406560656  1.35046719591959 -2.47825664066407
 1  5.03117381718172  5.65919868406841 -0.86344496439644
 1  4.29067108960896  5.70516728242824 -2.17782032693269
 1  3.47060473007301  5.81119072547255 -0.59460120172017
 1  1.25741304940494 -8.01547270437044  1.22388844374437
 1  7.71600404480448  2.94182972287229 -2.81294856815682
 1  6.82314420192019  4.45203071527153 -1.87798015051505

