%nproc=4
%Mem=3GB
# td=(NStates=1) B3LYP/SVP 

TD

0 1
 8 -3.27042395259526 -1.29609466496650 -2.88830948524852
 8  2.85804625942594  3.22875453395340  3.24440871177118
 8  3.34014832303230  1.62386951525153  4.66088053165317
 8  7.73180178307831 -1.64350046424642 -0.98898966076608
 8  6.60293444984498 -3.05800659555956 -2.24705115321532
 8 -2.52597350385038  1.63731922102210  1.45334539503950
 7 -0.20589633583358 -2.60784709900990  0.97929277007701
 7 -2.63460549854985 -1.04483961896190 -0.63597574217422
 7  1.09587113651365  0.00211112081208 -0.79504444164416
 7 -0.93305245074507  1.42203761166117 -0.19115001290129
 6 -3.34532968266827 -1.33148071047105  0.60930790469047
 6 -2.57296592269227 -2.46231037723772  1.46991229802980
 6 -1.16354199589959 -2.12972078607861  1.72330031863186
 6 -0.66871667396740 -1.33884507620762  2.76296431693169
 6  0.78001911451145 -1.06275127612761  2.42122331693169
 6  1.02140482668267 -1.87428386308631  1.25672047604760
 6 -4.68986393299330 -1.83062871157116  0.31469835713571
 6  1.79980457185719 -0.28687901750175  3.24866702120212
 6 -4.75066142754275 -2.03183189158916 -1.05047538803880
 6  2.13335129152915 -1.94261245344534  0.31190346904690
 6  2.04196021792179 -0.92543445564556 -0.68335223672367
 6 -3.49191386128613 -1.39137110241024 -1.68537582098210
 6  2.99409047224722 -0.71603235153515 -1.74947884678468
 6 -1.36018459065907 -0.61143500050005  3.87404291259126
 6 -5.70059528362836 -2.03422990329033  1.38492949854986
 6  2.60576023292329  0.49312668086809 -2.40363497349735
 6  1.81596102850285  1.22126781878188  2.78205484708471
 6  1.34839820632063  0.90099674827483 -1.80288639463946
 6  4.27558290739074 -1.61511094019402 -2.00569019911991
 6 -5.85720005610561 -2.37996008640864 -1.89341278947895
 6  5.45092064306431 -1.25124686988699 -1.28129154605461
 6  3.23965406080608  1.11358976157616 -3.59272578177818
 6  0.55571799589959  2.04738988588859 -2.03979572467247
 6  2.76865550585058  2.05329491499150  3.64952029722972
 6 -0.57206103770377  2.35751038323832 -1.17898318621862
 6 -6.78892281878188 -3.27753151725173 -1.56079463816382
 6  6.64433400300030 -2.12931118621862 -1.56301699169917
 6 -1.40207886268627  3.51950418361836 -1.15897397209721
 6 -2.29744383378338  3.40990146914691 -0.17823572977298
 6 -1.99827209960996  2.03443437693769  0.43477240924092
 6 -1.06674665306531  4.57819407960796 -2.21767353535354
 6 -3.42618325482548  4.25184566746675  0.27870210991099
 6 -1.94899879107911  5.62918833703370 -2.45818955175518
 1 -3.40454894809481 -0.51861735163516  1.34357856245625
 1 -2.54538616501650 -3.34832995799580  0.68396874597460
 1 -3.29747956775678 -2.82673611801180  2.35068445714571
 1 -0.36815212001200 -3.19968873397340  0.04011102110211
 1 -1.98496688638864 -0.22933923742374 -0.53708781118112
 1  1.73604156555656 -0.34202565636564  4.26579867896790
 1  2.71970930383038 -0.89166105740574  3.00228515791579
 1  2.89268808270827 -2.81218280118012  0.40517357055706
 1 -2.17323995329533 -1.32129140314031  4.18769583138314
 1 -0.89675944394439 -0.43145734933493  4.84534089058906
 1 -1.76030534433443  0.39720216691669  3.37440620592059
 1 -5.62533332053205 -1.18293642484248  2.11672596559656
 1 -5.40304906560656 -2.96228033263326  1.62572541884188
 1 -6.68454583138314 -2.18252389578958  0.85641200290029
 1  2.09093523292329  1.51330127202720  1.77970558185819
 1  0.81123107460746  1.59640188448845  2.83859183288329
 1  0.31764002160216  0.22226659645965 -0.10416244854485
 1  4.63034875407541 -1.46284934393439 -3.08627422932293
 1  3.82541337113711 -2.57206898609861 -1.85874298229823
 1 -5.96913905230523 -1.81884280888089 -2.75164862866287
 1  5.18384630593059 -1.14366484638464 -0.21586836313631
 1  5.77567900920092 -0.26900389648965 -1.42100658315832
 1  4.30509042054205  0.67557404950495 -3.65338356785679
 1  3.29014476607661  2.19410048874887 -3.45793812921292
 1  2.64570035933593  0.68047254515452 -4.62833598559856
 1  0.76718062806281  2.93148464496450 -2.63854474647465
 1 -6.78867795389539 -3.85122730663066 -0.62633165436544
 1 -7.53839210411041 -3.55091642214221 -2.12373542704270
 1  3.45683941144114  3.73714307530753  3.93534678887889
 1 -0.23263714251425  4.39912119161916 -2.75350324572457
 1 -4.28546713631363  4.32132871467147 -0.42995414691469
 1 -3.68072682238224  3.88126291989199  1.37399821122112
 1 -2.99204752095210  5.16717700880088  0.37478324822482
 1  8.48761445494550 -2.06195935013501 -1.24052468746875
 1 -1.61878480308031  6.38558901600160 -3.24658951115112
 1 -2.89124147704770  5.63522489828983 -1.82539844734473

