%nproc=4
%Mem=4GB
# td=(NStates=1) B3LYP/SVP 

TD

0 1
 8 -5.30334656465647  0.45505094469447 -3.37311710141014
 8  3.08919892539254  2.95997325202520  3.09672575097510
 8  3.32469081768177  0.73745914491449  3.07497938303830
 8  1.90504814431443 -7.12315858595860  1.48728723502350
 8  0.86983187118712 -7.18932535613561 -0.53760174307431
 8  1.74389143724372  3.95654877767777  0.07226673407341
 7 -2.36718632973297 -0.86134456465647  0.56630364696470
 7 -4.37415229662966  0.67778544504450 -1.22593094789479
 7  1.82003239483948 -0.69205077807781 -0.39613809140914
 7  2.54459000090009  1.82630837633763 -0.45298204490449
 6 -4.86845323652365  1.19843134013401  0.04574037383738
 6 -4.37567496029603  0.29449961526153  1.25452280998100
 6 -2.96090118571857  0.08798905560556  1.38113012601260
 6 -1.94839393609361  0.57504246144614  2.23993716331633
 6 -0.72431904220422  0.07599216371637  1.87118779637964
 6 -1.01744593239324 -0.93347640654065  0.81863368276828
 6 -6.31963431953195  1.19242703200320 -0.07091230663066
 6  0.56749535613561  0.18075875237524  2.69605862596260
 6 -6.63412392689269  0.88305755415542 -1.29062479117912
 6 -0.19003525962596 -1.98190692759276  0.22476455795580
 6  1.06954385058506 -1.79976952355236 -0.36727831003100
 6 -5.43561416171617  0.51551976667667 -2.17963527502750
 6  1.90195428062806 -2.89209974837484 -0.89825683498350
 6 -2.10534623552355  1.78399415631563  3.21967635783578
 6 -7.20457795099510  1.72490061926193  0.95874986088609
 6  3.10532686638664 -2.41331128232823 -1.28399964506451
 6  1.08092411971197  1.66565505890589  2.48990262616262
 6  2.95381345664566 -0.92241086668667 -1.03864785298530
 6  1.44539831003100 -4.28114407880788 -0.88154987188719
 6 -7.92700860686069  0.68985062266227 -2.02729111691169
 6  1.80834840044004 -5.11375230983098  0.35225122062206
 6  4.17355296429643 -3.07506597539754 -2.05577480878088
 6  3.93747461806181  0.09115851935194 -1.40511519391939
 6  2.55104572577258  1.68053564176418  2.87631353125313
 6  3.75927030483048  1.44264967646765 -1.02006857415742
 6 -9.25485046844685  0.88078023832383 -1.61000581588159
 6  1.41467653235324 -6.50631728192819  0.32863152215221
 6  4.53374220882088  2.58196495139514 -1.49536661976198
 6  3.90295956435644  3.70574109780978 -1.09881117541754
 6  2.61850342114211  3.24668251935194 -0.43922268496850
 6  5.84906851215121  2.43687852845285 -2.03041499659966
 6  4.24303992379238  5.16533140894089 -1.03087510091009
 6  6.69448950655065  3.36267195199520 -2.63528800570057
 1 -4.53990847694769  2.21129220932093  0.36284932523252
 1 -4.89783444034403 -0.66136761286129  1.04839958415842
 1 -4.72095893579358  0.83512751245124  2.25420232993299
 1 -2.86056509640964 -1.47177457295730 -0.06015293709371
 1 -3.41590258755876  0.98944086118612 -1.55175272617262
 1  0.33147758245825  0.03640395239524  3.71085063316332
 1  1.45809981938194 -0.51768643604360  2.52354748754875
 1 -0.74094275517552 -3.01075854085409  0.09363436573657
 1 -3.24974511981198  1.93760502460246  3.31653164286429
 1 -1.21759297439744  1.88214757865787  4.01057944584459
 1 -1.86523290439044  2.72848666846685  2.69418684048405
 1 -6.78689214011401  2.40679948344834  1.73854608760876
 1 -7.85912567956796  0.89373918311831  1.58064507520752
 1 -8.10106604380438  2.09261534463446  0.48312679287929
 1  1.02957566596660  1.90087212381238  1.31239930723072
 1  0.49601271377138  2.25392221422142  3.07097292149215
 1  1.65217954435443  0.28332897789779 -0.16314167946795
 1  1.82033982618262 -4.87637146754675 -1.81289589928993
 1  0.22276407390739 -4.34175402290229 -0.90217870127013
 1 -7.69267032883288  0.52143237383738 -3.16369230743074
 1  1.11015320422042 -4.68781996169617  0.96948452505251
 1  2.84997126722672 -4.90068727322732  0.50001781668167
 1  3.84502956525653 -4.04181163336334 -2.02947640874087
 1  5.00328142654265 -3.25947479767977 -1.19734335193519
 1  4.47312874597460 -2.50392262486249 -2.83323239683968
 1  4.75333495299530 -0.42780487498750 -1.91459763546355
 1 -9.53613721422142  1.11250870637064 -0.53650634043404
 1 -9.96912504610461  0.99376079177918 -2.42983908390839
 1  4.15593027952795  2.84247763146315  3.18658342404240
 1  6.35443891209121  1.40692284148415 -2.24053286828683
 1  5.28480918071807  5.35914867906791 -0.68686730663066
 1  4.26243826632663  5.68977574327433 -2.15874841974197
 1  3.64476214581458  5.77054666106611 -0.47448919051905
 1  1.85415272337234 -8.12770392749275  1.53591964686469
 1  7.67804024842484  3.00758629852985 -3.01483875717572
 1  6.54049593709371  4.41982749494950 -2.64774712721272

