%nproc=4
%Mem=3GB
# td=(NStates=1) B3LYP/SVP 

TD

0 1
 8 -3.18253516371637 -1.38551360686069 -2.86540719501950
 8  2.96361681648165  3.20130178867887  3.24861913281328
 8  3.64720902910291  1.35746287458746  4.39809425302530
 8  7.75992459535954 -1.46495260946095 -0.86615737753775
 8  6.65687984438444 -3.28421921682168 -1.68329477757776
 8 -2.70931183768377  1.63903939303930  1.34969503000300
 7 -0.21172691889189 -2.39543585788579  0.95028986978698
 7 -2.80444248224822 -1.09013414841484 -0.54937708230823
 7  1.10077162656266  0.09204011371137 -0.86009094629463
 7 -1.01275042054205  1.48863427132713 -0.24045494339434
 6 -3.47621277097710 -1.28724628702870  0.66643361726173
 6 -2.64238286438644 -2.36028017421742  1.61067637443744
 6 -1.25263090479048 -2.07038485248525  1.85707369596960
 6 -0.54325412771277 -1.29009020072007  2.85041306180618
 6  0.86666777937794 -1.19549455045505  2.53146434103410
 6  0.91808449464946 -1.88021445614561  1.24054885888589
 6 -4.80079502610261 -1.91977762646265  0.26360324762476
 6  1.96057064846485 -0.40814114371437  3.27481963646365
 6 -4.79224558595860 -1.97236594499450 -1.13791413191319
 6  2.06114407080708 -1.84700289248925  0.25504778347835
 6  2.08404442634263 -0.78847075927593 -0.62855675717572
 6 -3.53912858275828 -1.46288825412541 -1.66997428082808
 6  3.02238330153015 -0.71233198149815 -1.84710860976098
 6 -1.22124069626963 -0.52202605960596  3.87694320262026
 6 -5.83540876497650 -2.25842232253225  1.18471947754775
 6  2.64412406930693  0.49079644784478 -2.54425903590359
 6  1.99282871527153  1.08146383838384  2.70406704830483
 6  1.37332069856986  0.93359000760076 -1.92964907090709
 6  4.25553090219022 -1.53036246534653 -2.02940257035704
 6 -5.87864220032003 -2.44626671707171 -1.93346679487949
 6  5.49240479147915 -0.98065981118112 -1.40610402730273
 6  3.17730782618262  1.14095249784978 -3.71449795899590
 6  0.58372079617962  2.11121626852685 -2.06053779887989
 6  2.95246388668867  1.86905649114911  3.53357870307031
 6 -0.54092792439244  2.35205983818382 -1.21197648554855
 6 -6.86984091059106 -3.34734849894990 -1.61848040674067
 6  6.58400797039704 -1.99752800790079 -1.38258894889489
 6 -1.42374102890289  3.46965919911991 -1.16392446714671
 6 -2.31975606500650  3.44029450845084 -0.19564747094709
 6 -2.07735000740074  2.09448038153815  0.39309824182418
 6 -1.15960593899390  4.49483574377438 -2.15348711671167
 6 -3.45503614011401  4.31275175807581  0.39145338503850
 6 -1.90936482768277  5.68121353955396 -2.29197293009301
 1 -3.53036152935294 -0.28875436533653  1.21185539013901
 1 -2.84039566596660 -3.30780590559056  1.20771112021202
 1 -3.19218903870387 -2.31166461086109  2.66889627832783
 1 -0.48321362616262 -2.71339010411041  0.06229323932393
 1 -1.90297868756876 -0.42682898639864 -0.59171327372737
 1  1.53621158255826 -0.26964841864186  4.30323242234223
 1  2.80422775567557 -1.09984187548755  3.05781071047105
 1  2.74455326922692 -2.57369895279528  0.27506055925593
 1 -2.13071570087009 -1.21277055105511  4.18725578737874
 1 -0.56011577957796 -0.67337154075408  4.95008136463646
 1 -1.42488180198020  0.50438288498850  3.53630239553955
 1 -5.81722250945094 -1.55966409760976  2.10013430643064
 1 -5.92930169086909 -3.27266137073707  1.63114596089609
 1 -7.00527790459046 -1.97084272767277  0.79499586128613
 1  2.27718385778578  1.11704164606461  1.73964157545755
 1  0.95619557105711  1.29008125242524  2.71606958065807
 1  0.54076233383338  0.51236560636064 -0.08643067536754
 1  4.32147786698670 -1.63379643864386 -3.16176177807781
 1  3.95300613041304 -2.54302608180818 -1.73436054405441
 1 -5.76495863426343 -2.03003392799280 -2.99228269206921
 1  5.39602752405241 -0.93357383728373 -0.28801557785779
 1  5.63687512881288  0.04376738063806 -1.85587006950695
 1  3.99962987448745  0.39161565366537 -4.19400763026303
 1  3.66545229682968  2.24581566026603 -3.70359269466947
 1  2.22983877317732  1.31697619551955 -4.26303945594559
 1  1.03184709470947  2.74554605110511 -2.69963085508551
 1 -7.08396748284829 -3.60895307920792 -0.54922394359436
 1 -7.63455172007201 -3.61464279477948 -2.28365141864186
 1  3.84903863136314  3.53042240324032  3.62391564576458
 1 -0.29634351315132  4.30723200270027 -2.90146804220422
 1 -4.15298388798880  4.39862644444444 -0.35724687618762
 1 -4.00243899359936  3.87196198979898  1.19718052945294
 1 -2.95294361056106  5.27182747384739  0.54934070397040
 1  8.44040973447345 -2.13409656385639 -1.06332696769677
 1 -1.86651957655766  6.23091354845485 -3.18902375457546
 1 -2.77710006290629  5.98388976477648 -1.75965187268727

