%nproc=4
%Mem=3GB
# td=(NStates=1) B3LYP/SVP 

TD

0 1
 8 -3.38091500170017 -1.39413446894689 -2.99010966526653
 8  3.01277173197320  3.11039269776978  3.32481675257526
 8  3.70090439863986  1.39638676697670  4.55036948054805
 8  7.75834443734373 -1.50572668686869 -0.78607936973697
 8  6.64962911931193 -3.06210700560056 -2.13829027712771
 8 -2.55883679017902  1.66035152425243  1.43366342684268
 7 -0.21244699089909 -2.38860517481748  0.95294013481348
 7 -2.70032207020702 -1.20648578357836 -0.67449959455946
 7  1.19665121452145  0.09063997369737 -0.67468240544054
 7 -0.96172531803180  1.40817622552255 -0.27047794569457
 6 -3.33233838353835 -1.22507006940694  0.49110608450845
 6 -2.59437806390639 -2.21397554375437  1.57618292509251
 6 -1.20155579727973 -1.96001381538154  1.85469345794579
 6 -0.57176697899790 -1.15028622032203  2.81722974347435
 6  0.77000811341134 -1.08181318231823  2.46633782838284
 6  0.95960864706471 -1.80310674537454  1.19229403340334
 6 -4.77010195679568 -1.86281192989299  0.19615650295030
 6  1.99412400380038 -0.35165549514952  3.14127628212821
 6 -4.81404776617662 -2.05210391879188 -1.08699904040404
 6  2.06469442584258 -1.83527171937194  0.27723000170017
 6  2.08827484938494 -0.92797470967097 -0.73473737523752
 6 -3.55429009890989 -1.59900186548655 -1.76982426582658
 6  2.97211827502750 -0.69161991029103 -1.78287218611861
 6 -1.36840541274127 -0.39355321232123  3.92625813411341
 6 -5.73878910301030 -2.06864334463446  1.28183918951895
 6  2.49465912281228  0.40337770597060 -2.44929953995400
 6  1.89225865826583  1.11558725072507  2.88453509510951
 6  1.36624999149915  0.95312196079608 -1.78808491449145
 6  4.18292364146415 -1.58318774787479 -2.03364299439944
 6 -5.90418475457546 -2.63356544694469 -1.98012146034603
 6  5.41492704370437 -1.13357510271027 -1.23079649654965
 6  3.25193528892889  1.01271967456746 -3.63893040224022
 6  0.53468589268927  1.96635178207821 -1.97889963506351
 6  2.92227086738674  1.78618820432043  3.69419476467647
 6 -0.51198503010301  2.33271790399040 -1.23371865976598
 6 -6.94150807730773 -3.31413517761776 -1.61363992269227
 6  6.64323389298930 -1.96225448054805 -1.47795848584859
 6 -1.43199185398540  3.50583281648165 -1.28017609230923
 6 -2.27586167556756  3.37251773077308 -0.17924583078308
 6 -2.03611588398840  2.08680961446145  0.47658659065907
 6 -1.31342132053205  4.55221148134813 -2.24931669966997
 6 -3.42572320882088  4.27769825272527  0.34577881758176
 6 -1.98439233043304  5.65211062926293 -2.32246597939794
 1 -3.46391488468847 -0.25881137103710  0.87071127572757
 1 -2.74453608000800 -3.43445857085709  1.29047939703970
 1 -3.29354917471747 -2.35850929532953  2.45338472717272
 1 -0.14540984578458 -3.04666343144314  0.12163917391739
 1 -1.67195558525853 -0.66737304080408 -0.70393449584959
 1  2.01569953135314 -0.48990044384438  4.22653475257526
 1  2.94572190509051 -0.74755664696470  2.52821775117512
 1  2.74140295419542 -2.60578216111611  0.44476752995300
 1 -2.19364199349935 -1.12143141714171  4.16605366716672
 1 -0.66100586858686 -0.19266346994699  4.74633098959896
 1 -1.97434674847485  0.49068151485149  3.56102486778678
 1 -5.55148593579358 -1.37963609480948  2.09728402140214
 1 -5.98609737043704 -3.19721382598260  1.53975682198220
 1 -6.77412478927893 -1.86909255265527  1.00729709140914
 1  2.04589072847285  1.23550349224922  1.74427203850385
 1  0.92252220372037  1.64230647494749  3.17429540324032
 1  0.42946120372037  0.31183555335534 -0.01541357365737
 1  4.60279599879988 -1.55019807880788 -3.00815641754175
 1  4.01722255205521 -2.79439121832183 -1.93903101110111
 1 -5.91350348874887 -2.07534845944594 -3.06898036183618
 1  5.21593951525152 -1.13404388428843 -0.11493827012701
 1  5.44045548684868  0.06516952085209 -1.56722120462046
 1  3.91191110261026  0.48711520362036 -4.02337056655666
 1  3.65156090769077  2.13422450115011 -3.37121945734574
 1  2.46684247354735  1.10304480238024 -4.53965711771177
 1  0.77913182318232  2.59227072357236 -2.76792768476848
 1 -6.94902398849885 -3.65209739363936 -0.70225924712471
 1 -7.60729899479948 -3.61286261676168 -2.37865091859186
 1  3.43207693519352  3.49590895189519  4.06953020722072
 1 -0.35971985078508  4.40786206570657 -2.86941483688369
 1 -4.11211980158016  4.39546612841284 -0.47794894639464
 1 -3.66280503020302  3.94043883748375  1.26605741714171
 1 -2.98595691189119  5.36284657575758  0.52611838173817
 1  8.55281097459746 -2.21056421062106 -1.13320395539554
 1 -1.54008693329333  6.47076753385339 -3.12009686188619
 1 -2.82401475437544  5.87929930573057 -1.63297920542054

