%nproc=4
%Mem=3GB
# td=(NStates=1) B3LYP/SVP 

TD

0 1
 8 -3.18578548874887 -1.35062011751175 -2.79502015631563
 8  2.95879633443344  3.17475913441344  3.00135440634063
 8  3.59019332753275  1.59848697699770  4.43920836443644
 8  7.59774837773777 -1.57833394759476 -0.75547630943094
 8  6.71337549394939 -2.99387018191819 -2.19998644674467
 8 -2.52467337383738  1.65667115621562  1.53047310781078
 7 -0.22540828702870 -2.46815312961296  0.97656249704970
 7 -2.61485352335234 -1.28002313731373 -0.60662280688069
 7  1.08192974237424  0.02305321502150 -0.77660259745975
 7 -0.90514966046605  1.56444185208521 -0.17872877077708
 6 -3.35071022072207 -1.40303786618662  0.68534550845084
 6 -2.65291391749175 -2.40506465266527  1.60378568536854
 6 -1.22284792649265 -2.12595040904090  1.83201118971897
 6 -0.61749155145515 -1.27217840954095  2.84941296179618
 6  0.67015812841284 -1.16749175017502  2.50686188078808
 6  0.94076676287629 -1.84557099179918  1.33577838183818
 6 -4.74103905050505 -1.88882453115312  0.15190207750775
 6  1.71628622002200 -0.25931626122612  3.20011216571657
 6 -4.78837519891989 -2.05048375677568 -1.14809515001500
 6  2.19886784318432 -1.78055624782478  0.45511779047905
 6  2.10099612151215 -0.93212512471247 -0.63620752225223
 6 -3.46668133803380 -1.52932489778978 -1.69854713811381
 6  2.97254831803180 -0.72842359065907 -1.79978387728773
 6 -1.31690026222622 -0.55821967896790  4.01152666096610
 6 -5.82950817491749 -2.09577605790579  1.15743674927493
 6  2.46164582148215  0.33971133933393 -2.47151176117612
 6  1.79247868026803  1.10430612261226  2.63943058465847
 6  1.27295066156616  0.81821847044704 -1.78507461346135
 6  4.21778712781278 -1.54134356345635 -2.09801943204320
 6 -5.87667200330033 -2.54734682508251 -2.11213466166617
 6  5.41596714771477 -1.12025377057706 -1.29238265516552
 6  3.16536663206321  1.06685508810881 -3.68039454865487
 6  0.56437886198620  1.93275842274227 -1.95913765886589
 6  2.81665030533053  1.92908249374937  3.42501784698470
 6 -0.47284111571157  2.38963359555956 -1.16775206310631
 6 -6.85407933443344 -3.32054581868187 -1.68610716941694
 6  6.65234480408041 -2.00122837793779 -1.51879256925693
 6 -1.36904555935594  3.60511274447445 -1.13003107780778
 6 -2.24085817521752  3.38633911291129 -0.08959686588659
 6 -1.91919419181918  2.20237117061706  0.51683061506151
 6 -1.15422540094009  4.58341460166017 -2.05845761376138
 6 -3.33438407490749  4.37772825572557  0.26916115581558
 6 -1.92478636983698  5.77545296349635 -2.29936366916692
 1 -3.39562805600560 -0.36779226912691  1.27738194279428
 1 -2.65517714411441 -3.45496062106211  1.09017936703670
 1 -3.21316113591359 -2.42458590299030  2.48617800650065
 1 -0.21857716251625 -2.85431419651965  0.21159816981698
 1 -1.86484487418742 -0.61543784728473 -0.70119422182218
 1  1.59546750815082 -0.13516497029703  4.30475257435744
 1  2.65788312121212 -0.73422531383138  3.03554848424842
 1  2.91957077097710 -2.70886246914691  0.55373842704270
 1 -2.17254988428843 -1.18647792179218  4.39260632243224
 1 -0.45951571957196 -0.24303850745075  4.71502785928593
 1 -1.90589990379038  0.27318976567657  3.48531729702970
 1 -5.87850863806381 -1.63985211641164  2.04241853485349
 1 -5.86802556325633 -3.22320642524252  1.65882872917292
 1 -6.91886926372637 -1.97487313071307  0.81249761146115
 1  2.06320245964597  0.92720266216622  1.55434304560456
 1  0.90004995649565  1.53054529882988  2.79184715841584
 1  0.32804106170617  0.27335170497050 -0.01574360666067
 1  4.57836355555556 -1.71938499749975 -3.14622022392239
 1  3.87480831063106 -2.57019879907991 -1.75049215721572
 1 -5.83258539693969 -2.12368329292929 -3.11373483728373
 1  4.91248917021702 -1.21505198509851 -0.21185796209621
 1  5.73419486078608 -0.04733172927293 -1.57176165866587
 1  3.85078498999900  0.39584607670767 -4.17415564506451
 1  3.79667541914191  1.91613269196920 -3.26695903130313
 1  2.39004479377938  1.31914641254125 -4.45386853885389
 1  0.93040695069507  2.71901339783978 -2.84438533053305
 1 -7.09795888198820 -3.90886307020702 -0.71268028922892
 1 -7.74387265216522 -3.59610094059406 -2.35928898239824
 1  3.70168389588959  3.60517987898790  3.60283353755375
 1 -0.15909978877888  4.71627290679068 -2.63373126852685
 1 -4.16675526512651  4.36193277507751 -0.56717786928693
 1 -3.59289803950395  3.87792258585859  1.18472928432843
 1 -3.01918023422342  5.37416770787079  0.68412418231823
 1  8.15491118461846 -2.35906906110611 -0.87291792679268
 1 -1.35968889348935  6.64833529062906 -3.01197604980498
 1 -2.63506585948595  6.21060243604360 -1.64167007450745

