%nproc=4
%Mem=3GB
# td=(NStates=1) B3LYP/SVP 

TD

0 1
 8 -3.20604751495150 -1.44719977547755 -2.81370202450245
 8  2.85837629242924  3.10632229072907  3.13868813971397
 8  3.56872118031803  1.45919304760476  4.42434687828783
 8  7.78545714861486 -1.45575168936894 -0.79264002580258
 8  6.78711286768677 -2.77599839473947 -2.23285973407341
 8 -2.59715062156216  1.71947743684368  1.47399746024602
 7 -0.21549729592959 -2.46593290759076  0.95603044384438
 7 -2.67797983598360 -1.22077721272127 -0.63291543614361
 7  1.16478802820282  0.02283319301930 -0.70230516771677
 7 -0.95960510601060  1.48351375927593 -0.16434733263326
 6 -3.34678982868287 -1.33078064046405  0.64978195209521
 6 -2.63612223832383 -2.30027417361736  1.56463176997700
 6 -1.15235087678768 -2.08467628162816  1.79531752035204
 6 -0.62987278957896 -1.19885107680768  2.81947996849685
 6  0.69575068766877 -1.15051005200520  2.52136333093309
 6  0.93118580478048 -1.97454388908891  1.27735253925393
 6 -4.79121406800680 -1.85754140284028  0.30698758605861
 6  1.80472506390639 -0.35413574317432  3.18624077857786
 6 -4.80583694509451 -1.96231493989399 -1.03200354085409
 6  2.05471342774277 -1.97139533173317  0.32791507020702
 6  2.11626764866487 -1.00170208240824 -0.65820972247225
 6 -3.52277694759476 -1.63881584688469 -1.66921420482048
 6  3.00978204140414 -0.77790853915392 -1.77103100200020
 6 -1.38778735093509 -0.56639049604960  3.93803931223122
 6 -5.84004922902290 -2.08691517181718  1.30652165776578
 6  2.61264092099210  0.39008637683768 -2.49320393039304
 6  1.88016744914491  1.08916460846085  2.76959360096010
 6  1.42793616011601  0.89763641224122 -1.77510361636164
 6  4.20781613071307 -1.65085451455146 -2.12576220632063
 6 -5.90928526462646 -2.42199428982898 -1.96597004520452
 6  5.48034358535854 -1.13812555775578 -1.27862127902790
 6  3.17975807120712  1.03331173377338 -3.71994850405041
 6  0.60092251635164  1.97741288818882 -1.91795354045405
 6  2.80422906320632  1.90250983648365  3.62103744894489
 6 -0.49295312691269  2.28144277647765 -1.16144143204320
 6 -7.02510643714371 -3.03491725582558 -1.56396495519552
 6  6.78001757135714 -1.87520577567757 -1.47326801680168
 6 -1.33262191699170  3.49169140234023 -1.18242631733173
 6 -2.28301239063906  3.32261274027403 -0.23433133933393
 6 -1.98291056345635  2.08102903640364  0.43621255325533
 6 -1.23907388578858  4.60612687288729 -2.28364013201320
 6 -3.39052968946895  4.26046652955295  0.08787302700270
 6 -1.86772066326633  5.74990040824082 -2.24933866666667
 1 -3.19136762996300 -0.41715720562056  1.15357956255626
 1 -3.01316294269427 -3.30505563056306  1.35907625672567
 1 -3.07715753555355 -2.32522596699670  2.62175156385639
 1 -0.51470677547755 -2.77920668576858  0.02690970097010
 1 -1.90860925062506 -0.33197950145014 -0.62623672607261
 1  1.61911987338734 -0.37040849464947  4.26579867896790
 1  2.82204953785379 -0.83939583088309  2.82790772017202
 1  2.67910672457246 -2.83974555745575  0.37075012821282
 1 -2.26861949124912 -1.28450772477248  3.94730179197920
 1 -0.70875064306431 -0.50981518511851  4.83060941744174
 1 -1.76389570337034  0.36864931163116  3.51841060636064
 1 -5.80770155735573 -1.64607273847385  2.11406569956996
 1 -5.65706446714672 -3.21227533213321  1.53864671097110
 1 -6.87660503730373 -1.76949259265927  0.71186754845485
 1  2.05036117551755  1.16133607550755  1.69526713801380
 1  0.83412336383638  1.39498174247425  2.91646962066207
 1  0.40473873147315  0.27457182698270 -0.13036506880688
 1  4.51615733493349 -1.37146020502050 -3.23730933283328
 1  3.97087791759176 -2.64669644884488 -1.82394950295030
 1 -5.75382752115211 -2.17205813041304 -3.01112457625763
 1  5.25887380868087 -1.12847332723272 -0.12896967326733
 1  5.50054149544954  0.02319532343234 -1.61836631913191
 1  3.85696560806081  0.40260675277528 -4.45791402090209
 1  3.63356910851085  1.86999807850785 -3.26540887628763
 1  2.43770956025603  1.23981847974798 -4.28452160416042
 1  0.82054596459646  2.73936543304330 -2.73429432143214
 1 -7.23780286638664 -3.50528271217122 -0.57267628882888
 1 -7.70606887178718 -3.19352068256826 -2.19437249074907
 1  3.41944567206721  3.64342370337034  3.81560481468147
 1 -0.44470834963496  4.49302058155816 -3.11514941034103
 1 -4.03919250885088  4.48078466026603 -0.83470462196220
 1 -4.02390113981398  4.03593838743874  1.01449226062606
 1 -3.04026234243424  5.07277756885689  0.71829759965997
 1  8.63570926442644 -1.91653480768077 -0.77477811281128
 1 -1.50596352095209  6.46931738883888 -2.89849470167017
 1 -2.68328068096810  5.98719009480948 -1.79119502700270

