%nproc=4
%Mem=3GB
# td=(NStates=1) B3LYP/SVP 

TD

0 1
 8 -3.16647355755576 -1.46327138263826 -2.81544219851985
 8  3.30860131493149  3.22098375687569  3.09358362926293
 8  3.96904121232123  1.27074420272027  4.09180362396240
 8  7.77160576347635 -1.72340845504550 -0.53738450025003
 8  6.55934009040904 -3.18867966286629 -1.85659210731073
 8 -2.91194210071007  1.63093858295830  1.39832989348935
 7 -0.26749249544955 -2.45124143844384  0.95455029582958
 7 -2.78276031403140 -1.18151328632863 -0.60822296689669
 7  1.22372392179218  0.12482339203920 -0.69510444764476
 7 -1.08009715521552  1.39882529042904 -0.15063596149615
 6 -3.46545169486949 -1.35220278267827  0.70075704960496
 6 -2.63686231233123 -2.33655780198020  1.56749205600560
 6 -1.21374701640164 -2.00433824782478  1.78868685728573
 6 -0.55460526282628 -1.14431562326233  2.71901992249225
 6  0.84917603020302 -1.09666466746675  2.39157035163516
 6  0.92650533673367 -1.81530796549655  1.19793459745975
 6 -4.77747269386939 -1.84075972467247  0.27015390269027
 6  2.00631522292229 -0.22411274087409  3.03576573107311
 6 -4.80658702010201 -1.93445215361536 -1.07269761026103
 6  2.06733468986899 -1.85879407160716  0.30834311301130
 6  2.08666468836884 -0.91559347154715 -0.72444634613461
 6 -3.49424409430943 -1.52458442374237 -1.70135741914191
 6  3.07194825802580 -0.70152090039004 -1.70662456135614
 6 -1.33628220042004 -0.50355421242124  3.87131263956396
 6 -5.89155437953795 -2.27480396069607  1.17237824342434
 6  2.61679133603360  0.48986635483548 -2.41182579257926
 6  2.06317574997500  1.21268696069607  2.64479112071207
 6  1.37766113261326  0.95978262686269 -1.71062716871687
 6  4.30388573767377 -1.47283671277128 -2.02919254935494
 6 -5.85931026712671 -2.47763985438544 -2.02140558875888
 6  5.58927447844784 -1.05572731793179 -1.24432784968497
 6  3.18083817921792  1.23968237083708 -3.53951046024602
 6  0.53836626072607  2.00854600150015 -1.92177392249225
 6  3.21652029232923  1.94883446894689  3.32087743294329
 6 -0.63776760836084  2.32882751495150 -1.18038332623262
 6 -6.93188711521152 -3.17691145524552 -1.77329588828883
 6  6.59577914751475 -2.11315957105711 -1.25582627262726
 6 -1.49087774257426  3.41991422462246 -1.19536761146115
 6 -2.48719280868087  3.25515599459946 -0.25503340954095
 6 -2.23260553295330  2.08542947644764  0.41976090809081
 6 -1.38078805720572  4.63199946014601 -2.11709347734773
 6 -3.62221285778578  4.24388487138714  0.19790403010301
 6 -2.01209510071007  5.83404882308231 -2.02906663946395
 1 -3.44669316251625 -0.32477796769677  1.22337654225423
 1 -2.64023564996500 -3.45342046704670  0.95104545364536
 1 -3.15745556535654 -2.51224466886689  2.54100348904890
 1 -0.49728503330333 -2.81919068416842  0.04192120212021
 1 -2.06318470817082 -0.33879018251825 -0.56246034843484
 1  1.99808777017702 -0.26156761056106  4.08154025312531
 1  2.92514984788479 -0.79148103940394  2.70075500490049
 1  3.03510232413241 -2.36009759265927  0.42955600880088
 1 -2.08531116041604 -1.02367164116412  4.28939600140014
 1 -0.51958172617262 -0.45063926752675  4.72160851735174
 1 -2.04369368316832  0.42938538523852  3.67969673497350
 1 -5.91319210641064 -1.71588972017202  2.10135442844284
 1 -5.97124588528853 -3.32559666426643  1.26751959825983
 1 -6.94601197799780 -2.01722736613661  0.58690505220522
 1  2.32387852725273  1.49999994189419  1.58240585188519
 1  1.15513546504650  1.72687493179318  2.88119609330933
 1  0.25379363696370  0.08401277107711 -0.18235026732673
 1  4.39005472467247 -1.51745480448045 -3.17128273017302
 1  3.95536636643664 -2.51710348954895 -1.59761686968697
 1 -5.50358249664966 -2.33175410001000 -3.09904336813681
 1  5.33035095639564 -0.73539401930193 -0.12631940824082
 1  5.83957539883988  0.03678668256826 -1.53459794229423
 1  3.97858777027703  0.61833832593259 -3.91081931143114
 1  3.45342109370937  2.28906998569857 -3.28352068746875
 1  2.36615240454045  1.10650514841484 -4.11570472247225
 1  0.88598250825082  2.76918841534153 -2.62825371737174
 1 -7.19874896099610 -3.31951413531353 -0.69842886408641
 1 -7.65648391329133 -3.55927725822582 -2.40526357985799
 1  4.06069979747975  3.62990235123512  3.61345459965997
 1 -0.60300417921792  4.33211449094910 -2.76792468786879
 1 -4.20780937053705  4.34712129392939 -0.73756490799080
 1 -4.30311906160616  3.83870866446645  1.06749756115612
 1 -3.05119343554355  5.12966325742574  0.48212398229823
 1  8.45549124262426 -2.42333548774877 -0.60837147214722
 1 -1.75545847044704  6.53495395249525 -2.72951780398040
 1 -2.67691004390439  6.16144752055206 -1.24362026952695

