%nproc=4
%Mem=3GB
# td=(NStates=1) B3LYP/SVP 

TD

0 1
 8 -3.40985789598960 -1.30276533203320 -2.96580723502350
 8  3.16758721352135  2.99236089458946  3.26724099499950
 8  3.65310961916192  1.30447757605761  4.54668911251125
 8  7.73434203710371 -1.47057317151715 -0.63642440424042
 8  6.64463862026203 -2.97088788368837 -2.01985843394339
 8 -2.36640754725473  1.62966845594559  1.52312237273727
 7 -0.32513826002600 -2.40307662196220  0.86573141394139
 7 -2.65471750975097 -1.26875201020102 -0.66424856945695
 7  1.19050059945995  0.15408631833183 -0.71633657085709
 7 -0.85871501700170  1.42450785868587 -0.21823272117212
 6 -3.35998114781478 -1.30371793419342  0.56121309520952
 6 -2.65189381548155 -2.38511265746575  1.68202350915092
 6 -1.23414905660566 -2.06138395239524  1.82291027962796
 6 -0.67793759605961 -1.20385157685769  2.69186720722072
 6  0.72662377497750 -1.15019002000200  2.45894708930893
 6  0.91167385358536 -1.88973540824082  1.18785358935894
 6 -4.79919486608661 -1.83766941564156  0.23641052835284
 6  1.76601119251925 -0.40105043464346  3.28430058455846
 6 -4.85359172057206 -2.03601230963096 -1.11161150165017
 6  2.01026898329833 -1.91114930713071  0.32479475817582
 6  2.09096511841184 -0.92590450265026 -0.68977287878788
 6 -3.55841051095110 -1.51276324162416 -1.73072035543554
 6  2.98780984418442 -0.62681342964296 -1.79586348524852
 6 -1.35995456765677 -0.36717057405741  3.74979048734874
 6 -5.83441866596660 -2.05795227552755  1.25988699429943
 6  2.60057971487149  0.44784215241524 -2.49411402140214
 6  1.95787521992199  1.11723741574157  2.79827646924692
 6  1.41297466396640  0.98210485908591 -1.83075918191819
 6  4.29581493059306 -1.37743717281728 -2.08914854495450
 6 -5.86016035213521 -2.52293438383838 -1.91482493069307
 6  5.49428497949795 -1.01549329452945 -1.21950536743674
 6  3.18609870527053  1.10500890349035 -3.75997250645064
 6  0.51135355945595  2.07009215611561 -2.09450119521952
 6  3.07912655295530  1.72973255875588  3.59862520772077
 6 -0.61450528212821  2.29362399459946 -1.25818110601060
 6 -6.88960288678868 -3.35093885798580 -1.48557711641164
 6  6.60776034563456 -1.97538579367937 -1.34837552755276
 6 -1.49499815461546  3.39487172037204 -1.33473154785479
 6 -2.27541163056306  3.34984546354635 -0.20027793399340
 6 -1.88499077147715  2.12947388088809  0.53934286628663
 6 -1.40991096949695  4.46460272047205 -2.25790755875588
 6 -3.26916755325533  4.28702918581858  0.32390663036304
 6 -2.02320621182118  5.64040945914592 -2.44438817161716
 1 -3.45933442664266 -0.27608309820982  1.14240844544455
 1 -2.68413003940394 -3.35897102210221  1.36459680878088
 1 -3.13515333513351 -1.94804824922492  2.62633202190219
 1 -0.47797310211021 -2.56767553265326 -0.16330932093209
 1 -2.31292968266827 -0.29730603410341 -0.50816491889189
 1  1.43922188358836 -0.29233068686869  4.29928202730273
 1  2.74459179207921 -0.89848173947395  3.31475640504050
 1  2.62185099899990 -2.77432901580158  0.39587264046405
 1 -1.76584921422142 -1.11193046704670  4.61708877067707
 1 -0.51182095009501  0.53729952635264  4.23451980848085
 1 -2.27987730153015  0.19062150885089  3.22065083038304
 1 -5.66669745694569 -1.63120125132513  2.25287958095810
 1 -6.03804256495650 -3.05429953455346  1.58081092739274
 1 -6.80361773857386 -1.66444208760876  0.76583294499450
 1  2.40847698709871  1.23617355925593  1.63530114141414
 1  1.07418737023702  1.79910215451545  2.93960193389339
 1  0.35618387598760  0.28028239803980 -0.33169520182018
 1  4.69399511871187 -1.30733379237924 -3.07248285018502
 1  4.16993782358236 -2.47541932113211 -1.86280338833883
 1 -5.97048918731873 -2.46098702330233 -3.04631809560956
 1  5.20497841914191 -1.01883236313631 -0.10342711901190
 1  5.87295873717372 -0.00063705980598 -1.54475895839584
 1  3.95949586108611  0.64533102520252 -4.24672290179018
 1  3.48368412001200  2.14870594929493 -3.54929726512651
 1  2.39286507580758  1.26703120102010 -4.46665981798180
 1  0.90339424942494  2.68340983748375 -2.93589448144815
 1 -6.65220430653065 -3.80734291819182 -0.32591161236124
 1 -7.79434769966997 -3.75240657115712 -2.22690574407441
 1  3.67892161966197  3.31176053705371  4.04482773697370
 1 -0.93159703850385  4.09536081558156 -3.21952984838484
 1 -4.32501109070907  4.23437001880188 -0.30355150665066
 1 -3.48328707840784  4.13161795539554  1.48234904630463
 1 -3.00867918411841  5.48141843294329  0.23153892379238
 1  8.56568226172617 -2.03434658885889 -0.66048668366837
 1 -1.79760268486849  6.39506996409641 -3.40831568376838
 1 -2.83953630653065  6.07254863066307 -1.77233314081408

