%nproc=4
%Mem=4GB
# td=(NStates=1) B3LYP/SVP 

TD

0 1
 8 -5.38398462846285  0.06135157475748 -3.26794658435844
 8  3.08037804330433  2.97817507220722  3.18692477087709
 8  3.51985033363336  0.82475787478748  2.64806669176918
 8  1.44344198369837 -7.19121539163916  1.61850035633563
 8  0.62791767976798 -7.12174859845985 -0.46751473437344
 8  1.78408545664566  4.05720884368437  0.11193070047005
 7 -2.39620923202320 -1.07204563476348  0.56255327192719
 7 -4.45837071847185  0.55405307180718 -1.22620097489749
 7  1.80563095469547 -0.59022059505951 -0.50397887548755
 7  2.67136267816782  1.99041478697870 -0.46658340504050
 6 -4.80401679287929  1.10708220522052  0.06325212501250
 6 -4.45215260806081  0.17613777907791  1.17939529722972
 6 -2.92475757135714 -0.15497524082408  1.37303931693169
 6 -2.07500659735974  0.51737669486949  2.09009217881788
 6 -0.76751336163616  0.01358592309231  1.73160383798380
 6 -0.95887007480748 -1.05535859475948  0.75974779417942
 6 -6.27004936103610  1.34654244354435 -0.08778399379938
 6  0.64781338793879  0.18170884738474  2.47492651275128
 6 -6.66491700620062  0.86069531793179 -1.33679940864086
 6 -0.14765102120212 -1.96750548744874  0.16729881138114
 6  1.16561345754575 -1.78393794039404 -0.31405298749875
 6 -5.52868346864686  0.49596781148115 -2.12511982348235
 6  1.98436252145215 -2.91731226962696 -0.85935294459446
 6 -2.24306000690069  1.74812056895690  2.95055944614461
 6 -7.12833032623262  1.85683381258126  1.00430441634163
 6  3.15305163886389 -2.24674462566257 -1.37560880598060
 6  1.03458948624862  1.64848334173417  2.56162979887989
 6  3.05737381268127 -0.84761338693869 -1.09663365156516
 6  1.50997476767677 -4.37250321472147 -0.90804252115212
 6 -7.99423532953295  0.81072270987099 -2.00635902370237
 6  1.74105167076708 -5.12132306690669  0.36111210671067
 6  4.33034864386439 -2.88214668346835 -1.92727195849585
 6  3.97893876447645  0.15097450095009 -1.33541822422242
 6  2.67054767596760  1.67249483768377  2.85877177707771
 6  3.75518989678968  1.54331974347435 -1.04584115141514
 6 -9.20133511691169  0.77973013331333 -1.38913372867287
 6  1.21103616831683 -6.47294394459446  0.37097575657566
 6  4.60793962856286  2.66228298319832 -1.36465354845485
 6  4.02407167556756  3.82246276997700 -0.90075136943694
 6  2.74984655545555  3.35795364646465 -0.37095585828583
 6  5.83905751105111  2.42125696629663 -2.08482043714371
 6  4.36720234003400  5.29787466326633 -1.03434544794479
 6  6.73022307990799  3.32467815261526 -2.47689216611661
 1 -4.13623810991099  2.05439651975197  0.29010205050505
 1 -5.16746140304030 -0.74882635873587  1.00759550375038
 1 -4.71746858675868  0.58273227292729  2.19019592929293
 1 -2.74689372927293 -1.63318071357136 -0.28233515531553
 1 -3.49782077937794  0.41662357945795 -1.64843239413941
 1  0.54048848354835 -0.30013970197020  3.54751429952995
 1  1.42078608800880 -0.24375904330433  1.66215134793479
 1 -0.69836849774978 -2.83444090909091  0.06865186748675
 1 -3.30482062736274  1.61612287638764  3.21233122282228
 1 -1.69202041714171  1.45079444334433  3.89756814471447
 1 -1.95128150925092  2.74841866166617  2.70661808360836
 1 -6.48094154505451  2.55636443994399  1.78757099009901
 1 -7.68463823082308  0.93923373257326  1.47192420312031
 1 -7.94009994719472  2.60561664476448  0.61644012421242
 1  1.01449415781578  2.23018505510551  1.65892395969597
 1  0.68884199669967  2.29249607160716  3.39750557475748
 1  1.71506583298330  0.52555320032003 -0.17829319461946
 1  1.71724951715171 -4.97491132153215 -2.03594820452045
 1  0.63641543904390 -4.43673352085209 -0.99979846324632
 1 -8.01478254005401  0.39242947354735 -3.03800973917392
 1  1.14390657955796 -4.77007818751875  1.34468204480448
 1  2.78291456155616 -5.42578978347835  0.69140695559556
 1  4.12546760906091 -3.93099055125513 -1.87785124622462
 1  5.31818291669167 -2.85724457465747 -1.12157577517752
 1  4.72025345844584 -2.44976720932093 -2.73438251185119
 1  4.90964058355836 -0.22411450595060 -1.78054423012301
 1 -9.39330293079308  0.65685314081408 -0.40715340514051
 1 -10.16968510211021  0.72680409610961 -1.86623272327233
 1  3.94739942644264  3.09116249995000  3.18283304900490
 1  6.13983745194519  1.56599874907491 -2.43699251425143
 1  5.67934863466347  5.20875363956396 -1.00806942684268
 1  4.18798082058206  5.73902066776678 -2.06089863476348
 1  3.76292396199620  5.85436504290429 -0.20281202280228
 1  0.70260756885689 -7.92801395849585  1.60597665256526
 1  7.77863030743074  3.13482902280228 -2.95471274457446
 1  6.55627751525152  4.47643315551555 -2.37197955045505

