%nproc=4
%Mem=3GB
# td=(NStates=1) B3LYP/SVP 

TD

0 1
 8 -3.33095000520052 -1.39170422592259 -2.85362601690169
 8  3.00428088288829  3.28626028452845  2.98814308520852
 8  3.64979928812881  1.42866999529953  4.33320776437644
 8  7.81630023292329 -1.66882299649965 -0.61011177297730
 8  6.71091524792479 -3.11697249214921 -1.96935338343834
 8 -2.63377428392839  1.65829131823182  1.41442150265027
 7 -0.29839558575858 -2.37754406870687  0.91217605840584
 7 -2.72840487848785 -1.27079221422142 -0.61063320792079
 7  1.09463101250125  0.07967887758776 -0.77563250045005
 7 -0.98831797729773  1.39199460736074 -0.17815871377138
 6 -3.47217236693669 -1.38911647404740  0.64671164506451
 6 -2.60585921202120 -2.34129827602760  1.68548385518552
 6 -1.18792443414341 -1.98304611861186  1.65125311391139
 6 -0.60066986928693 -1.22810400210021  2.74351237173717
 6  0.78414952755276 -1.14236923792379  2.38722991759176
 6  0.93496618281828 -1.91839827452745  1.20237504150415
 6 -4.75019996659666 -1.91500714941494  0.29902678997900
 6  1.88155274667467 -0.28137846744674  3.02063421792179
 6 -4.84796115751575 -2.05115382378238 -1.14729507000700
 6  2.06490444684468 -1.90125831803180  0.28919119781978
 6  2.05698172007201 -0.98780069226923 -0.75571947344735
 6 -3.52901757165717 -1.57259922522252 -1.69998728212821
 6  3.04239530273027 -0.66768751705171 -1.67081097999800
 6 -1.26303487568757 -0.49073293029303  3.79655516381638
 6 -5.84851007510751 -2.19593607390739  1.28264927052705
 6  2.60807046394639  0.50778814701470 -2.37609221922192
 6  1.91633106550655  1.23681937393739  2.67970461206121
 6  1.34755812231223  0.91415806440644 -1.79995610161016
 6  4.21430677977798 -1.50852028112811 -1.99046867696770
 6 -5.82641697779778 -2.54894698509851 -1.96136958515852
 6  5.47649320032003 -1.06409815501550 -1.25219863676368
 6  3.31255135053505  1.17816621922192 -3.52806931613161
 6  0.45394781888189  1.98043319021902 -2.10726247134714
 6  2.96287492779278  1.95492507800780  3.43729907510751
 6 -0.64535836743674  2.22304693689369 -1.30514580248025
 6 -7.01442536903690 -3.19580334443444 -1.69735829452945
 6  6.67945751535153 -2.03672192729273 -1.32106279627963
 6 -1.39031768656866  3.60258249144914 -1.14645271997200
 6 -2.23526761616162  3.41489196819682 -0.12923082928293
 6 -1.97753002540254  2.13095402890289  0.45639457145715
 6 -1.31372135053505  4.62567882808281 -2.18774054205421
 6 -3.31355199169917  4.19471995489549  0.52381662136214
 6 -1.91265515671567  5.72395781398140 -2.08667240004000
 1 -3.42537103030303 -0.29371486138614  1.11157536213621
 1 -2.75215684208421 -3.42196732173217  1.25060540964096
 1 -3.17910773057306 -2.47369081348135  2.57427681638164
 1 -0.40791609640964 -2.79522828792879  0.04760177017702
 1 -1.82028041774177 -0.60117642114211 -0.74590869326933
 1  2.03870183158316 -0.44529598339834  4.22837493659366
 1  2.81334866776678 -0.76248814011401  2.63873880328033
 1  2.70565937983798 -2.71525310821082  0.22175522872287
 1 -1.99301193049305 -0.89610888488849  4.42871993379338
 1 -0.60783055105511  0.15468126452645  4.59775613211321
 1 -2.04957427122712  0.27218966566657  3.49705847114711
 1 -5.92274306150615 -1.43589172037204  1.90089438243824
 1 -5.79775853655365 -3.22513661826183  1.88047089338934
 1 -6.82900027682768 -2.09871551495150  0.83899026072607
 1  1.80591673107311  1.44804474637464  1.55549316061606
 1  1.09917986948695  1.71025326962696  3.17903587728773
 1  0.44296255385538  0.49942431223122 -0.31866389868987
 1  4.44809052825283 -1.39032209120912 -2.95785138703870
 1  3.95472630243024 -2.57567934713471 -1.82368947694769
 1 -5.48291042944294 -2.63502442704270 -3.11838530233023
 1  5.35222314361436 -1.10748122802280 -0.13126990329033
 1  5.83593503480348  0.05856886078608 -1.68551303380338
 1  4.27311722322232  0.74804129622962 -3.72603083258326
 1  3.35525127672767  2.41625270397040 -3.25282761816182
 1  2.87376316561656  0.99815431333133 -4.68655180718072
 1  0.64684859485949  2.75439693619362 -2.77026791879188
 1 -7.55957504360436 -3.24301648554856 -0.57768678987899
 1 -7.57151541644164 -3.80959228972897 -2.50933398689869
 1  3.65824955245525  3.69966932793279  3.45077833203320
 1 -0.42229610841084  4.41286256575658 -2.76912480788079
 1 -4.03775236483648  4.51985856765677 -0.13978513001300
 1 -3.72891164086409  3.81512630623062  1.37264807620762
 1 -2.81979029522952  5.19503979507951  0.74702047194719
 1  8.33500919441944 -2.66420957515752 -0.77982861786179
 1 -1.67480040464046  6.47950840794079 -2.77821267346735
 1 -2.56331868476848  6.04873624942494 -1.33819972747275

