%nproc=4
%Mem=3GB
# td=(NStates=1) B3LYP/SVP 

TD

0 1
 8 -3.31042795299530 -1.23166822232223 -2.84558521282128
 8  2.95619607440744  3.08106976547655  3.10747501840184
 8  3.61033534173417  1.35701282958296  4.52659710331033
 8  7.70641924482448 -1.52585870007001 -0.71763252505251
 8  6.87936209260926 -3.06499729462946 -2.13100954905491
 8 -2.73527443394339  1.65101059015902  1.40385044554455
 7 -0.23115886208621 -2.39385569986999  0.98495333613361
 7 -2.71998403640364 -1.07461259625963 -0.60303244784478
 7  1.23869541894189  0.11175208490849 -0.73609854705471
 7 -1.10804995049505  1.39417482538254 -0.23860475837584
 6 -3.38430358005801 -1.22149971237124  0.71995896979698
 6 -2.59984861096110 -2.34637878407841  1.53036834363436
 6 -1.21530717241724 -1.92910072407241  1.85695368396840
 6 -0.54588439073907 -1.19068025972597  2.84215223572357
 6  0.76942805540554 -1.14448944994499  2.50910210481048
 6  1.03739642584258 -1.87860429512951  1.24620942494249
 6 -4.68054300090009 -1.81013666236624  0.26831371867187
 6  1.92620721212121 -0.42862319191919  3.23386554105411
 6 -4.71684804620462 -1.96684539293929 -1.03313365386539
 6  2.12293024942494 -1.92171036323632  0.31077335603560
 6  2.11248727062706 -0.95692760496050 -0.66892079357936
 6 -3.48163283318332 -1.42995496079608 -1.67365464886489
 6  2.94113517671767 -0.73546429472947 -1.78204210311031
 6 -1.29877845004500 -0.37677153415342  3.86146165446545
 6 -5.76284150825083 -2.29940642094209  1.27186819241924
 6  2.56164582148215  0.46882425062506 -2.46686129612961
 6  1.92227165956596  1.01499719171917  2.86711335293529
 6  1.40140350685069  0.88936558515852 -1.84774088008801
 6  4.18050339943994 -1.57801723082308 -2.11292092219222
 6 -5.82151648774877 -2.43778586898690 -2.02714616281628
 6  5.40184573557356 -1.20342208740874 -1.32963638053805
 6  3.16801689708971  1.09908831143114 -3.67323383258326
 6  0.51148357245725  1.93081822872287 -1.95738748384839
 6  2.92595123542354  1.81663124862486  3.66155150035003
 6 -0.61675550715072  2.28173280548055 -1.18101338923892
 6 -6.83506743324332 -3.25184894899490 -1.67962652135214
 6  6.72536210581058 -2.08163641874187 -1.42592328232823
 6 -1.43329198399840  3.48519075227523 -1.25541361606161
 6 -2.37032112151215  3.41716219521952 -0.19762766896690
 6 -2.08721099349935  2.06545747924792  0.39283821582158
 6 -1.30236021442144  4.57573383358336 -2.25395716371637
 6 -3.43339397589759  4.32313279617962  0.27843208290829
 6 -2.08130202140214  5.67490290849085 -2.33611734453445
 1 -3.51073956715672 -0.32165765566557  1.31690589518952
 1 -2.53090471687169 -3.18177330233023  1.03171352045205
 1 -3.26855667546755 -2.26722016641664  2.63697308600860
 1 -0.40835614041404 -2.49815858095810 -0.15433842384238
 1 -1.97747613731373 -0.27667397089709 -0.88798290069007
 1  1.92483044444444 -0.55003645744574  4.33875597469747
 1  2.72979031193119 -1.11472336363636  3.03920885028503
 1  2.76353516741674 -2.77818940184018  0.22058511171117
 1 -1.70057268656866 -1.06012528652865  4.60960802260226
 1 -0.60328009600960  0.19687548394839  4.40868722522252
 1 -1.86641595539554  0.48988143484348  3.30164893019302
 1 -5.70703149034903 -1.48415654685469  2.18894318731873
 1 -5.63631239193919 -3.21247535213521  1.78244109040904
 1 -6.63184056085609 -1.92835847924792  0.86747310901090
 1  2.27391353075308  1.10793073497350  1.89571718301830
 1  0.88453840534053  1.46615886018602  2.91203917761776
 1  0.32960121772177  0.20487485728573 -0.05094712701270
 1  4.42772849204921 -1.34574763376338 -3.11580718261826
 1  3.84129495929593 -2.74395617481748 -2.02721982998300
 1 -5.50151228962896 -2.33211413601360 -3.05770923472347
 1  5.39529745104510 -1.25903638353835 -0.37193396969697
 1  5.68957039833983 -0.20130712681268 -1.53054753725373
 1  3.79442935443544  0.49238573067307 -4.12394062356236
 1  3.91096684828483  2.04947602630263 -3.30649298469847
 1  2.32368815811581  1.48483298119812 -4.57034018601860
 1  0.90386429642964  2.78793028952895 -2.66036692869287
 1 -7.18311739783978 -3.32911509540954 -0.65777479867987
 1 -7.68492675757576 -3.53743507400740 -2.36099915341534
 1  3.61951567906791  3.77693705470547  3.56206946114611
 1 -0.29187306610661  4.43973525302530 -2.98562645804580
 1 -4.04526311591159  4.46793337513751 -0.75587673917392
 1 -4.12481123082308  3.99459425302530  1.06494730613061
 1 -2.92174049024902  5.40524081518152  0.29641541144114
 1  8.58048374187419 -2.06225938013801 -0.81566220122012
 1 -1.97148007260726  6.27682813991399 -3.33922877507751
 1 -2.99303165606561  5.71398277407741 -1.69203511101110

