%nproc=4
%Mem=4GB
# td=(NStates=1) B3LYP/SVP 

TD

0 1
 8 -5.29550578057806  0.07894333393339 -3.17146693639364
 8  3.07679768526853  2.87061431613161  3.11351743014301
 8  3.30865921452145  0.69484488348835  2.84139602470247
 8  1.80742838233823 -7.37277354745475  1.43106161246125
 8  0.51578646664666 -6.97717414101410 -0.40480846374637
 8  1.62293934203420  3.95010813361336 -0.13381387398740
 7 -2.42661227232723 -0.97476590679068  0.57400441704170
 7 -4.41961684308431  0.64188185468547 -1.14448280308031
 7  1.80244063566357 -0.72756432943294 -0.41479995759576
 7  2.50310585248525  1.87672341784178 -0.64270101680168
 6 -4.80308669986999  1.19845134213421  0.10627642744274
 6 -4.46606399919992  0.28208837413741  1.23569092679268
 6 -2.95457055265527 -0.00264000730073  1.36291830483048
 6 -1.92709180588059  0.63376833403340  2.00690385998600
 6 -0.77818442874287 -0.05483091859186  1.79217989558956
 6 -1.10959514731473 -1.05273833273327  0.87131895129513
 6 -6.27403976007601  1.40589837913791 -0.07749296469647
 6  0.58655726232623  0.23675435193519  2.60677969806981
 6 -6.58838935343534  0.94605385378538 -1.30716644534453
 6 -0.24246050215022 -1.98671740864086  0.17467954945495
 6  1.05142203840384 -1.81657120372037 -0.37902948514851
 6 -5.44479507980798  0.58821703640364 -2.04157146864686
 6  1.98782286748675 -2.91837237563756 -0.93393040234023
 6 -2.12154785568557  1.67310306720672  3.13920831103110
 6 -7.13732122532253  1.94098222742274  1.04518850475047
 6  3.14103043674367 -2.34883483468347 -1.28969021412141
 6  1.16563259055906  1.61851034443444  2.58631226712671
 6  2.96149422472247 -0.81846047164716 -1.01335532373237
 6  1.61039480968097 -4.34625058945895 -0.93024474137414
 6 -7.88449435543554  0.83791542914291 -2.06134452225223
 6  1.90172773837384 -5.15809674427443  0.33483947944794
 6  4.44897050605061 -2.95896436523652 -1.81729096039604
 6  3.93831470207021  0.12654205770577 -1.29086376877688
 6  2.62105272647265  1.62601018921892  2.91657755765577
 6  3.68840321812181  1.53583899539954 -1.11038760606061
 6 -9.12839782318232  0.90912307260726 -1.59227404270427
 6  1.37632269696970 -6.51521817201720  0.41612027102710
 6  4.57376621122112  2.68695545044504 -1.41170825392539
 6  3.86469573797380  3.82962348604861 -1.05389668396840
 6  2.57636920772077  3.30742859395940 -0.54852361506151
 6  5.93144674997500  2.50088492909291 -1.94871682678268
 6  4.20563618341834  5.33800867666767 -1.13973598699870
 6  6.76567662526253  3.40591627642764 -2.43178765566557
 1 -4.39911439753975  2.12323340344034  0.19265230553055
 1 -4.84047870477048 -0.55131660776078  1.01147589178918
 1 -4.78318515841584  0.65267926762676  2.22767967766777
 1 -3.05429446934693 -1.58054545004500 -0.11760868266827
 1 -3.37270826812681  0.58217013411341 -1.49056660756076
 1  0.39446388108811 -0.18477816581658  3.67065661376138
 1  1.29536354575458 -0.48665333273327  2.16646177897790
 1 -0.86193485438544 -2.99179664466447  0.08785378767877
 1 -3.11672181748175  1.64505576967697  3.63640363006301
 1 -1.36500771587159  1.30466983088309  3.98402679057906
 1 -2.02972935403540  2.70762458225823  2.74204162596260
 1 -6.34739819071907  2.00380918441844  2.03834606760676
 1 -8.02062182918292  0.99141895109511  1.21925893659366
 1 -7.71867780498050  2.81513759685969  0.40648912911291
 1  1.02692540094009  2.10576261286129  1.67616568386839
 1  0.74730784328433  2.28706552855285  3.42600842504250
 1  1.52206653305330  0.13371401640164 -0.36964232953295
 1  2.41339913211321 -4.70566439683968 -1.76609121882188
 1  0.59486128362836 -4.56962681018102 -1.11849033243324
 1 -7.59959102090209  0.58331856245625 -3.13431937013701
 1  1.38548073697370 -4.56860804050405  1.04880245684568
 1  3.00444671477148 -4.92370957545755  0.67380519541954
 1  4.21771683398340 -4.07244469666967 -2.17399086018602
 1  5.28280937933793 -2.80005885608561 -1.09377299489949
 1  4.80946237933793 -2.61155338793879 -2.75492456605661
 1  4.89377899739974 -0.31980407490749 -1.82762893859386
 1 -9.32823642414241  0.91167862336234 -0.59108179797980
 1 -10.02082021562156  0.63655507120712 -2.23587968796880
 1  3.92131681818182  2.80750413411341  3.13244801050105
 1  6.15544901310131  1.46560871007101 -1.84482329732973
 1  5.26699739953995  5.39498226242624 -0.74565318521852
 1  4.25393741624162  5.63387015271527 -2.17721026592659
 1  3.52338000760076  5.82886249264927 -0.41371311291129
 1  1.22231954005401 -8.11642279937994  1.40693674857486
 1  7.80203264766477  3.31971751165117 -2.91874914821482
 1  6.26155804330433  4.45059057125713 -2.78891124362436

