%nproc=4
%Mem=3GB
# td=(NStates=1) B3LYP/SVP 

TD

0 1
 8 -3.35432234243424 -1.19393444894489 -2.85244589888989
 8  2.85630608540854  3.25087674617462  3.55888015891589
 8  3.74033834203420  1.37914504280428  4.46598104170417
 8  7.77891649454945 -1.60910702490249 -0.95428619041904
 8  6.63530768716872 -3.14046484138414 -2.21927837593759
 8 -2.66844775127513  1.62628811791179  1.36201626212621
 7 -0.04897064326433 -2.43168948324832  0.96579141994199
 7 -2.69703174117412 -1.17470260526053 -0.62474461906191
 7  1.09225077447745  0.07456836653665 -0.79418435563556
 7 -1.04527367286729  1.40132554045405 -0.27651854975498
 6 -3.32804795449545 -1.42638020042004  0.72141911581158
 6 -2.47551617771777 -2.39334348054805  1.56942224902490
 6 -1.08113375507551 -1.95564337833783  1.77500548914892
 6 -0.48312811511151 -1.18903009470947  2.86545456595660
 6  0.82450356295630 -1.02392739373937  2.49493068766877
 6  1.09365205140514 -1.82188862356236  1.28517332133213
 6 -4.75749069566957 -1.94236988568857  0.29295618291829
 6  1.78869346074607 -0.29588991859186  3.39350150465047
 6 -4.75216157755776 -1.97197590599060 -1.05738607910791
 6  2.17187514391439 -1.91269946214621  0.40474275297530
 6  2.08987500940094 -0.87906981918192 -0.61564546604660
 6 -3.48832350225022 -1.35113707900790 -1.63289057245725
 6  2.99878094129413 -0.67201795009501 -1.76251014991499
 6 -1.39199777197720 -0.47930178717872  3.83080858915892
 6 -5.70608583268327 -2.31082756305631  1.31967297289729
 6  2.44614427132713  0.42646001420142 -2.52253686368637
 6  1.67538697109711  1.25176086808681  2.99844648624862
 6  1.31774514101410  0.93533018161816 -1.80791689768977
 6  4.22188753785379 -1.51010043914391 -2.15407503760376
 6 -5.82107644374437 -2.39078116851685 -1.97188063626363
 6  5.43044859585959 -1.31593333853385 -1.21063448034803
 6  3.12137223262326  1.15913431603160 -3.65377188638864
 6  0.47667009110911  1.94696984388439 -2.05253699879988
 6  2.85146378667867  1.84923450895089  3.71762710791079
 6 -0.63279711131113  2.21392602480248 -1.24863015091509
 6 -6.85782970947095 -3.18420218431843 -1.78700725942594
 6  6.66586615621562 -2.14210246534653 -1.53765445544554
 6 -1.41539019381938  3.46824905810581 -1.37169524422442
 6 -2.33011710111011  3.31310178917892 -0.25142304850485
 6 -2.09426169856986  2.07110804430443  0.38807773977398
 6 -1.16838681708171  4.55834209440944 -2.28920068806881
 6 -3.33086372287229  4.30177065996600  0.33771801150115
 6 -1.91440533173317  5.68456387458746 -2.55829956275628
 1 -3.35099359255926 -0.68080357025703  1.55157936253625
 1 -2.57444907130713 -3.53702882788279  1.21880222932293
 1 -3.11267108690869 -2.33935738013801  2.58637802650265
 1 -0.09091439623962 -2.70076884198420 -0.08281127112711
 1 -2.00212860256026 -0.22837914141414 -0.51602570497050
 1  1.57603556495650 -0.41225267906791  4.50365246434643
 1  2.72527986088609 -0.76399829112911  3.28450337973797
 1  3.03028184208421 -2.54428601150115  0.34742779597960
 1 -2.41210383968397 -1.23273254725473  3.98525558735874
 1 -0.90527029502950 -0.28170237383738  4.81749810631063
 1 -1.76681599539954  0.34337678437844  3.33040180548055
 1 -5.53660444764476 -1.91069920112011  2.42754704770477
 1 -5.63126188688869 -3.43782788738874  1.61019386568657
 1 -6.76812418921892 -1.82152779617962  0.94001036273627
 1  2.01448758815882  1.31405134703470  1.90255786708671
 1  0.69862981448145  1.81712395669567  2.99127710141014
 1  0.11773003060306  0.23847821762176 -0.44441647394739
 1  4.57357307650765 -1.35697875687569 -3.18580418231823
 1  4.00458128792879 -2.60405218441844 -2.09389649764977
 1 -5.42719485788579 -2.13072399699970 -3.08137160096010
 1  5.06425434673467 -1.64137461736174 -0.24116089238924
 1  5.70466190749075 -0.30456745284528 -1.26266074857486
 1  3.95741565306531  0.70946743884388 -4.12039026852685
 1  3.66844259585959  2.11103218191819 -3.44051638703870
 1  2.19849563886389  1.41197569546955 -4.32499565156516
 1  0.52060597059706  2.74556605310531 -2.84046493849385
 1 -7.31720080618062 -3.35413759765977 -0.78659768096810
 1 -7.51188945384538 -3.51701303180318 -2.67400045354535
 1  3.57382110961096  3.62108146914691  3.91178443264326
 1 -0.33301718051805  4.62561384088409 -2.97584547994800
 1 -4.17401599119912  4.46616319811981 -0.33477462896290
 1 -3.71866061576158  4.12529732333233  1.37307811921192
 1 -2.85130344654465  5.50681097219722  0.39128489838984
 1  8.46682237573757 -2.34196735093509 -0.89468010301030
 1 -1.47244016861686  6.45811626872687 -3.18047289948995
 1 -2.87778013091309  5.85381675747575 -2.05005091259126

