%nproc=4
%Mem=3GB
# td=(NStates=1) B3LYP/SVP 

TD

0 1
 8 -3.26703361356136 -1.30405546104610 -2.87217787208721
 8  2.84439489428943  3.20182184068407  3.27951222212221
 8  3.43486779497950  1.42600972927293  4.43102754635464
 8  7.81802040494049 -1.50231634583458 -0.70982174397440
 8  6.78232238863886 -3.06176697159716 -1.99333578167817
 8 -2.50955186168617  1.47064255335534  1.39642970347035
 7 -0.32353810001000 -2.36479279357936  0.92265710651065
 7 -2.65236727472747 -1.22547768276828 -0.58574071867187
 7  1.15441699109911  0.09503041274127 -0.83192813001300
 7 -0.91623076857686  1.46895230313031 -0.20683158105811
 6 -3.35823097279728 -1.23765132753275  0.67648462236224
 6 -2.64152277837784 -2.34939908610861  1.66039134593459
 6 -1.28784442614261 -2.05311312531253  1.87124511311131
 6 -0.53690349264926 -1.22343353505351  2.79997801830183
 6  0.80956206880688 -1.20947594859486  2.44576577117712
 6  0.96685937213721 -1.93947038173817  1.22315711971197
 6 -4.77280222682268 -1.82317796649665  0.26588347564756
 6  1.87429202060206 -0.40149047864786  3.10650280478048
 6 -4.88520488188819 -1.98631734013401 -1.09988032853285
 6  2.04245220162016 -1.95961415361536  0.22161444014401
 6  2.09711573347335 -1.00880279247925 -0.74065796729673
 6 -3.57946261616162 -1.39671163646365 -1.69902718611861
 6  3.02076313951395 -0.69506025432543 -1.85959985888589
 6 -1.18959753195320 -0.45424928192819  3.94765027332733
 6 -5.75109033313331 -2.23647012731273  1.36291729732973
 6  2.48916857375738  0.34666203440344 -2.52766737673767
 6  1.82523195559556  1.13003869586959  2.79152579417942
 6  1.37476084258426  0.91630827942794 -1.89131523752375
 6  4.27062241134113 -1.55503493259326 -2.13915354545455
 6 -5.95829016511651 -2.40539262966297 -1.98594204240424
 6  5.47644319531953 -1.08445019021902 -1.20915433233323
 6  3.12350244564456  1.02994139673967 -3.67673418261826
 6  0.49900232433243  2.05791093799380 -2.13602534763476
 6  2.72517115741574  1.99262884838484  3.61505685088509
 6 -0.60755458705871  2.26293092529253 -1.30977626552655
 6 -6.88698262476248 -3.27069083318332 -1.48892745144514
 6  6.82701227082708 -2.02792104720472 -1.39644033403340
 6 -1.38462711751175  3.50945317851785 -1.32809088378838
 6 -2.26315040444044  3.36015649464947 -0.26374428062806
 6 -1.96696896929693  2.02473340684068  0.43279221122112
 6 -1.24681465986599  4.58606486668667 -2.18424019201920
 6 -3.26729736623662  4.31547203010301  0.33351759145915
 6 -1.89968385958596  5.82392781098110 -2.11986571937194
 1 -3.34094258745875 -0.40401589148915  1.10877508210821
 1 -2.67840946734673 -3.23445857085709  1.18034838393839
 1 -3.28390821062106 -2.27338078247825  2.43863325202520
 1 -0.46692199699970 -2.91402016711671  0.17564457445745
 1 -1.94272266196620 -0.48577488098810 -0.78495259765977
 1  1.56279424082408 -0.55480693449345  4.26428852795279
 1  2.85701303420342 -0.89789168046805  2.90745567496750
 1  2.89564837873787 -2.71064264716472  0.32565561876188
 1 -2.00981361066107 -1.03005227922792  4.38792585438544
 1 -0.37809757775778 -0.23652785638564  4.68111446794680
 1 -1.67035634943494  0.46477892459246  3.50620938623862
 1 -5.70489127632763 -1.66453458465847  2.35243953695369
 1 -5.65313407410741 -3.28579268386839  1.63337618391839
 1 -6.70842821962196 -2.10492613601360  0.96606296799680
 1  2.09772591199120  1.57060700260026  1.75954356565657
 1  0.76940689218922  1.59641188548855  2.99673764746475
 1  0.48839709730973  0.41757612741274 -0.22028406070607
 1  4.59407512671267 -1.15892895189519 -3.21225682758276
 1  4.06824765456546 -2.73805558475848 -2.11459856785679
 1 -5.82926506490649 -2.05280620522052 -2.89261272507251
 1  5.22536045734573 -1.39179965986599 -0.23901067736774
 1  5.82296373767377 -0.06666366246625 -1.36312079457946
 1  4.06785669716972  0.48472496459646 -3.94025225472547
 1  3.68374412601260  2.02978405710571 -3.44086642204220
 1  2.56970275957596  1.03860835873587 -4.73101625362536
 1  0.63329723972397  2.83473496999700 -2.97667855985599
 1 -6.94614370047005 -3.75911809570957 -0.63949297049705
 1 -7.76554481938194 -3.22370370087009 -2.07228028152815
 1  3.35535926342634  3.68288764976498  4.05083833803380
 1 -0.60722460126013  4.37029830933093 -3.04834272967297
 1 -4.08570716031603  4.70249683148315 -0.48581973347335
 1 -3.87077582728273  3.86962175577558  1.12522333373337
 1 -2.86559487568757  5.17456774787479  0.63951972187219
 1  8.55014070757076 -2.09945309950995 -0.90825146014601
 1 -1.90588351295130  6.62612306940694 -3.11063591579158
 1 -2.59017137003700  5.95907728352835 -1.44224013151315

