%nproc=4
%Mem=3GB
# td=(NStates=1) B3LYP/SVP 

TD

0 1
 8 -3.24603151335134 -1.42155721122112 -2.74237489178918
 8  3.04804525932593  2.98524018251825  2.99269354025403
 8  3.58700300850085  1.38316544484448  4.55064950855086
 8  7.76284488738874 -1.37092320652065 -0.91984274607461
 8  6.68718287468747 -2.92259305420542 -2.15239168726873
 8 -2.76657756425643  1.69215470457046  1.32897295779578
 7 -0.41021676787679 -2.36005231953195  0.96161100190019
 7 -2.71470350835084 -1.18265340034003 -0.58516066066607
 7  1.11831338073807 -0.02852194249425 -0.70285522272227
 7 -0.94393353885389  1.46634204210421 -0.19009990789079
 6 -3.46924207390739 -1.23775133753375  0.63209018291829
 6 -2.67394602070207 -2.22240638683868  1.64434974177418
 6 -1.20887652935294 -1.94268208220822  1.92155014361436
 6 -0.52841264356436 -1.23031422312231  2.88048606910691
 6  0.77805891849185 -1.20506550755076  2.47592878747875
 6  0.94968765496550 -1.99978641334133  1.32139694369437
 6 -4.83229817641764 -1.75292094079408  0.26166305360536
 6  1.83345793719372 -0.43361369096910  3.20839299379938
 6 -4.76358271967197 -2.06640534893489 -1.06975731623162
 6  2.00137809420942 -2.02066025822582  0.37494977367737
 6  2.04828084998500 -0.94486639883988 -0.68217211871187
 6 -3.53073774367437 -1.52120408570857 -1.67921520492049
 6  3.03336439963996 -0.67467821612161 -1.69462336123612
 6 -1.26940551275128 -0.57479133613361  3.98067357565757
 6 -5.86860208430843 -2.18087456775678  1.21969297489749
 6  2.58551820872087  0.39876724492449 -2.43690830083008
 6  1.82429186158616  0.94804049604960  2.67638428002800
 6  1.40256362286229  0.94720136873687 -1.67409351535153
 6  4.31085643474347 -1.43756318541854 -2.05744537463746
 6 -5.82467680378038 -2.62584467486749 -1.99585303350335
 6  5.47521307230723 -0.99798154335434 -1.25761917881788
 6  3.18901899729973  1.14102250485048 -3.63305981518152
 6  0.49668209230923  1.94822996989699 -1.92647439253925
 6  2.93773241354135  1.77291687718772  3.55740108530853
 6 -0.54824865646565  2.29579421162116 -1.13831911981198
 6 -6.88402232873287 -3.32062582668267 -1.63721227992799
 6  6.68059762936294 -1.89261751685168 -1.54012470247025
 6 -1.30309896469647  3.54099633283328 -1.29716779147915
 6 -2.24943903330333  3.50874135313531 -0.23260116631663
 6 -2.04545681808181  2.16020695419542  0.44396332833283
 6 -1.19690966936694  4.52420868106811 -2.29927169516952
 6 -3.43390402690269  4.35793627652765  0.12092633233323
 6 -1.68647253845385  5.81131654985499 -2.30760449324932
 1 -3.43973246644665 -0.27706319621962  1.19438364296430
 1 -2.55044667106711 -3.21113623862386  1.38793914301430
 1 -3.12328214801480 -2.39659310371037  2.66436582528253
 1 -0.82744804960496 -2.68154691979198  0.16710372037204
 1 -1.98987737743774 -0.47138344184418 -0.64741884428443
 1  1.69346730813081 -0.55700715451545  4.41527362646265
 1  2.70964829772977 -0.92052394369437  3.06946187558756
 1  2.57833664756476 -2.90943252615262  0.45523857705771
 1 -2.19732236153615 -1.07575684968497  4.25322238403840
 1 -0.53491325932593 -0.33754795839584  4.73387974447445
 1 -1.72807212101210  0.31556400310031  3.66711547684768
 1 -5.62155294249425 -1.75084321552155  2.24422871587159
 1 -5.93499225992599 -3.11781588618862  1.31913475977598
 1 -6.76455383218322 -1.93521916531653  0.85690205190519
 1  1.84678081748175  0.88689863176318  1.48679629092909
 1  0.96905685718572  1.57344958925893  2.69725769946995
 1  0.51305956355636  0.32152652245225  0.00706867456746
 1  4.41553727292729 -1.38270132913291 -3.27928353025303
 1  4.08356918671867 -2.49622140134013 -1.74806191419142
 1 -5.49428156655666 -2.46852777737774 -2.97450091389139
 1  5.17733565486549 -0.96217669756976 -0.36076285258526
 1  5.70709215051505  0.08097110101010 -1.36661114361436
 1  3.97155706720672  0.43222971507151 -4.21068929842984
 1  3.75110086168617  2.01389246794679 -3.22684501990199
 1  2.44125991529153  1.27161165906591 -4.37573072507251
 1  0.85359926992699  2.59908140464046 -2.70955184718472
 1 -6.91674076017602 -3.63263544744474 -0.64413343454345
 1 -7.44987325222522 -3.96667799829983 -2.36747980148015
 1  3.79493322082208  3.52738209920992  3.46395965016502
 1 -0.48663254205421  4.16033731323132 -3.05209310471047
 1 -4.18491708130813  4.45225180698070 -0.68549970147015
 1 -3.88674742444244  3.85574036763676  1.03027383878388
 1 -3.16207452365237  5.36088637973797  0.43023879377938
 1  8.50976667016702 -1.90525367956796 -1.33920455545554
 1 -1.40283320792079  6.39969042614262 -3.27437228942894
 1 -2.24253660656066  6.35948732453245 -1.39702561006101

