%nproc=4
%Mem=4GB
# td=(NStates=1) B3LYP/SVP 

TD

0 1
 8 -5.39144537453745  0.00678611821182 -3.23230302000200
 8  2.96113611911191  3.09105636033603  3.20280635903590
 8  3.26276462506251  0.79926532553255  3.22686457155716
 8  1.88263590309031 -7.32817908800880  1.32961146744674
 8  0.69956484448445 -7.22879930353035 -0.54359234213421
 8  1.85604265236524  3.95180830363036  0.22688219561956
 7 -2.34663427452745 -0.90380881108111  0.58491550815081
 7 -4.32829771117112  0.49186685318532 -1.21481983678368
 7  1.83889428102810 -0.70076164916492 -0.35478395599560
 7  2.54396993889389  1.92511825732573 -0.56976372307231
 6 -4.72788918011801  1.09256075307531  0.01404720452045
 6 -4.41124851765177  0.26525669096910  1.27496485418542
 6 -3.03348844444444 -0.06885662896290  1.50925293829383
 6 -2.04615371207121  0.55899085628563  2.31036420602060
 6 -0.77204381468147  0.02118668316832  1.98077875547555
 6 -0.96885107290729 -1.00840389928993  0.98112993239324
 6 -6.19785214131413  1.43092088138814 -0.15311052645265
 6  0.54119272587259  0.23036371287129  2.63474249434944
 6 -6.52606312081208  0.93327257565757 -1.39295502420242
 6 -0.17212346844684 -1.98677741464146  0.22738481998200
 6  1.04016091229123 -1.81177072367237 -0.27415899809981
 6 -5.41853245354535  0.33159137383738 -2.06009332083208
 6  1.82516660186019 -2.85094563296330 -0.88140514981498
 6 -2.32125782668267  1.61784754165417  3.19189357955796
 6 -6.97742523572357  2.13002113131313  0.84714870077008
 6  3.05072140584058 -2.35050500170017 -1.34718596369637
 6  1.15027105440544  1.73174166756676  2.56131976787679
 6  3.01371944724472 -0.96630525612561 -1.01173516171617
 6  1.42478624882488 -4.35876184058406 -0.97221893879388
 6 -7.83744965096510  1.01915355295530 -2.21343973177318
 6  1.89964753035304 -5.16393732833283  0.43923991949195
 6  4.30967657665767 -2.97747621642164 -1.95291452275228
 6  3.86501737233723  0.16537594109411 -1.42863754615462
 6  2.57658828002800  1.77926551475148  3.02575847574757
 6  3.67288166596660  1.47370278177818 -1.18716528382838
 6 -9.09601458485849  0.91522368266827 -1.63356817211721
 6  1.43571863656366 -6.67678432863286  0.22621128012801
 6  4.48547738233823  2.61500825572557 -1.59178626172617
 6  3.89911918031803  3.74384490819082 -1.08526982128213
 6  2.67240881168117  3.30777862896290 -0.40093885658566
 6  5.77766137143714  2.44918975957596 -2.30457241234123
 6  4.32263788358836  5.19701457725773 -1.02948496189619
 6  6.50016007360736  3.46562224702470 -2.84223870077008
 1 -4.32909739583958  2.24514559465947  0.25601864216422
 1 -5.10589524642464 -0.65499697579758  1.11369611381138
 1 -4.61503834373437  0.89151315101510  2.06167307700770
 1 -2.75621466136614 -1.61604900040004 -0.23023994579458
 1 -3.38859985728573  0.38780069716972 -1.70919847074707
 1  0.36325075977598  0.04202451445145  3.76377592569257
 1  1.36143015241524 -0.47983265066507  2.40631576437644
 1 -0.58371703260326 -2.73332079707971 -0.17152214991499
 1 -3.28359850515052  1.71040230433043  3.82744273397340
 1 -1.53148436353635  2.08048741264126  4.04736312421242
 1 -2.40169655075508  2.83451727152715  2.77232465426543
 1 -6.62604605550555  2.88813761726173  1.33948618161816
 1 -7.16201596859686  1.34597440664066  1.55253226392639
 1 -8.00832676987699  2.67026310941094  0.39431791199120
 1  1.05227793619362  2.21280331693169  1.64042210951095
 1  0.44122723522352  2.28894571657166  3.38135395959596
 1  1.91290561696170  0.44816546154615 -0.08678404370437
 1  1.99621741394139 -4.91435526592659 -1.83007761746175
 1  0.32382417991799 -4.65511535903590 -1.28373685708571
 1 -7.67215827762776  1.03325355595560 -3.29528546674667
 1  1.34215640454045 -4.85464664436444  1.27466504310431
 1  2.95314158425843 -5.07372457695770  0.62792060696070
 1  3.86108117041704 -4.08307575977598 -2.35064852595259
 1  5.03993509190919 -3.08562741294129 -1.22415603320332
 1  4.84623605670567 -2.37180941354135 -2.82508158175818
 1  4.51589120862086 -0.12975507000700 -2.03333950965097
 1 -8.96383998449845  0.94410186568657 -0.43971666146615
 1 -9.92752088568857  0.82229364506451 -2.18310441044104
 1  3.96526121262126  3.05900928462846  3.43782854855486
 1  6.22510597879788  1.45391754095410 -2.24817363236324
 1  5.24860556035603  5.04359712391239 -0.50117873777378
 1  4.53878590109011  5.68640540624062 -1.90240278517852
 1  3.60957862746275  5.69461906830683 -0.35368711031103
 1  1.21444875297530 -8.16725788288829  1.34267032193219
 1  7.40718316271627  3.21186672657266 -3.24098137143714
 1  5.91503339083908  4.56927243944394 -2.83930628312831

