%nproc=4
%Mem=3GB
# td=(NStates=1) B3LYP/SVP 

TD

0 1
 8 -3.32554946514651 -1.41006606210621 -2.94056471077108
 8  3.12707316211621  3.15118677717772  3.20061433233323
 8  3.86987129532953  1.26165329362936  4.17886232983298
 8  7.58292689558956 -1.75421153535354 -0.53462422422242
 8  6.55321947834783 -3.02200299519952 -2.10060650875087
 8 -2.65933684018402  1.69853534263426  1.42799285978598
 7 -0.26660240644064 -2.50799711401140  0.91879672047205
 7 -2.68713075107511 -1.08220335533553 -0.72444458905891
 7  1.15044659405941  0.05958686838684 -0.77453239043904
 7 -1.01609075457546  1.43439884778478 -0.17211810971097
 6 -3.37509265896590 -1.30202776517652  0.56035300920092
 6 -2.62824145024502 -2.23972811901190  1.53167847464746
 6 -1.21870751245125 -1.97641545554555  1.76729471807181
 6 -0.57807761006101 -1.16448764046405  2.73444146464646
 6  0.76554766736674 -1.10590559155916  2.41423261786179
 6  0.94711739793979 -1.91656809150915  1.31938674267427
 6 -4.76067101370137 -1.88631428012801  0.23067995529553
 6  1.83976856825683 -0.33883421302130  3.17013916841684
 6 -4.79321568296830 -2.15288399679968 -1.07261760226023
 6  2.10664862126213 -1.94030222242224  0.34453673237324
 6  2.13744976687669 -0.86983889608961 -0.57987188868887
 6 -3.50395506540654 -1.65555752105211 -1.73358064146415
 6  3.02266332953295 -0.56925767406741 -1.75487938683868
 6 -1.29077764996500 -0.30505436243624  3.76608211651165
 6 -5.69947517161716 -2.15610209050905  1.33027403300330
 6  2.58170782768277  0.52421979017902 -2.43530814081408
 6  1.85315474787479  1.10409610161016  2.79020566216622
 6  1.33524689118912  1.02411906050605 -1.83693979998000
 6  4.27231258035804 -1.35631506060606 -2.02290192029203
 6 -5.83485782188219 -2.58201029142914 -2.03268671687169
 6  5.43965951695170 -1.12878462366237 -1.08952236913691
 6  3.22933302870287  1.14659306190619 -3.62638914811481
 6  0.53261568566857  2.08833398029803 -1.91635338043804
 6  3.02859149944994  1.79459904540454  3.41680702590259
 6 -0.62375620722072  2.34597923012301 -1.14785007290729
 6 -6.84973890039004 -3.43721748584858 -1.54271282998300
 6  6.55051462106211 -2.12219047414741 -1.35008569856986
 6 -1.48122677747775  3.57489972317232 -1.20619869456946
 6 -2.37026111551155  3.40181066006601 -0.23719162536254
 6 -2.08022029442944  2.14114504800480  0.47969690169017
 6 -1.31781175957596  4.58607486768677 -2.23493526152615
 6 -3.42080271677168  4.34847533043304  0.27589182888289
 6 -2.00415430663066  5.75753117131713 -2.25677941074107
 1 -3.34385287848785 -0.29147463736374  1.30638484308431
 1 -2.57747937433743 -3.21838696369637  1.03583393249325
 1 -3.39412923272327 -2.53894733913391  2.30977036573657
 1 -0.40196550135014 -2.62871163626363 -0.12438542854285
 1 -1.96726511621162 -0.46323262676268 -0.87825192759276
 1  1.59390735213521 -0.71772322612261  4.16042814191419
 1  2.87148448134813 -0.80112200350035  3.09558448784878
 1  3.11254006790679 -2.82837442034203  0.42609566276628
 1 -1.95119774907491 -1.13246252025203  4.19593665546555
 1 -0.70365013301330  0.02222801920192  4.70990734723472
 1 -1.84951426522652  0.64338678537854  3.48625739103910
 1 -5.45196598379838 -1.76477460866087  2.30922521552155
 1 -5.63773253395340 -3.18886299089909  1.47669051535154
 1 -6.73628100490049 -1.83969961336134  1.11895825752575
 1  2.08843498289829  1.07695763766377  1.61815942724272
 1  0.88805875737574  1.57650989528953  3.12672064576458
 1  0.23636189378938  0.34181855165517 -0.15137717001700
 1  4.75983170237024 -1.15599865886589 -3.02002760466047
 1  4.09646047584758 -2.46122790199020 -1.87751485948595
 1 -5.82303444184418 -2.42674359895990 -3.14919838363836
 1  5.40275819711971 -1.01605208510851 -0.21586836313631
 1  6.04537597889789 -0.20855785188519 -1.34032851535153
 1  4.02068197969797  0.44314080618062 -3.99698792829283
 1  3.74913066466647  2.18818989768977 -3.38842117751775
 1  2.45855164446445  1.54698919681968 -4.26216936893689
 1  0.79715362536254  2.69381087758776 -2.61533242524252
 1 -7.08949803590359 -3.92228441234123 -0.45111413261326
 1 -7.59181744664467 -3.94783611411141 -2.24311736523652
 1  4.08636236373637  3.35277463846385  3.57744099829983
 1 -0.56193007180718  4.18192947244724 -2.96287418281828
 1 -4.22934152375237  4.66715329712971 -0.35201635313531
 1 -3.71156990669067  3.80022481608161  1.33468427982798
 1 -2.88826714291429  5.26343663476348  0.78670444034403
 1  8.38342403590359 -2.33531668586859 -0.82213284828483
 1 -1.82183510811081  6.29128958605861 -3.07029188138814
 1 -2.77489984288429  6.03280465626563 -1.59250515801580

