%nproc=4
%Mem=4GB
# td=(NStates=1) B3LYP/SVP 

TD

0 1
 8 -5.45827205720572  0.00515595519552 -3.34964475417542
 8  2.94765477097710  2.98099535423542  3.37539361776178
 8  3.27569591819182  0.77412281128113  3.31620350545055
 8  1.60366800630063 -7.16570284038404  1.50659916621662
 8  0.66355124312431 -7.06003242684268 -0.52884086698670
 8  1.77588463656366  3.97394051685169  0.13211271867187
 7 -2.27539715081508 -0.94859328952895  0.52180919751975
 7 -4.38262314371437  0.47608527502750 -1.26064441924192
 7  1.91968235983598 -0.64317589058906 -0.43081155875588
 7  2.60182572447245  1.91110685618562 -0.39190593729373
 6 -4.73405979717972  1.13196469346935 -0.02678687888789
 6 -4.40277767056706  0.21387155245525  1.12420977867787
 6 -2.93219831543154 -0.01449119241924  1.33510552355236
 6 -1.91352044874487  0.61879683688369  2.15771894149415
 6 -0.67459406970697 -0.02446788228823  1.82092276987699
 6 -0.90902509030903 -1.00347340624062  0.82107392679268
 6 -6.18312066816682  1.37479526882688 -0.20479569496950
 6  0.60358896549655  0.19813048954895  2.57069608970897
 6 -6.59269978447845  0.89155840424042 -1.34188991769177
 6 -0.15922217831783 -1.95368410531053  0.12425450695070
 6  1.15691258745875 -1.81626117271727 -0.36383796599660
 6 -5.43047364766477  0.33535174987499 -2.16068337983798
 6  1.91448553375338 -2.90330086848685 -0.96761377067707
 6 -2.27611331223122  1.64257001390139  3.15049944014401
 6 -6.96249374257426  2.11544967416742  0.89657364326433
 6  3.14405073877388 -2.37119707090709 -1.42728397349735
 6  1.06796282358236  1.61729022242224  2.59493312921292
 6  3.15653372867287 -0.89378800440044 -1.02947693589359
 6  1.52282605280528 -4.35370133453345 -0.99114083098310
 6 -8.04396030203020  0.86175781338134 -1.93093148094810
 6  1.63147071267127 -5.02351328592859  0.45952194769477
 6  4.21432704170417 -3.08506697549755 -2.17377660896090
 6  4.01010188078808  0.17229663316332 -1.29233391579158
 6  2.51546216741674  1.71176876507651  3.06509240914091
 6  3.75407978577858  1.51208662016202 -1.05338190549055
 6 -9.20057504090409  0.81989414971497 -1.31847666296630
 6  1.19404446914691 -6.57703435363536  0.44939359835984
 6  4.58434726932693  2.67341409630963 -1.44641172427243
 6  3.90038930733073  3.75960648434843 -1.03286458075808
 6  2.68875044584458  3.33172102320232 -0.35391415411541
 6  5.72771637693769  2.57403224382438 -2.34072602770277
 6  4.30477609740974  5.18983385918592 -1.23924593799380
 6  6.66550660826083  3.44190987578758 -2.71176565346535
 1 -4.28519300540054  2.17325840594059  0.20294333463346
 1 -4.86156081298130 -0.84820629672967  1.02876762096210
 1 -4.83677051695170  0.46057005670567  2.02075898559856
 1 -2.71909094899490 -1.43279067456746 -0.19818674047405
 1 -3.38725972327233  0.51544346144614 -1.56585413631363
 1  0.50316475117512 -0.18228791679168  3.54028357645765
 1  1.33355736513651 -0.31702637003700  2.05553068586859
 1 -0.49615827672767 -2.91649911491149 -0.26088108580858
 1 -3.38231837713771  1.61352261636164  3.52156214591459
 1 -1.61897311241124  1.33803316721672  4.02746113401340
 1 -1.99144552565257  2.86560037983798  3.06933435523552
 1 -6.29036248714871  2.72047085058506  1.54681691469147
 1 -7.41383115011501  1.32768257745775  1.52033904460446
 1 -7.85488142534253  2.63618970207021  0.37461594179418
 1  1.24832754115412  2.07211924852485  1.63566163346335
 1  0.52003511601160  2.30806762876288  3.35579140334033
 1  1.30616494289429  0.20127077207721 -0.18866423172317
 1  2.50968876107611 -4.85214904530453 -1.47217182688269
 1  0.59429122662266 -4.39789963746375 -1.51126961036104
 1 -8.04501556335634  0.99241947254725 -3.01107704590459
 1  0.75855804470447 -4.53835501520152  1.19124670127013
 1  2.76195246534653 -4.92618982348235  1.00921873677368
 1  4.13601866416642 -4.25869332153215 -2.35908937003700
 1  5.26125722412241 -2.76253510371037 -1.61152477007701
 1  4.13109454255426 -2.71161339393939 -3.20371944554456
 1  4.85268488798880 -0.17933002750275 -1.85298147384738
 1 -9.29117271777178  0.72881033653365 -0.21355404520452
 1 -10.03745187878788  0.69227064276428 -1.93185928592859
 1  3.95888057455746  2.88476185988599  3.69922468816882
 1  6.01392486068607  1.51783393259326 -2.62412122712271
 1  5.36405710551055  5.59058182238224 -0.80646926682668
 1  4.49764178667867  5.27213397909791 -2.31411395629563
 1  3.56554422402240  5.93143274967497 -0.93040478207821
 1  1.49769707780778 -8.15533669076908  1.43268932383238
 1  7.53627607200720  3.25222076197620 -3.27338461176118
 1  6.48665055255526  4.45978149034903 -2.24706705920592

