%nproc=4
%Mem=3GB
# td=(NStates=1) B3LYP/SVP 

TD

0 1
 8 -3.28605551575158 -1.29203425892589 -2.93098375267527
 8  2.85630608540854  3.10586224472447  3.24118838973897
 8  3.86592090029003  1.30508763706371  4.20354479807981
 8  7.65412401530153 -1.87937405160516 -0.52172293409341
 8  6.71244540094009 -2.99047984288429 -2.29216566466647
 8 -2.62785369186919  1.74912040114011  1.50819087958796
 7 -0.21086683288329 -2.42266858115812  1.00889573037304
 7 -2.72085412341234 -1.19934506950695 -0.65527767236724
 7  1.15252680208021  0.15718662836284 -0.68288322552255
 7 -1.02784192969297  1.52587799569957 -0.14649554745475
 6 -3.40425557525753 -1.35197275967597  0.56902387628763
 6 -2.60365899199920 -2.34181832803280  1.56263156995700
 6 -1.20936657835784 -1.99723753775378  1.73095108370837
 6 -0.55334513681368 -1.19709090079008  2.77212523302330
 6  0.79549066166617 -1.11658665966597  2.50238143274327
 6  0.95835852205221 -1.77979441414141  1.25751055505551
 6 -4.74913986058606 -1.89392504120412  0.20121700900090
 6  1.90009460086009 -0.39919024862486  3.13979613411341
 6 -4.74673103450345 -2.00484919331933 -1.13179351985199
 6  2.13621157755776 -1.85392358455846  0.34167644634463
 6  2.17146316821682 -0.82826473867387 -0.64505840734073
 6 -3.52232690259026 -1.47652961826183 -1.69968725212521
 6  3.10275133833383 -0.60345109340934 -1.76091999089909
 6 -1.30293886608661 -0.44739859685969  3.90000550885089
 6 -5.72614783888389 -2.15444192449245  1.35646665226523
 6  2.58880853775378  0.43663103130313 -2.52528713871387
 6  1.96193562596260  1.04339003100310  2.82479912151215
 6  1.37407077357736  0.95091173977398 -1.82824893089309
 6  4.26113146224622 -1.49176860596060 -2.03112274237424
 6 -5.84426876297630 -2.50019210961096 -1.96211966016602
 6  5.43352890389039 -1.27640938613861 -0.99366278317832
 6  3.15861595699570  1.14334273687369 -3.66228273747375
 6  0.44969739383938  2.02619776667667 -1.99584132923292
 6  2.98317695799580  1.82141172667267  3.46086143134313
 6 -0.70021385298530  2.29307393959396 -1.21379666756676
 6 -6.75982990949095 -3.32438620272027 -1.70925948464846
 6  6.66260583018302 -2.13246150125012 -1.36666735673567
 6 -1.50609926472647  3.59973220642064 -1.15298337303730
 6 -2.34626871627163  3.42716319531953 -0.20620852705271
 6 -1.96588886128613  2.12775370887089  0.56689562156216
 6 -1.32096207460746  4.63823008320832 -2.24329609760976
 6 -3.40904154065407  4.32903338623862  0.27005124482448
 6 -2.23514740594059  5.64745016321632 -2.50955468826883
 1 -3.45090358355836 -0.31494698459846  1.09431363596360
 1 -2.58738036443644 -3.38814393939394  0.92510285938594
 1 -3.03916373617362 -2.50076352075208  2.54178356705671
 1 -0.29260456525653 -2.70327909300930 -0.00122311231123
 1 -2.11514990469047 -0.22050835433543 -0.77531163356336
 1  1.85724368576858 -0.37554900870087  4.26116821592159
 1  2.70827816071607 -0.97698959025903  2.92016694609461
 1  2.90899971387139 -2.59672125502550  0.44824787798780
 1 -1.90360298959896 -1.30230950495049  4.63462052385239
 1 -0.66245601360136 -0.15801000460046  4.69215557205721
 1 -1.82182149594960  0.29179162586259  3.58887765306531
 1 -5.55969675687569 -1.63398152935294  2.23194748774877
 1 -5.53873263396340 -3.31036514111411  1.39896274257426
 1 -6.82107948474847 -1.99165480888089  1.13192955465546
 1  1.70448658805881  1.40569051095109  1.64579219051905
 1  0.86588654015402  1.48744098839884  3.26576455015502
 1  0.19671792939294  0.39224359415942 -0.35977801010101
 1  4.73876959615962 -1.16631969096910 -2.95439104100410
 1  3.74771560136014 -2.47736951615162 -2.13816092409241
 1 -5.93797593599360 -2.02087301190119 -3.12949641344134
 1  5.18935685698570 -1.37131761166117  0.07794101780178
 1  5.90162160346035 -0.28180517661766 -1.08749323182318
 1  4.11047095859586  0.88989548164816 -3.90724895439544
 1  3.13773952555256  2.36845792449245 -3.48170050545054
 1  2.20115590489049  1.00779527742774 -4.32877602960296
 1  0.63667757775778  2.56936843334333 -2.90210110211021
 1 -6.95029411551155 -3.93427561146115 -0.71236025722572
 1 -7.51092935783578 -3.60235156565657 -2.41301435493549
 1  3.60219394689469  3.55368472947295  3.76999025322532
 1 -0.49970384918492  4.50662194169417 -2.83214110951095
 1 -4.48201679127913  4.24880146194620 -0.38429958145815
 1 -3.43523227292729  3.93486828042804  1.37989880128013
 1 -3.00714903110311  5.51030132123212  0.15098086798680
 1  8.42476817031703 -2.31019417361736 -0.76893752875288
 1 -1.75605853045305  6.12086254335434 -3.45192004420442
 1 -3.27092944584458  5.90399177497750 -2.13408931643164

