%nproc=4
%Mem=3GB
# td=(NStates=1) B3LYP/SVP 

TD

0 1
 8 -3.14721163136314 -1.53901895739574 -2.86415707000700
 8  3.41780223502350  3.03532519101910  3.20233450435044
 8  3.71177548574857  1.22412954125413  4.41654609820982
 8  7.69629823272327 -1.53993010721072 -0.57591835363536
 8  6.75499965636564 -2.74954574947495 -2.31395784388439
 8 -2.70769167566757  1.60079556865687  1.38358841934193
 7 -0.33697944414441 -2.41252756705671  0.99246408720872
 7 -2.65370740874087 -1.36833196819682 -0.52475462006201
 7  1.11591314071407  0.19060997069707 -0.71829676687669
 7 -1.10275942144214  1.47175258315832 -0.24040493839384
 6 -3.33862901260126 -1.35529309170917  0.69407638153815
 6 -2.68130675677568 -2.27883202940294  1.73875918271827
 6 -1.23826946864686 -2.01238905290529  1.88745673427343
 6 -0.56040584288429 -1.20515170687069  2.91898991949195
 6  0.78460957355736 -1.14630963196320  2.54616581118112
 6  0.87746043224322 -1.89267570227023  1.25252005600560
 6 -4.68651359795980 -1.88438408710871  0.23680056735674
 6  1.81804639603960 -0.38155848544855  3.20694284878488
 6 -4.83236959835984 -1.99119782818282 -1.12259259975998
 6  1.98425638203820 -1.89864805700570  0.25313759245925
 6  2.01452747464747 -0.82105401760176 -0.67723162466247
 6 -3.47008167806781 -1.59133109840984 -1.64652193559356
 6  2.98756982018202 -0.68216896519652 -1.72482638153815
 6 -1.27293586578658 -0.48290214721472  3.97655316361636
 6 -5.79045426952695 -2.23693017331733  1.29073007860786
 6  2.50288994589459  0.41826919511951 -2.43687829782978
 6  2.00447988038804  1.10103579557956  2.73549019061906
 6  1.21295466196620  0.92457910651065 -1.80687679367937
 6  4.26937228632863 -1.50504993409341 -1.93857348744875
 6 -5.79872420852085 -2.36536862726273 -2.04796824502450
 6  5.42161771277128 -1.09363110831083 -1.09665308220822
 6  2.97745784118412  0.92221062366237 -3.69685619481948
 6  0.46741916601660  2.08194334123412 -2.00786253135314
 6  3.06695533583358  1.67940752625263  3.50021536673667
 6 -0.61447527912791  2.34739937213721 -1.19836512441244
 6 -6.84262818931893 -3.09082284638464 -1.79689824852485
 6  6.65966553615362 -1.88546680178018 -1.42423311331133
 6 -1.48149680448045  3.58630086328633 -1.34482255695570
 6 -2.31369545894589  3.45402588158816 -0.27489539573957
 6 -2.05400767316732  2.06555748924893  0.43338227022702
 6 -1.22017199559956  4.62339860006001 -2.30467223522352
 6 -3.48288892539254  4.23250373327333  0.10898513821382
 6 -1.88571246244624  5.86286170437044 -2.40327406020602
 1 -3.48890738393839 -0.53226871677168  1.20577478207821
 1 -2.52970459685969 -3.36999212421242  1.26039638873887
 1 -3.17199701950195 -2.26471991639164  2.80657004570457
 1 -0.76443174797480 -2.79963872897290 -0.04356734673467
 1 -1.94806319601960 -0.56222252575257 -0.59998410081008
 1  1.50192815421542 -0.39438089188919  4.41401350045004
 1  2.74463179607961 -0.68857074837484  2.93719864926493
 1  2.63804261816182 -2.64486606950695  0.19761281448145
 1 -1.94756738603860 -1.10774004800480  4.72868993079308
 1 -0.64689445744574  0.19761555795580  4.62183854035404
 1 -2.03732304610461  0.32112455915592  3.50540930623062
 1 -5.59737052425243 -1.79891802300230  2.19296358935894
 1 -5.71562032273227 -3.33265737033703  1.53750659695970
 1 -6.72960033683368 -2.12108775217522  0.81149751145115
 1  2.30678681808181  1.03628357025703  1.68109572087209
 1  1.16661661316132  1.73253549784978  2.90884885858586
 1  0.25733399099910  0.31553592339234 -0.16386841914191
 1  4.53618933813381 -1.48633169216922 -3.05856145804580
 1  4.13262409220922 -2.70636241544154 -1.69157626562656
 1 -5.44680681908191 -1.85835676027603 -3.09663312711271
 1  5.29498742004200 -1.25966644654465  0.04010723442344
 1  5.87488893019302 -0.20667766386639 -1.23657814031403
 1  3.72494240574057  0.38785527762776 -4.23393162266227
 1  3.32141789338934  1.98622970167017 -3.56498883428343
 1  2.07227301660166  1.08738323622362 -4.31674482648265
 1  1.02531644164416  2.64619611611161 -2.83373426542654
 1 -6.91376046214621 -3.58101028492849 -0.77958697989799
 1 -7.55004326922692 -3.35105643614361 -2.57486053955396
 1  3.94716844434443  3.23273263426343  3.99316257045705
 1 -0.45757963676368  4.29255053455346 -3.01603949934994
 1 -3.98615720532053  4.63047962976298 -0.87226837833783
 1 -4.03407215691569  3.78065285888589  0.88850966236624
 1 -3.11257957415742  5.33631392249225  0.47343311321132
 1  8.46220191369137 -2.26474962916292 -0.76869750475047
 1 -1.81925485008501  6.52428288538854 -3.28128298049805
 1 -2.63470582348235  6.17415879167917 -1.71853776127613

