%nproc=4
%Mem=4GB
# td=(NStates=1) B3LYP/SVP 

TD

0 1
 8 -5.08153438343834  0.07072251185119 -3.26790658035804
 8  3.15051505700570  2.87164441914191  3.21241732013201
 8  3.33346169476948  0.66558195719572  3.06367825292529
 8  1.74278191769177 -7.25573184328433  1.43147165346535
 8  0.15530041804180 -6.88109453305330 -0.28232621552155
 8  1.60186723482348  4.00021314411441  0.17802731013101
 7 -2.37373698479848 -0.96706513671367  0.70895791239124
 7 -4.25481036243624  0.57979564606461 -1.23874222902290
 7  1.86933732533253 -0.69243081608161 -0.44944342194219
 7  2.52527806970697  1.96913265876588 -0.47491423812381
 6 -4.69053544474447  1.25718721572157  0.10498629842984
 6 -4.40084747754775  0.19514968026803  1.28731608930893
 6 -2.97066216181618  0.05151540824082  1.43832584558456
 6 -1.90614971167117  0.53470842804280  2.21720489008901
 6 -0.66069267956796 -0.09039447494749  1.93861453905391
 6 -0.88648283608361 -1.04531759065907  0.89255107450745
 6 -6.18787114321432  1.43709149844984 -0.18854406980698
 6  0.67017562416242  0.18424910141014  2.54445346544654
 6 -6.60097061156116  0.87756700510051 -1.42339806850685
 6 -0.13588984508451 -2.01237997489749  0.25227730923092
 6  1.18841573777378 -1.86505605220522 -0.32690427262726
 6 -5.26372697299730  0.48541675637564 -2.11776908840884
 6  1.98607269246925 -2.91887242564256 -0.90662767206721
 6 -2.25300100100010  1.62289804670467  3.33807819801980
 6 -7.01437893109311  2.02847097629763  0.82615660156016
 6  3.16333266696670 -2.34664461566157 -1.25665691079108
 6  1.19332535983598  1.62060055345535  2.67249088498850
 6  3.08826690199020 -0.88503712931293 -1.07307129532953
 6  1.60244401460146 -4.40526649104910 -1.00080179707971
 6 -7.84634054005401  0.79500113771377 -2.16742513031303
 6  1.86077364296430 -5.19351028562856  0.30202619811981
 6  4.32024763376338 -3.04582305110511 -2.03773300460046
 6  3.84492536313631  0.14885428892889 -1.43592827522752
 6  2.60066068726873  1.60799838803880  3.12403830373037
 6  3.57237161496150  1.58098350985099 -1.15536210351035
 6 -9.02194717811781  0.80244240454045 -1.61430624592459
 6  1.15359042374237 -6.50464711491149  0.38609726872687
 6  4.44009284388439  2.66918367326733 -1.58957604070407
 6  3.78977824622462  3.83784430813081 -1.13848514281428
 6  2.53705527632763  3.36911476257626 -0.42153091579158
 6  5.67941154645465  2.51070591119112 -2.31613356845685
 6  3.93771939173917  5.21827670347035 -1.45720773417342
 6  6.62313237083708  3.60959664446445 -2.38077255415542
 1 -4.24029851595160  2.14348542864286  0.16082912321232
 1 -4.88617327422742 -0.75225670177018  1.01327607180718
 1 -4.72525936583658  0.57419141884188  2.13246015571557
 1 -2.88569760966097 -1.31986938243824 -0.25195211701170
 1 -3.28120911821182  0.95020693779378 -1.68146569746975
 1  0.67929236393639 -0.09732942094209  3.54803435153515
 1  1.56349035843584 -0.46550121752175  2.28727386018602
 1 -0.54499316021602 -3.01053851885188 -0.15720071777178
 1 -3.37947809310931  2.00563182728273  3.35145513521352
 1 -1.85235645074508  1.26824618851885  4.20020840874087
 1 -1.67586396749675  2.59700352015201  2.88164558635864
 1 -6.46562001290129  2.73863266676668  1.68708094109411
 1 -7.71555132213221  1.37946775597560  1.41229824052405
 1 -7.83464940214021  2.82023810691069  0.30353883408341
 1  1.19903261166117  2.15014705130513  1.63625169246925
 1  0.62463557605761  2.27588441044104  3.40186601080108
 1  1.41422574897490  0.26645729072907 -0.16160152545254
 1  2.22318011021102 -4.70936476687669 -1.72398700840084
 1  0.52895469296930 -4.50072992049205 -1.35080356375638
 1 -7.87468853065307  0.74496472707271 -3.30635657385739
 1  1.53805599449945 -4.57295847554755  1.18234581118112
 1  2.97690396049605 -5.26370357485749  0.27655547044705
 1  3.93666872917292 -4.03607105930593 -2.29160262136214
 1  5.19882098049805 -2.94065291549155 -1.60845446304630
 1  4.69635106820682 -2.35896812941294 -2.75108418201820
 1  4.74678429792979 -0.21855394989499 -1.83155933163316
 1 -9.05401900240024  0.84209166466647 -0.60050274007401
 1 -10.20975910951095  0.73895531123112 -2.09448554855486
 1  4.03283797029703  2.62554593829383  3.17657242294229
 1  5.90554402260226  1.38764091329133 -2.81277009200920
 1  4.81845254505451  5.39877264146415 -0.42717133703370
 1  4.48591061356136  5.29071583728373 -2.38871141604160
 1  3.05661333093309  5.74770437683768 -1.00049179077908
 1  1.01562887098710 -8.06648780588059  1.25558161306131
 1  7.52461490589059  3.45114065396540 -2.92647992129213
 1  6.40341222872287  4.61472698489849 -1.92090444294429

