%nproc=4
%Mem=3GB
# td=(NStates=1) B3LYP/SVP 

TD

0 1
 8 -3.22520943114311 -1.33088814431443 -2.82117277157716
 8  3.27146760156016  3.04342600110011  2.97415168606861
 8  3.67258156635664  1.30468759705971  4.42946739033903
 8  7.66926552945294 -1.59826594079408 -0.48912967476748
 8  6.71322547894789 -2.91094188908891 -2.05197164526453
 8 -2.52341324782478  1.71496698579858  1.59925998649865
 7 -0.27310305650565 -2.42330864516452  0.84671951275128
 7 -2.66034807280728 -1.11998713371337 -0.65226737133713
 7  1.07697924732473 -0.02537162746275 -0.80819575677568
 7 -1.03709285478548  1.50123553145315 -0.19964086198620
 6 -3.34054920462046 -1.20409797219722  0.57719469336934
 6 -2.65441406750675 -2.26313045924592  1.56472177897790
 6 -1.24034967666767 -2.01792960696070  1.78320630923092
 6 -0.55060486278628 -1.19675086678668  2.72300032053205
 6  0.79616072867287 -1.20298529952995  2.41438263286329
 6  0.97651033723372 -1.91584801950195  1.21812661666167
 6 -4.68805375197520 -1.71565721442144  0.26507339463946
 6  1.87268185958596 -0.40525085468547  3.17458961346135
 6 -4.79286564796480 -1.94882359075908 -1.05918625912591
 6  2.04232218861886 -1.94746293849385  0.27166944564456
 6  2.11314733663366 -0.98940085228523 -0.68209211071107
 6 -3.55640030993099 -1.40907287258726 -1.66506378977898
 6  3.02172323552355 -0.68479922822282 -1.80296419531953
 6 -1.28361693389339 -0.51753561056106  3.90155566386639
 6 -5.66842206630663 -2.03345982628263  1.32761376697670
 6  2.55781543844384  0.43992136033603 -2.42361697169717
 6  2.05816524892489  1.05853154515452  2.58090473207321
 6  1.31310467696770  0.84948159675968 -1.75173127912791
 6  4.29438478757876 -1.46085551465147 -2.04049367946795
 6 -5.87857219331933 -2.37889998039804 -1.92197564576458
 6  5.44249980098010 -1.15381712691269 -1.03862727962796
 6  3.26483657905791  1.14791319391939 -3.55884239343934
 6  0.49831225532553  1.97002214911491 -2.04213595869587
 6  3.09153779407941  1.79009859535954  3.46011135633563
 6 -0.61796562816282  2.35323995619562 -1.26686197409741
 6 -6.86805073157316 -3.31372513661366 -1.71233979267927
 6  6.65093466306631 -1.96050430553055 -1.24493518351835
 6 -1.59218787358736  3.50667290049005 -1.32690076477648
 6 -2.36851094049405  3.36650712971297 -0.17075498169817
 6 -2.07641991439144  2.12556348984899  0.48926785878588
 6 -1.44225420382038  4.51068732893289 -2.22912468046805
 6 -3.53599423592359  4.21677216011601  0.24678891859186
 6 -2.29313320452045  5.63741916011601 -2.29431316411641
 1 -3.56809530273027 -0.37489297919792  1.04739894449445
 1 -2.82812443884389 -3.22366749174917  1.19024937403740
 1 -3.36304612441244 -2.11245468986899  2.42766215491549
 1 -0.57757306210621 -2.88636740184018  0.01023803380338
 1 -2.09539792949295 -0.26352265576558 -0.66958106050605
 1  1.69309727112711 -0.24750620442044  4.34513661276128
 1  2.65409274217422 -1.05182707400740  3.04081901130113
 1  2.58930774467447 -2.89164074697470  0.21369442264226
 1 -1.99743237253725 -1.28082735673567  4.29257631943194
 1 -0.72143191119112 -0.19847405100510  4.69385574207421
 1 -1.93411272507251  0.25013746044604  3.51482024732473
 1 -5.58661944914491 -1.18730686188619  1.88097239023902
 1 -5.37015577627763 -3.12156626122612  1.67526037233723
 1 -6.60643802060206 -2.34494013741374  0.85875223692369
 1  2.31715785518552  1.02516245814581  1.47482509380938
 1  1.15678563006301  1.57238948324832  2.56267424112411
 1  0.22936119371937 -0.03166879707971 -0.26438847114711
 1  4.79692541174117 -1.33559661866187 -2.99372497439744
 1  3.99543037283728 -2.48119989918992 -2.11029813781378
 1 -5.81068320672067 -2.14867579217922 -3.03380684448445
 1  5.01957987928793 -1.22992347224722  0.00594381808181
 1  5.59352079337934  0.06452945684568 -0.92355683818382
 1  4.26071598309831  0.71116760886089 -3.94111234073407
 1  3.37362311391139  2.21064214291429 -3.40898323372337
 1  2.64551034033403  1.08931342924292 -4.46759991199120
 1  0.52156606660666  2.67914941144114 -2.86223711571157
 1 -6.93097218331833 -3.94463664756476 -0.65945496669667
 1 -7.47997626252625 -3.88189952045204 -2.35126818031803
 1  4.07298102560256  3.31794115511551  3.43328658285829
 1 -0.54568844764476  4.35111639113911 -2.87956585198520
 1 -4.09280787038704  4.57085366716672 -0.79443059455946
 1 -4.06714546424642  3.76468126172617  0.90885169656966
 1 -3.19505782198220  5.03609390049005  0.53661943184318
 1  8.28293398689869 -2.18146130033003 -0.52177281228123
 1 -1.98014093869387  6.24688514561456 -2.98136298849885
 1 -3.03573592649265  5.97706908270827 -1.64675058255826

