%nproc=4
%Mem=3GB
# td=(NStates=1) B3LYP/SVP 

TD

0 1
 8 -3.37206411661166 -1.06325138063806 -2.81432208650865
 8  3.10481093589359  3.10673233173317  3.34281855275528
 8  3.69921422962296  1.25614274257426  4.42000644424442
 8  7.78556715961596 -1.37287340154015 -0.81137189898990
 8  6.64699885628563 -3.05997679257926 -1.91083753185319
 8 -2.54387529402940  1.66262175127513  1.51972203270327
 7 -0.23842958915892 -2.43316963126313  0.93630847164716
 7 -2.57142918091809 -1.24391952695270 -0.47909005360536
 7  1.09878142754275  0.08795970567057 -0.83627856505651
 7 -0.97880702620262  1.48334374227423 -0.31028192609261
 6 -3.32971812151215 -1.40266782918292  0.59124609850985
 6 -2.66257488358836 -2.48380252645264  1.67632293909391
 6 -1.20438608030803 -2.09963777777778  1.82717070567057
 6 -0.61846164846485 -1.27172836453645  2.78867688818882
 6  0.68014912751275 -1.19212421342134  2.56232742734273
 6  0.91213389958996 -1.83515995069507  1.27584238823882
 6 -4.71688663526353 -1.86217186588659  0.18336522382238
 6  1.75788037943794 -0.28384871447145  3.18890104460446
 6 -4.64670103150315 -1.89611832023202 -1.09065940644064
 6  1.99608756515652 -1.83114130633063  0.27453973267327
 6  2.11961798369837 -0.89954186638664 -0.70524442594259
 6 -3.54875954585459 -1.40770273557356 -1.61656894029403
 6  2.98107917111711 -0.77818856715672 -1.90128402730273
 6 -1.34681325352535 -0.47986184318432  3.91468697699770
 6 -5.72643786788679 -2.37916439673967  1.28723972957296
 6  2.56112576947695  0.46245361356136 -2.52021663166317
 6  1.79669910231023  1.22642833483348  2.91989863146315
 6  1.43458682518252  0.89506615521552 -1.85247135313531
 6  4.22244759385939 -1.55930535963596 -2.10197982808281
 6 -5.77529186528653 -2.28494058445845 -2.03068651685168
 6  5.35076062706271 -1.11923366856686 -1.28242165906591
 6  3.15801589698970  0.92983138573857 -3.75325183438344
 6  0.60726315041504  1.97879302620262 -2.08756050115012
 6  2.96667530783078  1.82527211271127  3.69393473867387
 6 -0.53683751535154  2.25971060326033 -1.20865615351535
 6 -6.75325925242524 -3.16487025112511 -1.73588214691469
 6  6.66487605720572 -1.95505376047605 -1.40677136713671
 6 -1.43743239803980  3.52716494969497 -1.28286636133613
 6 -2.32835692509251  3.40113059205921 -0.16800470667067
 6 -2.02570484288429  2.07346828032803  0.48173710571057
 6 -1.28423840224022  4.46541280148015 -2.34744651265127
 6 -3.34453509000900  4.47307779067907  0.37855209490949
 6 -2.18292218341834  5.43105852405241 -2.56482021482148
 1 -3.44495298849885 -0.57269275917592  1.21448565316532
 1 -2.74233585998600 -3.39229435443544  1.18979932903290
 1 -3.33177299709971 -2.42713615801580  2.59238862756276
 1 -0.51246655145514 -2.64686345144514 -0.10610360036004
 1 -2.04607299699970 -0.45463176667667 -0.56553065546555
 1  1.59116707810781 -0.29457091089109  4.23942604170417
 1  2.79549688258826 -0.71067295859586  3.05275020442044
 1  2.71450026392639 -2.68816039893989  0.36005905910591
 1 -1.92572520182018 -1.12723199719972  4.47918498029803
 1 -0.51205097309731 -0.06467067066707  4.66227258375838
 1 -1.84179349314931  0.21752419911991  3.37214597989799
 1 -5.47636842404240 -1.75973410461046  2.21720601360136
 1 -5.92213097379738 -3.60984508910891  1.52382522882288
 1 -6.77365474227423 -1.95232087548755  0.90518688038804
 1  1.92706884628463  1.41551149304930  1.90632824412441
 1  0.71351130263026  1.71395363966397  3.32636060976098
 1  0.31168942654265  0.40224459425943 -0.12573460576058
 1  4.55910162936294 -1.75297835683568 -3.14517011891189
 1  3.94016484628463 -2.54594637383738 -1.94361146914691
 1 -5.77289942834283 -1.79452037663766 -2.99619308310831
 1  5.25724364566457 -1.01336181608161 -0.22450922722272
 1  5.50040148144815  0.10310331423142 -1.64003848634864
 1  4.01126103760376  0.39735622772277 -4.14682291179118
 1  3.59921567316732  2.02502358105811 -3.62347468286829
 1  2.50477626692669  0.78741323922392 -4.75532868486849
 1  0.92111602160216  2.60514201070107 -2.95302619461946
 1 -6.99543862996300 -3.54653683758376 -0.59654867606761
 1 -7.60400866576658 -3.36075740624062 -2.30244329782978
 1  3.74733846134614  3.59373873487349  3.91667492169217
 1 -0.37055093389339  4.51764304380438 -2.89460735613561
 1 -3.98604719431943  4.44695127692769 -0.55486663816382
 1 -3.80308905860586  4.17056184978498  1.26923773517352
 1 -2.81399971617162  5.49530982208221  0.54567033693369
 1  8.46493218671867 -1.93406656085608 -1.03705434043404
 1 -2.13965689028903  6.24784524162416 -3.34480933313331
 1 -3.16007836073607  5.43720509630963 -2.05007091459146

