%nproc=4
%Mem=3GB
# td=(NStates=1) B3LYP/SVP 

TD

0 1
 8 -3.22890980118012 -1.36393144864486 -2.84092474677468
 8  3.15270572537254  3.00035169366937  3.00215448634863
 8  3.82344665286529  1.25724285258526  4.21598604220422
 8  7.62985158805881 -1.66280239443944 -0.58932969476948
 8  6.67474163056306 -2.91481227612761 -2.22247869596960
 8 -2.68277918441844  1.72399788888889  1.37515757625763
 7 -0.33215896209621 -2.40740705500550  0.91374621542154
 7 -2.70573261126113 -1.17953308830883 -0.58223036763676
 7  1.17665921532153  0.14663557325733 -0.59297423462346
 7 -0.99388853435344  1.51151655955596 -0.29051994989499
 6 -3.35037018671867 -1.24069163156316  0.70874784868487
 6 -2.66219484558456 -2.38014216041604  1.63580888768877
 6 -1.20095573727373 -2.02925073907391  1.86438442704270
 6 -0.62514231653165 -1.14974616631663  2.83193121362136
 6  0.74005511811181 -1.22743774477448  2.51004219881988
 6  0.97038972517252 -1.97569400410041  1.31766657065707
 6 -4.71979692629263 -1.87105275397540  0.22580946824682
 6  1.80280487188719 -0.43600392999300  3.24312646714671
 6 -4.76484284568457 -2.06974568296830 -1.09477981848185
 6  2.06747470387039 -1.97658585078508  0.31907418611861
 6  2.05322134403440 -0.90123203540354 -0.60902480398040
 6 -3.56896156605661 -1.47234920022002 -1.70191747514751
 6  3.01489255245525 -0.62103285158516 -1.69563346224622
 6 -1.41761033323332 -0.47007086408641  3.83225873417342
 6 -5.81677690179018 -2.28900538083808  1.29642064766477
 6  2.59258891579158  0.52901026922692 -2.37538214821482
 6  1.96080551295130  1.06074176617662  2.66598323992399
 6  1.31025439193919  0.95587223582358 -1.77011311731173
 6  4.23556890599060 -1.54336376547655 -1.93848347844784
 6 -5.73865820192019 -2.62029411981198 -1.92191563976398
 6  5.43744929592959 -1.05504724992499 -1.15723914081408
 6  3.26697679307931  1.14179258185819 -3.52532904210421
 6  0.51139356345635  2.05212035893589 -2.14564630973097
 6  3.05280392069207  1.74878446394639  3.41935728092809
 6 -0.58383221482148  2.41187581978198 -1.18200348824883
 6 -6.77569149564956 -3.38071183528353 -1.67203576227623
 6  6.59724929452945 -1.96462471757176 -1.40293098309831
 6 -1.42988164296430  3.59216144934493 -1.19497757245725
 6 -2.42288637803780  3.45651613061306 -0.21744965116512
 6 -2.15850812321232  2.11224215771577  0.39944887688769
 6 -1.31386136453645  4.58661492169217 -2.23307507550755
 6 -3.48082871937194  4.44562504540454  0.28219245894589
 6 -1.89069296049605  5.77911332953295 -2.43430716351635
 1 -3.48230672387239 -0.29310480038004  1.17277148174817
 1 -2.80985261166117 -3.30916604160416  1.16416676577658
 1 -3.08585840564056 -2.19465290969097  2.54270365906591
 1 -0.50961626642664 -2.91018978407841  0.17318432843284
 1 -1.83936232593259 -0.56098240174017 -0.75393949634963
 1  1.72545050645064 -0.37919937373737  4.38354045314531
 1  2.74011134403440 -1.19032092339234  3.03640857025703
 1  2.87939675357536 -2.87190877377738  0.20120317351735
 1 -1.78771140044004 -1.32806208020802  4.68121518331833
 1 -0.54532430043004  0.23493929032903  4.40930728722872
 1 -2.09811912571257  0.25980842754275  3.44287305260526
 1 -5.70866165336534 -1.59274740594059  2.23497779077908
 1 -5.60337909860986 -3.43323742834283  1.42140498679868
 1 -6.64750212701270 -2.23428907230723  0.83530989268927
 1  2.03966010541054  1.22314225612561  1.52642025332533
 1  1.05010496199620  1.55210745504550  2.86228420212021
 1  0.36177443504350  0.40677504730473 -0.33075510781078
 1  4.36242196139614 -1.49576263526353 -2.96162176407641
 1  3.91413224302430 -2.46972875207521 -1.67606471447145
 1 -5.68423056145615 -2.47012793739374 -3.01674513831383
 1  5.16198411971197 -1.29133961386139  0.02319554325432
 1  5.77005844714471 -0.01382837893789 -1.20076455895590
 1  3.99318923042304  0.58441493359336 -3.98026625612561
 1  3.86618236983698  2.15946702540254 -3.23411574697470
 1  2.44860064936494  1.43287778567857 -4.49617276927693
 1  0.57820173017302  2.57099859635964 -3.01229212121212
 1 -6.99432851895190 -3.58706088998900 -0.63064208540854
 1 -7.55820408530853 -3.66241757225723 -2.40543359685969
 1  4.13184691219122  3.43407276827683  3.44782803700370
 1 -0.43654753355335  4.55782706220622 -2.91872976837684
 1 -4.31343993359336  4.73151973377338 -0.47319847134713
 1 -3.99821857155716  4.15488028162816  1.32833364476448
 1 -2.88662697889789  5.55433572467247  0.61877764766477
 1  8.55560125362536 -2.11281443564356 -0.67899853485349
 1 -1.49374229882988  6.55093555065507 -3.24966981918192
 1 -2.73851620452045  6.39041041684168 -1.67537344484448

