%nproc=4
%Mem=4GB
# td=(NStates=1) B3LYP/SVP 

TD

0 1
 8 -5.53741997199720 -0.06625118551855 -3.31648143784378
 8  3.13854385988599  2.92860011471147  3.25592167056706
 8  3.30472882148215  0.68897429642964  3.20842272737274
 8  1.65521316081608 -6.95667193729373  1.52004051035104
 8  0.73014790279028 -6.99691611521152 -0.51909989288929
 8  1.73567061516152  3.94675779857986  0.14970447784778
 7 -2.32573218431843 -0.93237166736674  0.59826684328433
 7 -4.44615949734974  0.50027769426943 -1.30045840064006
 7  1.77373776537654 -0.67395896889689 -0.58423690129013
 7  2.55591113301330  1.85683142864286 -0.57200394709471
 6 -4.79162555375538  1.14937643464346 -0.00359455965597
 6 -4.34373176597660  0.33290345564556  1.19729708740874
 6 -2.94702979857986  0.09177943464346  1.31047306030603
 6 -1.90206930363036  0.62811776897690  2.07659082868287
 6 -0.64450106040604  0.06257082158216  1.82083276087609
 6 -1.01031521932193 -1.00107316621662  0.73353517291729
 6 -6.34177653375338  1.35459324862486 -0.17798301370137
 6  0.62369097569757  0.18166884338434  2.58191721182118
 6 -6.75159567406741  0.84740398879888 -1.34224995369537
 6 -0.17165342144214 -2.00818955585559  0.10976305780578
 6  1.10583747994799 -1.76911645824582 -0.43748533073307
 6 -5.51506210651065  0.33505171987199 -2.16381369286929
 6  1.94892897809781 -2.86894743314331 -0.94503151245125
 6 -2.15602130303030  1.68310406730673  3.12096648684868
 6 -7.19284677787779  1.96811494069407  0.92801678757876
 6  3.18573490719072 -2.36594654585459 -1.41290253535354
 6  1.15066109340934  1.60094858825883  2.59326296219622
 6  3.05717379267927 -0.85671429702970 -1.17041102930293
 6  1.55142891309131 -4.30460642504250 -0.91933365026503
 6 -8.05017092309231  0.72134377197720 -1.90173856165617
 6  1.61364893049305 -4.94167510211021  0.46372236773677
 6  4.38344395339534 -2.94811328012801 -1.99281851315132
 6  4.04054492509251  0.09130853435344 -1.37187186958696
 6  2.67012763396340  1.68203579177918  2.96332223212321
 6  3.73339771757176  1.47216262776278 -1.11295786308631
 6 -9.29877486088609  0.79083124342434 -1.33175799109911
 6  1.24167923262326 -6.46727337753775  0.34352301130113
 6  4.66522535713571  2.62338909380938 -1.36315339843984
 6  3.96755602400240  3.78821934563456 -0.94753604790479
 6  2.66146771757176  3.36118396949695 -0.31330009270927
 6  5.92059566486649  2.39815465606561 -2.09386134123412
 6  4.32494811461146  5.23327820362036 -1.09219123252325
 6  6.76856691429143  3.31444712951295 -2.52590706760676
 1 -4.16572105820582  2.18167924802480  0.03368640894089
 1 -4.84991964886489 -0.73072454855486  1.14473921812181
 1 -4.84666150605061  0.77495149484949  2.02617952765276
 1 -2.84881392129213 -1.47457485298530 -0.11966888868887
 1 -3.58772977027703  0.29020093719372 -1.68672622352235
 1  0.59188362306231 -0.13829351735174  3.60572012011201
 1  1.51707571697170 -0.44342901030103  2.14042917571757
 1 -0.64364302520252 -3.01993945894589 -0.02823782148215
 1 -3.26855700100010  1.59279054315432  3.21772176187619
 1 -1.40959217431743  1.49552891679168  3.95937432533253
 1 -1.75429181028103  2.73768758855886  2.78639606140614
 1 -6.51623507440744  2.57165596909691  1.62687492049205
 1 -7.75746551355135  1.24080388958896  1.53065007570757
 1 -8.03578951615162  2.60657674077408  0.58342682288229
 1  0.85947865626563  2.18517055365537  1.69939800710071
 1  0.68440155265527  2.13251007300730  3.39298512271227
 1  1.61851617801780  0.32552319731973 -0.42454782008201
 1  2.04056184838484 -5.05562939333933 -1.68592320202020
 1  0.48687048454845 -4.44613446094610 -1.41767025042504
 1 -8.22263332513251  0.70682091269127 -3.10428636683668
 1  0.81757394629463 -4.46478765846585  1.30497807440744
 1  2.57809407950795 -4.77863506800680  0.88870668556856
 1  4.10360542284228 -3.97643509570957 -2.32636609770977
 1  5.37316841524152 -3.03125197539754 -1.31341495909591
 1  4.46411784488449 -2.18776100870087 -2.92126119971997
 1  4.86775639513951 -0.26654874937494 -1.90186636233623
 1 -9.33904750525052  0.92272972847285 -0.11945463526353
 1 -10.07042517611761  0.70705212091209 -2.26413251325133
 1  4.07710239673967  2.95333871757176  3.55360012571257
 1  6.22959642784278  1.23639578877888 -2.03722253725373
 1  5.34869556935694  5.44270703490349 -0.81311993189319
 1  4.37825984848485  5.27196396209621 -2.22455500040004
 1  3.49186685628563  5.69497910431043 -0.67095883748375
 1  1.19396670477048 -7.69940109720972  1.58632468736874
 1  7.76935938033803  3.17279281918192 -2.98140541384138
 1  6.46702859035904  4.31188670087009 -2.27535988848885

