%nproc=4
%Mem=3GB
# td=(NStates=1) B3LYP/SVP 

TD

0 1
 8 -3.19019592979298 -1.50620567606761 -2.89540019431943
 8  3.64004445924592  2.93053471197120  2.88544281518152
 8  3.63344765296530  1.25936306460646  4.58795323892389
 8  7.72844144704470 -1.29345545974597 -1.01135189698970
 8  6.55198935533553 -3.02369316421642 -1.98684513261326
 8 -2.52557346384638  1.63954944404440  1.56487654815482
 7 -0.30622636883688 -2.28148446274627  0.88693353415342
 7 -2.80271230923092 -1.09013414841484 -0.61868401300130
 7  1.15780733013301  0.12391330103010 -0.61017595479548
 7 -0.87777692319232  1.51722713061306 -0.15180607850785
 6 -3.46138128782878 -1.24756231863186  0.60386736063606
 6 -2.72225085118512 -2.26419056525653  1.53426873367337
 6 -1.32105774747475 -1.98979679367937  1.79135712431243
 6 -0.70357015931593 -1.23010420212021  2.89605762626263
 6  0.66700781338134 -1.13311831283128  2.48533972857286
 6  0.94389707590759 -1.78635507020702  1.34048885288529
 6 -4.87006195279528 -1.78708435713571  0.15664255155516
 6  1.79053364476448 -0.43201353095310  3.31259341384138
 6 -4.71195755715572 -2.06030473887389 -1.16592693319332
 6  2.06316427282728 -1.93045123732373  0.44934721342134
 6  2.11694771667167 -0.87328924112411 -0.49682358385839
 6 -3.48638330823082 -1.51613357865787 -1.67234451785179
 6  3.01941300450045 -0.62714346264626 -1.71860575947595
 6 -1.28015658785879 -0.39704356135614  3.88460396869687
 6 -5.84970019411941 -1.95232171247125  1.15173617921792
 6  2.59430908780878  0.43824119231923 -2.39427403740374
 6  2.17429686208621  1.01825751775177  2.60000664226423
 6  1.39661302780278  0.94272092069207 -1.74745085108511
 6  4.11186653575357 -1.58025745484548 -1.91829145924593
 6 -5.72672700880088 -2.70913300370037 -2.05121857005701
 6  5.35804135513551 -1.05075682088209 -1.10105352225223
 6  3.14913500890089  1.09783818641864 -3.57502401160116
 6  0.58711113521352  1.99371451835184 -1.97225897099710
 6  3.14862350265027  1.66182576807681  3.49479482468247
 6 -0.57198102970297  2.38887351955196 -1.22220750865087
 6 -6.84851877837784 -3.44115787988799 -1.85096365506551
 6  6.60833040264026 -1.96749500460046 -1.43337402740274
 6 -1.48826748154815  3.51318355155516 -1.28388646334633
 6 -2.38971306070607  3.37869834883488 -0.22624053025303
 6 -1.99216148854885  2.14957589108911  0.48892782478248
 6 -1.43584356275628  4.57404366456646 -2.23312508050805
 6 -3.50204084058406  4.25834631753175  0.25949018871887
 6 -2.24352824402440  5.64842026022602 -2.35298903170317
 1 -3.67864635783578 -0.17808329822982  1.16803100770077
 1 -2.90338196459646 -3.27979310431043  1.03621397049705
 1 -3.26153597339734 -2.41412485688569  2.50883027172717
 1 -0.34787009180918 -2.68609737483748 -0.04801779177918
 1 -2.02575096479648 -0.38509481298130 -0.73382748514851
 1  1.55010297169717 -0.29402085588559  4.56407850695070
 1  2.75834316721672 -0.98175006630663  3.24300923032303
 1  2.85240405430543 -2.67310889378938  0.59148220142014
 1 -2.19075170447045 -0.98598787278728  4.15581264306431
 1 -0.58956872487249 -0.16667087068707  4.65095145164516
 1 -1.65004431823182  0.48724117081708  3.33482224752475
 1 -5.62531331853185 -1.22516064726473  1.99388368136814
 1 -5.91471023172317 -3.16771087568757  1.29419226552655
 1 -6.85214259105911 -1.49296493989399  0.78317467916792
 1  2.41892803220322  0.95932587448745  1.48381599289929
 1  1.41270122162216  1.61255349964996  2.76022399609961
 1  0.38803706130613  0.25633000280028  0.08093606130613
 1  4.49667538673867 -1.76978003700370 -2.92146774867487
 1  3.76482731253125 -2.55164694389439 -1.60124723272327
 1 -5.53749588798880 -2.43105403000300 -3.02939640344034
 1  5.23021094239424 -1.10599107900790 -0.12870964726473
 1  5.68606004730473 -0.02828982508251 -1.29457393989399
 1  4.07275718721872  0.43428992109211 -4.03273150265026
 1  3.68732448404841  2.09889096779678 -3.37832016741674
 1  2.21887767706771  1.03326782468247 -4.30315346734673
 1  0.60270418041804  2.59401089758976 -2.85953684568457
 1 -7.20094918101810 -3.73617580148015 -0.72801182238224
 1 -7.51538980388039 -3.67527885838584 -2.61798485198520
 1  4.48944267176718  3.22447180818082  3.39082233643364
 1 -0.46169004780478  4.70946222572257 -2.80810870627063
 1 -4.33198178777878  4.30909749154915 -0.57565871737174
 1 -3.94595334503450  4.08368316191619  1.04979579097910
 1 -3.11975029122912  5.38739903100310  0.36913268316832
 1  8.35753144664467 -2.15034818901890 -1.22341297629763
 1 -2.07180010461046  6.36878733583358 -3.19278413061306
 1 -3.19284163706371  5.73033440924092 -1.63677958545855

