%nproc=4
%Mem=3GB
# td=(NStates=1) B3LYP/SVP 

TD

0 1
 8 -3.24605151535154 -1.37001205670567 -2.92095274957496
 8  3.15808626342634  3.18773043154315  3.19124339523952
 8  3.82511681988199  1.46988411671167  4.27846228982898
 8  7.74751335423542 -1.63677979217922 -0.74861562336234
 8  6.72881703810381 -3.06368716361636 -2.15916236433643
 8 -2.71005191169117  1.57575306440644  1.48541860236024
 7 -0.31274702090209 -2.38351466576658  0.96493133393339
 7 -2.65552759075908 -1.25283041804180 -0.70228237283728
 7  1.14375592499250  0.00513142284228 -0.76406134333433
 7 -1.01576072157216  1.41937734563456 -0.24245514341434
 6 -3.35869101880188 -1.38155571797180  0.57403437733773
 6 -2.71125975207521 -2.35503965016502  1.59911521832183
 6 -1.21788743044304 -1.96873468746875  1.88463645224522
 6 -0.62718252055206 -1.14302549424943  2.78325634613461
 6  0.65823693629363 -1.09200420142014  2.49889108370837
 6  0.98605129132913 -1.82006844154415  1.26966177017702
 6 -4.71141608820882 -1.89075472417242  0.20180706800680
 6  1.71663625502550 -0.38201853145315  3.33560571507151
 6 -4.78495485688569 -2.01287999639964 -1.10932127262726
 6  2.15043299969997 -1.78946713891389  0.43591587028703
 6  2.19619564146415 -0.94387629982998 -0.61824572607261
 6 -3.45177984788479 -1.49129109440944 -1.75061234463446
 6  3.02155321852185 -0.67664841314131 -1.83604750365036
 6 -1.39550812301230 -0.52059591659166  3.93844935323532
 6 -5.77979320342034 -1.96026250655065  1.31290229582958
 6  2.58054771167117  0.44729209740974 -2.40311492149215
 6  1.81792122452245  1.15108080008001  3.05337197879788
 6  1.36063943044304  0.88613526212621 -1.87978408440844
 6  4.23440878997900 -1.46682611171117 -2.04904453455346
 6 -5.86968130423042 -2.52020411081108 -1.97723117131713
 6  5.54842039303930 -1.13716546174617 -1.37540095699570
 6  3.18043813921392  1.02951135373537 -3.67313382258226
 6  0.50823324742474  2.01973712061206 -2.05553729882988
 6  2.99527816811681  1.97134672017202  3.61478682388239
 6 -0.65318915051505  2.31563619581958 -1.20382567046705
 6 -6.95799972647265 -3.28780254435444 -1.74033259195920
 6  6.68649821942194 -2.07429568466847 -1.47717840784078
 6 -1.43293194799480  3.46674890809081 -1.19613768846885
 6 -2.37760184958496  3.39748022702270 -0.19297720392039
 6 -2.09471174357436  1.98977991149115  0.45370430243024
 6 -1.26818679707971  4.67632389258926 -2.11135290329033
 6 -3.41031166766677  4.27095757865787  0.21009524922492
 6 -2.06708059925993  5.72833825202520 -2.18641237403740
 1 -3.27443593679368 -0.37419290919092  1.04512871747175
 1 -2.68279990639064 -3.28283340834083  1.34186453555356
 1 -3.05203502330233 -2.32732617701770  2.65733512221222
 1 -0.47279258405841 -2.64827359245925  0.00445745574557
 1 -1.67076546624662 -0.68419472297230 -0.94493859625963
 1  1.74415237663766 -0.60300175397540  4.43082518161816
 1  2.83026035893589 -0.62903479477948  2.95039996939694
 1  3.01984079797980 -2.55116669956996  0.61628468166817
 1 -2.03196582588259 -1.30455972997300  4.28896595839584
 1 -0.69767953595359 -0.37303150675068  4.76668302480248
 1 -1.87052636643664  0.30462290899090  3.36936570187019
 1 -5.70373116031603 -0.90658879007901  1.97040133313331
 1 -5.81093985468547 -3.00009411401140  1.66501934823482
 1 -6.73660103690369 -1.91518716211621  0.80608697039704
 1  1.90204634403440  1.04158410031003  1.90308792009201
 1  0.77210716221622  1.72176442074207  3.27807578127813
 1  0.27050530813081  0.03058742854285 -0.16955898819882
 1  4.38264398359836 -1.53322638163816 -3.26564216611661
 1  4.24722555235523 -2.58082986218622 -1.56558366636664
 1 -5.68757089548955 -2.34232515711571 -3.15367883168317
 1  5.33122104340434 -1.24474495439544 -0.43241001730173
 1  6.04020546184619 -0.11861885798580 -1.30805528802880
 1  3.57590750225023  0.27233372547255 -4.17381561106111
 1  3.98465421702170  1.83623470217022 -3.34689702510251
 1  2.58817460676068  1.36110060796080 -4.72775592759276
 1  0.77385129512951  2.78046954345435 -2.79546043804380
 1 -7.29439852595260 -3.74173635753575 -0.78208722992299
 1 -7.76225449034903 -3.44118544904490 -2.53701675517552
 1  4.05248897639764  3.53070243124313  3.55138839303930
 1 -0.30444432323232  4.75044632413241 -2.78163605900590
 1 -4.31228981858186  4.45742232403240 -0.37862901440144
 1 -3.75771452115211  3.88481327492749  1.27292810421042
 1 -2.99981829802980  5.27355764686469  0.52763853375337
 1  8.58065375887589 -2.13079623382338 -0.94605524052405
 1 -1.74444736933693  6.37553801090109 -2.98271312351235
 1 -3.02782513541354  5.81129250505050 -1.63524943244324

