%nproc=4
%Mem=3GB
# td=(NStates=1) B3LYP/SVP 

TD

0 1
 8 -3.26144305450545 -1.38834388988899 -2.85356601090109
 8  3.13802425722572  3.15199685818582  3.01119539043904
 8  3.70645495369537  1.56307343564356  4.39889433303330
 8  7.66644524742474 -1.84225033923392 -0.52651341314131
 8  6.68036219261926 -2.84432522742274 -2.27456390449045
 8 -2.50741164766477  1.64174966406641  1.64757481798180
 7 -0.26151189738974 -2.28367468176818  0.94004884568457
 7 -2.66475851385138 -1.21879701470147 -0.56824896949695
 7  1.18630017941794 -0.03481257155716 -0.74062900010001
 7 -1.00759990549055  1.43646905480548 -0.16780767866787
 6 -3.40219536923692 -1.44314187658766  0.63316028992899
 6 -2.65444407050705 -2.32391653785379  1.56494180098010
 6 -1.20430607230723 -2.00431824582458  1.71852984158416
 6 -0.57144694699470 -1.20018120982098  2.73321134163416
 6  0.77496860946095 -1.13297829882988  2.46897809240924
 6  1.00313299949995 -1.84467090179018  1.22561736573657
 6 -4.78716366296630 -1.96536218491849  0.23842072937294
 6  1.85586017741774 -0.31166149574958  3.18902105660566
 6 -4.86612297369737 -2.01243995239524 -1.16101644214421
 6  2.15680363676368 -1.90354854705471  0.37981025972597
 6  2.07923394529453 -0.91879379157916 -0.71097499899990
 6 -3.53811848174817 -1.62944490979098 -1.71018830223022
 6  3.08874993819382 -0.68841959025903 -1.79585348424842
 6 -1.29762833503350 -0.45298915591559  3.87969347764776
 6 -5.88242346644665 -2.16547302760276  1.12042304790479
 6  2.55079473637364  0.42292966116612 -2.41712632263226
 6  1.83226265866587  1.17510320232023  2.86141278287829
 6  1.33606697319732  0.91806845544554 -1.80723682968297
 6  4.35852120122012 -1.45114454355436 -2.04052368246825
 6 -5.92914725082508 -2.41689377977798 -1.99420286848685
 6  5.43483903490349 -1.13883562876288 -1.10084350125013
 6  3.16894699009901  1.09177758035804 -3.62674918411841
 6  0.48776120022002  2.00351549844984 -2.05005675077508
 6  2.92064070437044  1.92685227072707  3.50700604580458
 6 -0.64268810041004  2.25957058925893 -1.20178546644664
 6 -6.88991291779178 -3.17686145024502 -1.71616017471747
 6  6.62673224282428 -2.04137239233923 -1.43137382738274
 6 -1.42993164796480  3.55895812901290 -1.17030510521052
 6 -2.32875696509651  3.37672815181518 -0.09484739093909
 6 -1.94527680008001  2.06504743824382  0.55451438343834
 6 -1.29896987538754  4.59313557375738 -2.16483825182518
 6 -3.25828646514651  4.33066354925492  0.47753199289929
 6 -2.09027291849185  5.62781820002000 -2.49424315711571
 1 -3.41328982218222 -0.39156464636464  0.96951115571557
 1 -2.82902452885289 -3.34443956895690  1.14390473957396
 1 -3.15346516631663 -2.37041048544855  2.49834922362236
 1 -0.38587389218922 -2.52865163026303 -0.14841783178318
 1 -2.11726011571157 -0.29288559205921 -0.53484758715872
 1  1.85209317071707 -0.38410986478648  4.32964506360636
 1  2.82154948784879 -0.77339923122312  2.80880580998100
 1  2.77794660856086 -2.89491107400740  0.25974902810281
 1 -1.87638026732673 -1.16238551255126  4.46058312011201
 1 -0.72274204220422  0.07791358775878  4.69855621212121
 1 -2.14671398519852  0.11118356505651  3.10415918121812
 1 -5.79414020122012 -1.71960009120912  2.05994028702870
 1 -5.88860762146215 -3.30778488308831  1.44285713201320
 1 -6.95137251405141 -2.21350699409941  0.31923828552855
 1  2.13266940634063  1.33832377427743  1.76870448174817
 1  0.95574552605261  1.63510575487549  3.06882485618562
 1  0.23744200180018  0.32609697949795 -0.15528756105611
 1  4.38091381058106 -1.21103416241624 -3.14060966286629
 1  4.35041587138714 -2.59662144134413 -2.03199030703070
 1 -5.66908904730473 -2.33717464206421 -3.05260872467247
 1  5.20920884218422 -1.29472995289529  0.06018924262426
 1  5.62620406170617 -0.02864986108611 -1.11021550405040
 1  4.20696060756076  0.89231572367237 -3.94618284778478
 1  3.21002675427543  2.22471355005501 -3.71208354375438
 1  2.55444123342334  0.88815331323132 -4.63537668966897
 1  0.74451836183618  2.58819031553155 -2.95407629962996
 1 -7.07757684378438 -3.69163134703470 -0.75325434663466
 1 -7.58689695459546 -3.47717904840484 -2.39677273077308
 1  3.93163689118912  3.27235659665967  3.30095334953495
 1 -0.58559243804380  4.47776905640564 -2.92061995739574
 1 -3.98148673827383  4.38190477227723 -0.48309946144614
 1 -3.55034378407841  3.73673846744674  1.44314512591259
 1 -2.95578389458946  5.28005829692969  0.59705547544754
 1  8.39823551705171 -2.41281443564356 -0.79391002600260
 1 -1.94756768136814  6.22999345644564 -3.42933778597860
 1 -2.74978733163316  6.06759813561356 -1.80561646914691

