%nproc=4
%Mem=4GB
# td=(NStates=1) B3LYP/SVP 

TD

0 1
 8 -5.22107833783378  0.25309074867487 -3.29050884058406
 8  3.10328033353335  2.87976523122312  3.09021509990999
 8  3.32776112471247  0.62786818581858  2.92051393649365
 8  1.61514915441544 -7.18773504360436  1.48335684198420
 8  0.75114000200020 -7.06046246984698 -0.51698968186819
 8  1.61361840994099  3.94510763356336  0.12422192959296
 7 -2.34616422752275 -0.98786721692169  0.59715673227323
 7 -4.31798668006801  0.54842250875087 -1.29787814261426
 7  1.87898829042904 -0.72250382338234 -0.50665914351435
 7  2.48274381628163  1.94505025052505 -0.51690843754375
 6 -4.68505489668967  1.19396089308931  0.05812161196120
 6 -4.33581097389739  0.28427859315932  1.30324768246825
 6 -2.91503659925993 -0.06374611791179  1.35684769776978
 6 -1.94812390909091  0.58671362856286  2.16954012361236
 6 -0.71381799209921 -0.05212064756476  1.91969264686469
 6 -0.97003119091909 -1.07093015191519  0.90136195559556
 6 -6.25627798389839  1.35292308160816 -0.13339855525553
 6  0.49218782538254  0.17275795229523  2.65517453755376
 6 -6.66357687218722  0.91760100850085 -1.37725345404540
 6 -0.15006126222622 -2.05592432933293  0.13701578307831
 6  1.15593248944894 -1.80712025862586 -0.28190977317732
 6 -5.36524712501250  0.56670488518852 -2.13954126562656
 6  1.96241032623262 -2.91546208460846 -0.81470848014801
 6 -2.19165486638664  1.69092484938494  3.09832422262226
 6 -7.05771326452645  1.99394752395240  0.98290227612761
 6  3.19860619431943 -2.35980593179318 -1.21760300540054
 6  1.07365339263926  1.62047054045405  2.56240987688769
 6  3.09902797809781 -0.92106073167317 -1.09061304950495
 6  1.57066083628363 -4.42456842124212 -0.80326204310431
 6 -7.84042994899490  0.94591622922292 -2.09936832463246
 6  1.83623118871887 -5.14066500110011  0.41280727622762
 6  4.30228583758376 -3.11704017281728 -1.98317754905491
 6  3.90793166376638  0.11147055055506 -1.41546622902290
 6  2.58630925212521  1.60759834803480  2.86544244414441
 6  3.63470784858486  1.56245165666567 -1.15128169546955
 6 -9.13212819621962  0.98816097639764 -1.46096091139114
 6  1.32413747844784 -6.55061171137114  0.43658231723172
 6  4.46037487208721  2.67631438633863 -1.40858794189419
 6  3.71763103150315  3.82282280598060 -1.16400769506951
 6  2.46564813561356  3.30900875197520 -0.33004176687669
 6  5.72129573487349  2.55267010761076 -2.14223617871787
 6  3.98924454425443  5.26533140894089 -1.28075008840884
 6  6.72754281188119  3.49391507630763 -2.46914139103910
 1 -4.04800928702870  2.06433751385139  0.05581862216222
 1 -5.00845550245024 -0.41530300640064  1.26891163536354
 1 -4.57864470437044  0.82296629632963  2.21155806550655
 1 -2.96283532343234 -1.62560995649565 -0.13800072187219
 1 -3.25597659495950  0.67433935103510 -1.38560611151115
 1  0.39796423112311 -0.12934262226223  3.69139868796880
 1  1.21447545694570 -0.50919558695870  2.48032316511651
 1 -0.73146180708071 -3.00687815281528 -0.23823882158216
 1 -3.26048619391939  2.00480174427443  3.13780377007701
 1 -1.88712992809281  1.41978134203420  4.12560094799480
 1 -1.41813819491949  2.53103692349235  2.76994441624162
 1 -6.60946439733973  2.78035683918392  1.50977321032103
 1 -7.27510727772777  1.14398420762076  1.63601061176118
 1 -8.02266820402040  2.40323640674067  0.69639812001200
 1  0.85277798619862  2.03690572717272  1.47478554585459
 1  0.63544665716572  2.40167698969897  3.34104992919292
 1  1.68779310571057  0.23086373137314 -0.43811917721772
 1  1.98392618481848 -4.91245507590759 -1.60370498019802
 1  0.50007180468047 -4.47072692019202 -1.06582506590659
 1 -7.83249431123112  0.77234746534653 -3.21539747794779
 1  1.48085027392739 -4.66360754045404  1.30433801040104
 1  3.07880415051505 -5.19451665616562  0.61192900780078
 1  4.05112017431743 -4.14661211341134 -1.95563902500250
 1  5.19512061046105 -2.96574542474247 -1.57674129172917
 1  4.60758219131913 -2.86622885548555 -2.98098717231723
 1  4.81035065456546 -0.30587268176818 -1.78607478317832
 1 -9.31252485298530  0.81359881538154 -0.46940963076308
 1 -9.96341447504750  1.05896731243124 -2.21768786878688
 1  4.26091077757776  2.84183756745675  3.25766053175318
 1  5.90338380658066  1.36791894109411 -2.24195301030103
 1  4.83014371417142  5.46573933813381 -0.64153277317732
 1  4.28716073857386  5.49270603630363 -2.26539908480848
 1  3.31226889648965  5.95238484488449 -0.76570831243124
 1  1.48043535163516 -8.17383854095410  1.46793284818482
 1  7.56800924532453  3.26294183408341 -2.92933020632063
 1  6.71116300380038  4.54725023722372 -1.87441979447945

