%nproc=4
%Mem=3GB
# td=(NStates=1) B3LYP/SVP 

TD

0 1
 8 -3.27340425062506 -1.30242529802980 -2.86630728502850
 8  3.19119957475748  3.20120177867787  3.27707197809781
 8  3.65119942814281  1.36594372267227  4.43156760036004
 8  7.69641824472447 -1.63910002420242 -0.71395215701570
 8  6.67738189458946 -2.92825362026203 -2.18210465856586
 8 -2.82560346684668  1.55833132223222  1.32612267276728
 7 -0.28033377957796 -2.36057237153715  0.94978981978198
 7 -2.78392043004300 -1.21829696469647 -0.61091323592359
 7  1.20340188958896  0.04887579727973 -0.69816475367537
 7 -0.94749389488949  1.52542795069507 -0.15172607050705
 6 -3.44741989168917 -1.42745030743074  0.61902887678768
 6 -2.69198782488249 -2.38943308950895  1.72253756055606
 6 -1.24656029772977 -2.05952376637664  1.93018100670067
 6 -0.54782458475848 -1.30416160786079  2.94222224272427
 6  0.80773188578858 -1.14297929892989  2.48163935853585
 6  1.02514520072007 -1.81132756745675  1.31193599759976
 6 -4.87401234783478 -1.89829547824782  0.27203409070907
 6  1.90871546294629 -0.33360368996900  3.14206636113611
 6 -4.91139750115012 -2.07052576097610 -1.08723906440644
 6  2.14341229762976 -1.88176636883688  0.34657693639364
 6  2.09858588048805 -0.95128704090409 -0.66364026552655
 6 -3.60551522142214 -1.54459642494249 -1.72333961736174
 6  2.97586865006501 -0.75739648794879 -1.86258015691569
 6 -1.25715428762876 -0.48475233223322  3.89391489978998
 6 -5.83889911401140 -2.11852833313331  1.36290729632963
 6  2.64550420732073  0.40050741894189 -2.53008761876188
 6  1.99587902030203  1.18093378537854  2.63271991359136
 6  1.47249061556156  0.85609225782578 -1.78545465146515
 6  4.31739708880888 -1.46466589568957 -2.03950358045805
 6 -5.86380071617162 -2.38659074947495 -2.07722117031703
 6  5.50507605860586 -1.12977472267227 -1.15945936283628
 6  3.25787588298830  1.13787218981898 -3.68043455265527
 6  0.53353577767777  2.01133628052805 -2.02095384048405
 6  3.01568020832083  1.88362794829483  3.56858220342034
 6 -0.47042087368737  2.32451708390839 -1.10847613551355
 6 -6.95685961246125 -3.09699346344635 -1.84507306600660
 6  6.71974154375437 -1.96976523162316 -1.48093878387839
 6 -1.42323097789779  3.55347758095810 -1.22421049574957
 6 -2.40036412581258  3.35578605760576 -0.24763266946695
 6 -2.05212748514851  2.03462439593959  0.48703763576358
 6 -1.29132911131113  4.56934319451945 -2.25624739273927
 6 -3.47074771127113  4.24788527142714  0.23278751845185
 6 -2.09164305550555  5.63436885508551 -2.36689042184218
 1 -3.58622711591159 -0.46548203810381  1.15335954055406
 1 -2.67645927232723 -3.37544266926693  1.35695604470447
 1 -3.16319613941394 -2.28846229062906  2.58965835453545
 1 -0.51077638243824 -2.80019878497850  0.04450146014602
 1 -1.69798818851885 -0.73598990249025 -0.80718482088209
 1  1.63137109850985 -0.22282373617362  4.12657475657566
 1  2.98694602750275 -0.63276516781678  3.04777970737074
 1  2.77440625452545 -2.59638122102210  0.39415246844684
 1 -2.21778440774077 -1.01076035003500  4.38242530433043
 1 -0.63260302830283 -0.19130333393339  4.67479383588359
 1 -1.79550886468647  0.39616206290629  3.46720548584858
 1 -5.74173496069607 -1.35581371257126  2.13922821582158
 1 -5.65414417511751 -3.09627373197320  1.86637948424842
 1 -6.74781215801580 -2.05368101150115  1.00397675937594
 1  2.28322446184618  1.18971891379138  1.61514912621262
 1  0.92177212871287  1.75437768206821  2.70848882258226
 1  0.28721697929793  0.26999136893689 -0.27173920622062
 1  4.72128784798480 -1.45682874187419 -3.08870447234723
 1  3.84765559535954 -2.64957673687369 -1.91439854785479
 1 -5.64536667506751 -2.08760968556856 -3.03992745654566
 1  5.40736865816582 -1.09694017391739  0.04546777047705
 1  5.86702814411441  0.03148615251525 -1.22931741424142
 1  4.19067897939794  0.75512200430043 -4.12863109260926
 1  3.47233298489849  2.07679875857586 -3.25131746714672
 1  2.56792258155816  1.29954445234523 -4.37813096509651
 1  0.87893180318032  2.65917741424142 -2.76922781478148
 1 -7.05300438653865 -3.52315449934994 -0.95214423562356
 1 -7.85428369326933 -3.39059038953895 -2.48511156465647
 1  3.84147787528753  3.52888224922492  3.89775302950295
 1 -0.50315419421942  4.33354463396340 -3.10386828222822
 1 -4.37403599319932  4.39890647244725 -0.47077822932293
 1 -3.79349809950995  3.76347114071407  1.11802261366137
 1 -2.86883519971997  5.29805009610961  0.51081685158516
 1  8.50561625512551 -2.20706386058606 -0.91492212721272
 1 -1.71468439303930  6.29263972107211 -3.15417026922692
 1 -3.05065741864186  5.77502887868787 -1.67379328682868

