%nproc=4
%Mem=4GB
# td=(NStates=1) B3LYP/SVP 

TD

0 1
 8 -5.10222645264526  0.33606904650465 -3.31989177887789
 8  3.00976098159816  3.00705796049605  3.26026210461046
 8  3.38789713831383  0.82764816381638  2.94502638773877
 8  1.68469610911091 -7.28011428152815  1.33944245054505
 8  0.45857074507451 -7.10790721432143 -0.60161814471447
 8  1.70136718481848  4.09130225302530 -0.05197569016902
 7 -2.38604821592159 -1.06003443364336  0.73260027662766
 7 -4.26191107250725  0.65203286978698 -1.19445780058006
 7  1.81417180878088 -0.76865843884388 -0.26453493109311
 7  2.62316785868587  1.90712645814581 -0.46590333703370
 6 -4.78994538573857  1.21799329632963  0.15236103590359
 6 -4.34910230303030  0.28064823012301  1.32096945464546
 6 -2.99323441904190  0.02064232093209  1.46796880988099
 6 -2.00457955465547  0.61697665486549  2.19303247284728
 6 -0.76058266856686 -0.01064650015001  1.87514819241924
 6 -0.94913910171017 -1.00622368126813  0.93733555295530
 6 -6.32150450655066  1.34892268156816 -0.18150336573657
 6  0.54426303290329  0.33375405190519  2.60369939003900
 6 -6.57697821232123  0.87270651905190 -1.35309103780378
 6 -0.12606886298630 -2.02500123702370  0.32924500600060
 6  1.09189608580858 -1.88801834843484 -0.28031961416142
 6 -5.26910751105111  0.53966218091809 -2.06189350085009
 6  1.98330241544154 -2.90918145654565 -0.92738974827483
 6 -2.21045674657466  1.67479323622362  3.13631802200220
 6 -7.28613610681068  1.82333046224622  0.95055904180418
 6  3.10418675237524 -2.29964991619162 -1.32220346544654
 6  1.19295532283228  1.67767626102610  2.47033066896690
 6  3.01074915021502 -0.95702432803280 -0.94957894609461
 6  1.50304407460746 -4.25527149154915 -0.89839155605561
 6 -7.81751765776578  0.64131576917692 -2.07145553335334
 6  1.56497406300630 -5.10772170677068  0.34415041054105
 6  4.25912152115212 -3.02338080688069 -2.02435166646665
 6  3.93022389298930  0.12612201570157 -1.33931861426143
 6  2.61942256345635  1.74090167836784  2.84219011891189
 6  3.65669004680468  1.51422683418342 -1.01759832713271
 6 -9.06834181758176  0.58444060436044 -1.58841365666567
 6  1.17407247194719 -6.52087873807381  0.22589124812481
 6  4.54790362496250  2.68669542444244 -1.51049813291329
 6  3.83422269066907  3.74787531123112 -1.08837013131313
 6  2.67519909070907  3.37157500860086 -0.45925468816882
 6  5.91268487378738  2.48439327992799 -2.11187314241424
 6  4.17513313311331  5.15908078387839 -1.28610062346235
 6  6.72073213081308  3.41530721552155 -2.56217069396940
 1 -4.45412989908991  2.25575665576558  0.37606064636464
 1 -5.25163982088209 -0.72919439553955  1.13434817901790
 1 -4.73897073697370  0.65448944864486  2.16947385708571
 1 -2.87648668856886 -1.64675207070707  0.02986606480648
 1 -3.28055905320532  0.76417833493349 -1.57067461836184
 1  0.51342577727773 -0.07859754775478  3.60346989508951
 1  1.44980899029903 -0.40810547794779  2.26323145594559
 1 -0.44010267116712 -2.96593405840584  0.10336533883388
 1 -3.20480062536254  1.83827509160916  3.59216920662066
 1 -1.64969618471847  1.53411277517752  4.07327571547155
 1 -1.63976035713571  2.66159997979798  2.74367178897890
 1 -6.82579603050305  2.65513431693169  1.48323055605561
 1 -7.79711947894789  1.10698050725072  1.68806581728173
 1 -8.15224116131613  2.39805588868887  0.61777025722572
 1  1.16970967936794  2.24932696929693  1.53916198349835
 1  0.77591070357036  2.42135895789579  2.92934875907591
 1  1.54574890129013  0.19250989598960 -0.02389775507551
 1  1.94407219941994 -4.92847667806781 -1.64205881558156
 1  0.49586138363836 -4.45803565106511 -1.48304678807881
 1 -7.66151721352135  0.58694892549255 -3.29564550275028
 1  1.11562375127513 -4.75951713141314  1.28253583018302
 1  2.57447371747175 -4.92406961146115  0.80518833373337
 1  4.15138020032003 -4.17983543574357 -2.07265072617262
 1  5.38972007040704 -2.81006985718572 -1.61523514111411
 1  4.40669210231023 -2.70252248484848 -3.16163523712371
 1  4.80590020952095 -0.20330242474247 -2.23451962766277
 1 -9.27000060056006  0.42353980948095 -0.36948963876388
 1 -9.83368150175018  0.49589100480048 -2.09471557155716
 1  3.91378606510651  2.98979236293629  3.37742250795080
 1  6.36737020522052  1.45653780298030 -2.02154096909691
 1  4.99336003580358  5.45481824602460 -0.47271589148915
 1  4.68952097459746  5.55485225092509 -2.23499604450445
 1  3.55043271287129  5.80034964136414 -0.92208394999500
 1  1.30814812291229 -8.13151430853085  1.09062511741174
 1  7.77593003740374  2.90287582748275 -2.89801707500750
 1  6.57926981448145  4.38856436863686 -2.67161951445144

