%nproc=4
%Mem=4GB
# td=(NStates=1) B3LYP/SVP 

TD

0 1
 8 -5.11367759775978  0.07391283088309 -3.23925371507151
 8  3.03622362786279  2.98353560826083  3.27516359475948
 8  3.35220356895690  0.79580497949795  3.09316120122012
 8  1.52699033853385 -7.20058632873287  1.39743825012501
 8  0.85476036403640 -6.98221464506451 -0.70071805470547
 8  1.71389843794379  4.01502462526253  0.03197270467047
 7 -2.30792040314031 -0.96625505570557  0.68943596019602
 7 -4.30400528192819  0.45880354685469 -1.11514986978698
 7  1.83670406200620 -0.72001357435744 -0.22806128372837
 7  2.44156969886989  1.86082182768277 -0.65822256895690
 6 -4.73994038523852  1.21618311531153  0.05037083688369
 6 -4.32053944674467  0.30775094039404  1.26839419711971
 6 -2.86273136873687  0.06516677337734  1.44194620762076
 6 -1.95959505620562  0.62293725092509  2.25739890949095
 6 -0.68531514181418 -0.04516995249525  1.94225490309031
 6 -0.95877006480648 -0.98489154805481  0.91387320672067
 6 -6.24899725582558  1.31628941824182 -0.18975419081908
 6  0.63710231683168  0.20044072057206  2.64884390449045
 6 -6.53818433293329  0.82090133853385 -1.35729145784578
 6 -0.18522477857786 -2.06122485938594  0.18246032753275
 6  1.07813470967097 -1.88638818541854 -0.27841942414241
 6 -5.30052065236524  0.40808902360236 -2.08082539403940
 6  1.91386547174717 -2.88592913131313 -0.83222023132313
 6 -2.17979368026803  1.66823258015802  3.24948933913391
 6 -7.19677717091709  1.97390551975198  0.83940792669267
 6  3.08343467716772 -2.24958490969097 -1.36407765286529
 6  1.10612663996400  1.65477397079708  2.70732436833683
 6  2.95187326262626 -0.92940156575658 -1.02158614681468
 6  1.49233300350035 -4.33444940934093 -0.87174889178918
 6 -7.81256716271627  0.83749538713871 -2.15567395519552
 6  1.70444801040104 -5.11779271387139  0.41168716421642
 6  4.31514712371237 -2.87131560036004 -2.14545377667767
 6  3.79691056165617  0.05874527802780 -1.42276695909591
 6  2.57170779197920  1.72792038023802  3.04845074497450
 6  3.63479785758576  1.43559897139714 -1.17031359865987
 6 -9.11597658105811  1.01683384368437 -1.67626244154415
 6  1.27138220292029 -6.51633828402840  0.32193085208521
 6  4.54883371797180  2.57697445234523 -1.50918800190019
 6  3.86218548694869  3.74511503520352 -1.14854614891489
 6  2.56242781358136  3.32316016711671 -0.45051381408141
 6  5.79166277157716  2.35573041364136 -2.20524247934793
 6  4.10917653745375  5.22793766956696 -1.08615062846285
 6  6.57969802740274  3.41595728052805 -2.75100957785779
 1 -4.27009149524953  2.37703878397840  0.26666970727073
 1 -4.83918857575758 -0.83698517461746  1.58181292549255
 1 -4.58491533143314  1.00821482118212  2.14348125782578
 1 -2.62239127902790 -1.26201359685969 -0.33174009580958
 1 -3.28988998629863  0.42406432353235 -1.32334988588859
 1  0.56221065576558 -0.18781846984699  3.72861240934093
 1  1.35218922832283 -0.38060272767277  2.19883501630163
 1 -0.48880754165417 -3.08025549054905  0.05595059735974
 1 -3.12535268056806  1.63441470557056  3.64134412411241
 1 -1.34586580168017  1.37611697559756  4.18160654855486
 1 -1.98472485358536  2.75564938473847  2.91310873267327
 1 -6.77358080898090  2.78057686118612  1.36164839783978
 1 -7.51162092909291  1.19494930413041  1.43844085478548
 1 -7.98443438063806  2.52994907800780  0.35437391759176
 1  1.00150285868587  2.06783882048205  1.66062412971297
 1  0.49509262176218  2.21098792079208  3.38789461366137
 1  1.51808613501350  0.19187983298330  0.04073870857086
 1  1.83839163136314 -4.85100893129313 -1.70238484818482
 1  0.55548734623462 -4.49777962546255 -1.09460794419442
 1 -7.86509757155716  0.83917414801480 -3.34346028422842
 1  1.13000518941894 -4.70999217891789  1.35274285088509
 1  2.76429269936994 -5.05987319181918  0.72665047994799
 1  4.23974903720372 -3.98064551675168 -2.09672313341334
 1  5.07307840624062 -2.59890874107411 -1.59264288188819
 1  4.33658509160916 -2.48182041464146 -3.15664473807381
 1  4.71662128162816 -0.36621871637164 -2.06136231193119
 1 -9.30541414191419  0.96269372487249 -0.55959864966497
 1 -9.90408854245424  1.05085650135014 -2.27524362436244
 1  3.85345003150315  3.05463884758476  3.44117888358836
 1  6.27892136033603  1.24697684688469 -2.37061587658766
 1  4.91061176097610  5.62616538073807 -0.44429304920492
 1  4.41751377387739  5.58702546824682 -2.09242178707871
 1  3.14775244484448  5.78869847624763 -0.63122486408641
 1  1.42141945004500 -8.24910606770677  1.32810886578658
 1  7.42865530993099  2.95741128102810 -3.25446271957196
 1  6.33038492599260  4.48456396859686 -2.61620397289729

