%nproc=4
%Mem=3GB
# td=(NStates=1) B3LYP/SVP 

TD

0 1
 8 -3.15874278447845 -1.15606066156616 -2.88134878917892
 8  3.27804825962596  3.06942860136014  2.87673194409441
 8  3.61365567376738  1.52145927422742  4.56735117871787
 8  7.70547915081508 -1.58035414961496 -0.91192195399540
 8  6.70371452785279 -2.98000879577958 -2.32156860496050
 8 -2.62596350285029  1.67001249034903  1.50737079757976
 7 -0.30819656585659 -2.43108942324232  0.96675151595160
 7 -2.67755979397940 -1.22521765676568 -0.64056620122012
 7  1.10954250365037 -0.02091118141814 -0.77666260346035
 7 -0.97620676617662  1.46042145004500 -0.24169506740674
 6 -3.42322747244724 -1.30129769216922  0.62652962686269
 6 -2.69254788088809 -2.34036818301830  1.55981128792879
 6 -1.27350299199920 -1.96189400340034  1.80610859945995
 6 -0.60484028632863 -1.03326451815182  2.78613663416342
 6  0.80637174977498 -1.14822982398240  2.51920311491149
 6  0.88712139833983 -1.80846728142814  1.28268307230723
 6 -4.80494544114412 -1.90528617731773  0.14925181248125
 6  1.90192478387839 -0.39927025662566  3.31005315981598
 6 -4.84562092349235 -2.06850555895590 -1.18806914741474
 6  2.04166212261226 -1.84155234743474  0.38450072877288
 6  2.12858888078808 -0.94631654385439 -0.64992889438944
 6 -3.53532820272027 -1.46963892919292 -1.71664894829483
 6  3.02413347654765 -0.61271201950195 -1.72141604050405
 6 -1.30823939613961 -0.32802665966597  3.89143465176518
 6 -5.96264148824883 -2.13476995729573  1.16265727132713
 6  2.53329298619862  0.44946231443144 -2.39906451645165
 6  1.95523495589559  1.11504719671967  2.83774041564156
 6  1.33678704520452  0.94532118071807 -1.76319242524252
 6  4.13673902300230 -1.52318174727473 -1.93230286038604
 6 -5.75553989008901 -2.65219731013101 -1.99477292549255
 6  5.38470402140214 -1.30636238143814 -1.08415183208321
 6  3.14511460686069  1.16964536713671 -3.54713122232223
 6  0.56217864196420  1.97229237613761 -1.97711945704570
 6  2.99023766406641  1.90126971247125  3.62799814501450
 6 -0.59979381098110  2.31653628582858 -1.23755904380438
 6 -6.81590551705170 -3.53548731283128 -1.62516107480748
 6  6.71000056965697 -2.05424367946795 -1.48823951395140
 6 -1.48384703950395  3.46468870207021 -1.19495757045705
 6 -2.32888697809781  3.37586806580658 -0.17426533273327
 6 -2.03961623402340  2.09589052255226  0.43314224622462
 6 -1.18088806720672  4.54226048624863 -2.18047981598160
 6 -3.48700933743374  4.32871335423542  0.25527976767677
 6 -1.82855674687469  5.67874329252925 -2.14906863966397
 1 -3.31116961016102 -0.22227771767177  1.15464966956696
 1 -2.42243386978698 -3.33547867286729  1.13311366046605
 1 -3.27750757055706 -2.49354279867987  2.48369775847585
 1 -0.48174347914791 -2.92147091219122 -0.03512650265027
 1 -2.10559894959496 -0.42909921342134 -0.63616771917192
 1  1.69795775717572 -0.48382983678368  4.32936503560356
 1  2.94514184708471 -0.98117000830083  2.93829875927593
 1  2.75699451335134 -2.59525110801080  0.52141519471947
 1 -1.91093372267227 -0.90543981798180  4.56403346514652
 1 -0.57193696169617 -0.03695789938994  4.79217557405741
 1 -1.85580489428943  0.52607505420542  3.47911667696770
 1 -5.92099288648865 -1.51180931213121  2.00750504350435
 1 -6.10707946864686 -3.27825192979298  1.52425527182718
 1 -6.79294667146715 -2.02850849424943  0.57291365306531
 1  2.20647678707871  1.18163810571057  1.76519413071307
 1  1.00054000550055  1.56033827812781  2.86067404110411
 1  0.02190044764476  0.15392976277628 -0.15487752005201
 1  4.71185690489049 -1.39920297929793 -2.93411901380138
 1  3.79194002380238 -2.69205098429843 -1.83082019001900
 1 -5.87095923432343 -2.33492441704170 -3.04906837063706
 1  5.33378129942994 -1.73530401030103  0.14738796249625
 1  5.67967940924092 -0.26505350145015 -1.22360684318432
 1  4.05878579007901  0.53238973107311 -3.83177140664066
 1  3.41198695029503  2.21431250995099 -3.16089842524252
 1  2.46515230453045  1.21403590149015 -4.31975512751275
 1  0.81419532953295  2.66099759625963 -2.85316620862086
 1 -6.99182826892689 -4.07831001490149 -0.72774179537954
 1 -7.32017028192819 -3.91770310081008 -2.51967502100210
 1  3.97621134863486  3.40945030603060  3.42381563576358
 1 -0.42946682548255  4.13565484498450 -2.97640553595360
 1 -4.18770736033603  4.74632121392139 -0.66655780728073
 1 -4.17857660736074  3.91141593519352  0.99178999039904
 1 -3.12298061426143  5.28567885898590  0.53331910181018
 1  8.50489618311831 -2.07890104430443 -1.17348798379838
 1 -1.78324124872487  6.51384184128413 -3.05879073127313
 1 -2.59632198509851  5.81988336413641 -1.42256816431643

