%nproc=4
%Mem=3GB
# td=(NStates=1) B3LYP/SVP 

TD

0 1
 8 -3.27287419761976 -1.44227928342834 -2.86407706200620
 8  2.95382583738374  3.26351801030103  3.16616088698870
 8  3.74281859005901  1.46965409370937  4.27336177977798
 8  7.67752635553555 -1.64452056625663 -0.84182494429443
 8  6.60477463386339 -3.24331512641264 -1.91402785088509
 8 -2.66735764226423  1.59736522562256  1.42250231073107
 7 -0.18329407560756 -2.45211152545255  0.90257509830983
 7 -2.69534157215722 -1.21246638163816 -0.62142428702870
 7  1.23860540994099  0.11167207690769 -0.70818575577558
 7 -1.02037118261826  1.54618002590259 -0.18077897579758
 6 -3.38903405310531 -1.42989055145515  0.62490946484648
 6 -2.66303492959296 -2.40197434363436  1.50492579937994
 6 -1.23930957265727 -2.07313512751275  1.75820380898090
 6 -0.58545834813481 -1.21256244794479  2.81108912941294
 6  0.77469858245825 -1.14540954195420  2.44019521412141
 6  0.92069475567557 -1.86748318301830  1.24393919791979
 6 -4.79274422102210 -1.78079372807281  0.25711259855986
 6  1.83570816221622 -0.34855518511851  3.11816397089709
 6 -4.77289365076508 -1.92116082448245 -1.08746908740874
 6  2.06036399279928 -1.87865605780578  0.25647792649265
 6  2.16669269116912 -0.93361527372737 -0.67034093559356
 6 -3.51508617851785 -1.45371733703370 -1.69438672207221
 6  2.99970103330333 -0.69534028232823 -1.83821772067207
 6 -1.20180875307531 -0.48858271527153  3.89375488378838
 6 -5.71648687278728 -2.27910439073907  1.37038804440444
 6  2.59458911581158  0.54428179637964 -2.39910452045205
 6  1.89689912231223  1.23141883388339  2.60813745534553
 6  1.36589995649565  0.98042469106911 -1.71220732673267
 6  4.26644199329933 -1.51730115921592 -2.01343097319732
 6 -5.74331866796680 -2.54960705110511 -2.02380582878288
 6  5.49413496449645 -1.25823756895690 -1.15901931883188
 6  3.16716681208121  1.11238964156416 -3.71853836303630
 6  0.56859928402840  2.04354950185019 -1.91954369946995
 6  2.89479812011201  1.96579616511651  3.47239258445845
 6 -0.57973180478048  2.38238287048705 -1.10342563046305
 6 -6.86673059955996 -3.24033779787979 -1.72411096979698
 6  6.60494006360636 -2.13940219531953 -1.33533422342234
 6 -1.47687634243424  3.53540577377738 -1.15243331803180
 6 -2.40993508290829  3.42399287828783 -0.17098500470047
 6 -2.11702397479748  2.12749368286829  0.40913984598460
 6 -1.33822380078008  4.56782304250425 -2.14765653365337
 6 -3.45092572907291  4.26959744264426  0.32425666536654
 6 -1.86733062426243  5.80941635983598 -2.18188192099210
 1 -3.52544103730373 -0.60171566146615  1.03778798339834
 1 -2.52794442084208 -3.47553267826783  1.07365771487149
 1 -3.08602842264226 -2.41843528792879  2.67085647434743
 1 -0.40149545434543 -2.82470123522352  0.01264827482748
 1 -2.01317970767077 -0.56269257275728 -0.71043514591459
 1  1.58464642604260 -0.33711516531653  4.35258735783578
 1  2.86991432433243 -0.89314120542054  3.21116604600460
 1  2.82729154305431 -2.46457804070407  0.34355740894089
 1 -2.05105773507351 -1.11542081608161  4.18163522532253
 1 -0.43340310831083 -0.10502470607061  4.69440579707971
 1 -1.75790510431043  0.42789523622362  3.51319008430843
 1 -5.51242202940294 -1.78027615881588  2.38141243424342
 1 -5.54918367906791 -3.40912501710171  1.42246509280928
 1 -6.75600297709771 -2.08792443584358  1.06115247694769
 1  1.96982312171217  1.27546748864886  1.52128974027403
 1  0.95836578807881  1.81925416971697  2.76438441214121
 1  0.56475473307331  0.52146651645165 -0.12154418671867
 1  4.76034175337534 -1.35864892389239 -3.03068867076708
 1  3.78922975277528 -2.51468324752475 -1.80698780678068
 1 -5.50629276767677 -2.41323224782478 -3.10440390419042
 1  5.44684260556056 -1.10603108300830 -0.03497027332733
 1  5.82413385468547 -0.18046504260426 -1.30546502900290
 1  4.04595450695069  0.51323781588159 -4.12376060556056
 1  3.55273102470247  2.09335041374137 -3.47229956535654
 1  2.44656044534453  1.23755825372537 -4.68082123412341
 1  0.92727663766377  2.68691018751875 -2.76943783578358
 1 -7.05787487358736 -3.39001118501850 -0.59798882008201
 1 -7.49340760566057 -3.49675100560056 -2.51788484198420
 1  3.65908963646365  3.51291065206521  3.80071332553255
 1 -0.62618649744974  4.24122540204020 -3.11061895729573
 1 -4.01859044864486  4.76499308110811 -0.58583973547355
 1 -4.11334008370837  3.60145493909391  1.01904271567157
 1 -3.25055337153715  5.19329962106211  0.77647341724172
 1  8.37661335483548 -2.34136729092909 -0.99413004800480
 1 -1.62449537413741  6.48627908500850 -3.10153500570057
 1 -2.57611996489649  6.21623299909991 -1.39657556505651

