%nproc=4
%Mem=3GB
# td=(NStates=1) B3LYP/SVP 

TD

0 1
 8 -3.23938084828483 -1.46513156865687 -2.88893954825483
 8  3.48498895369537  2.97555921442144  2.94976924782478
 8  3.86860116831683  1.21531866016602  4.44979942354235
 8  7.77718632153215 -1.58490460466047 -0.60024078587859
 8  6.74282843924392 -2.81906270117012 -2.08335478357836
 8 -2.80301120762076  1.58449393849385  1.36048610911091
 7 -0.36200194639464 -2.43838015231523  0.93401824262426
 7 -2.58618065606561 -1.42750788578858 -0.65026717131713
 7  1.16157770717072  0.08462937263726 -0.64259919711971
 7 -1.03137228272827  1.48060346824682 -0.16680757865787
 6 -3.41560671037104 -1.34938250065007  0.66211318521852
 6 -2.63946257235724 -2.32335648184818  1.63464877167717
 6 -1.23551919361936 -2.02361017501750  1.84470245884588
 6 -0.56996679897990 -1.17194838653865  2.90493851435144
 6  0.77342845544554 -1.17804280528053  2.46421761636164
 6  0.87342002820282 -1.77915435013501  1.23410821482148
 6 -4.74367931453145 -1.72948859755976  0.19499638693869
 6  1.86246083748375 -0.38620895049505  3.20913306780678
 6 -4.76587294869487 -1.93301200960096 -1.12977331783178
 6  2.02941089748975 -1.90072826502650  0.37131941064106
 6  2.13397941984198 -0.90989290149015 -0.61248515001500
 6 -3.46489115901590 -1.48644060936094 -1.70358764216422
 6  3.03679474267427 -0.61382213051305 -1.76909080798080
 6 -1.26440501270127 -0.61476533353335  3.91083659195920
 6 -5.80871609570957 -2.15052153245325  1.16185719131913
 6  2.47856751365136  0.54074144234423 -2.43993860386039
 6  2.03345277767777  1.10562625462546  2.85919256085609
 6  1.32226559305931  0.90647729632963 -1.77897400340034
 6  4.21833718281828 -1.43719314841484 -1.96115574567457
 6 -5.93900823692369 -2.29461155155516 -1.99709315751575
 6  5.47970352135214 -0.91168291349135 -1.19177259415942
 6  3.15412550795079  1.02620102270227 -3.68191470067007
 6  0.42429485358536  1.97123227012701 -1.98975072017202
 6  3.22963160346035  1.79792937843784  3.56994233943394
 6 -0.62672650425042  2.29308394059406 -1.17797308520852
 6 -7.05355928242824 -3.08433219731973 -1.66962552125213
 6  6.63475304490449 -1.87704595969597 -1.31655234523452
 6 -1.52976163096310  3.50365259845985 -1.28402647734773
 6 -2.41007509690969  3.39199967896790 -0.22831073727373
 6 -2.14415668806881  2.11810274377438  0.44235316731673
 6 -1.33611358975898  4.45480174037404 -2.26782855085509
 6 -3.57631826832683  4.21271175407541  0.17860209990999
 6 -1.97097098829883  5.63950936913691 -2.45729946274627
 1 -3.50052854605460 -0.17843333323332  1.16794099869987
 1 -2.96648827522752 -3.26269139413941  1.25857620672067
 1 -3.15654547434743 -2.20778422282228  2.63816320502050
 1 -0.24874017881788 -2.87655642074207 -0.05263825382538
 1 -2.16768515821582 -0.64209051255126 -0.67999210161016
 1  1.82268022942294 -0.41702315611561  4.33252535163516
 1  2.86810414331433 -0.78430032133213  3.41712664206421
 1  2.81227004090409 -2.64500608350835  0.47456050925093
 1 -1.96107873717372 -1.47078635263526  4.40114717651765
 1 -0.67614738273827 -0.18339254285429  4.90092644914492
 1 -2.02991230503050  0.21027347404740  3.72564132943294
 1 -5.81469225642564 -1.37374550575058  2.08846313931393
 1 -5.88904766546655 -3.18685278987899  1.49701254755476
 1 -6.73978135493549 -1.84685032843284  0.71109747144714
 1  2.05420155955596  0.96968691059106  1.73401101240124
 1  1.23628357985799  1.67033927822782  3.20997897159716
 1  0.30021827942794  0.22353672347235 -0.02286431873187
 1  4.57023274247425 -1.58300135913591 -3.07373297519752
 1  3.94070490029003 -2.47474925412541 -1.75794290229023
 1 -5.86805894429443 -1.85500642524252 -3.07171063486349
 1  5.32191011231123 -0.69550002990299  0.11230445414541
 1  5.78507994929493 -0.08013500960096 -1.84209869236924
 1  4.27876778827883  0.49119561166117 -3.87465569506951
 1  3.35918166976698  2.27133821252125 -3.67228956435644
 1  2.88304409370937  0.90154465236524 -4.87336048804880
 1  0.66873078307831  2.60434193069307 -2.74267515951595
 1 -6.77275636173617 -3.60639282318232 -0.59400842204220
 1 -7.98792705760576 -3.20679200970097 -2.41422447594759
 1  4.03184691219122  3.36645600660066  3.40749400360036
 1 -0.50549442824282  4.19246052555255 -3.16427432283228
 1 -4.31734032363236  4.36805338713871 -0.53908506000600
 1 -4.07946669636964  3.99273406700670  1.22997380878088
 1 -3.16101441764176  5.45348563966397  0.33831960186019
 1  8.60963665716572 -2.01939509370937 -0.89718035303530
 1 -1.86672959755976  6.28056851395139 -3.30587543974397
 1 -2.88059041194119  5.95054643044304 -1.79519542704270

