%nproc=4
%Mem=3GB
# td=(NStates=1) B3LYP/SVP 

TD

0 1
 8 -3.37839474967497 -1.59272432793279 -2.87555821012101
 8  3.19393984878488  3.09208086658666  3.20089436033603
 8  3.72192650085009  1.21255838413841  4.34247869146915
 8  7.67747635053505 -1.76722283648365 -0.47835859765977
 8  6.78809296569657 -2.78307910281028 -2.31763821192119
 8 -2.70721162766277  1.69929541864186  1.45228528902890
 7 -0.35200094629463 -2.37444375867587  0.85818065886589
 7 -2.79846188418842 -1.24339947494749 -0.60751289588959
 7  1.13157470687069  0.18659956965697 -0.73789872707271
 7 -0.99570871637164  1.49927533543354 -0.23513441134113
 6 -3.44295944564456 -1.37849541194119  0.71186816071607
 6 -2.71063969006901 -2.34836898309831  1.66357166396640
 6 -1.28491413311331 -1.94740255425543  1.72172016061606
 6 -0.60450025232523 -1.22755394709471  2.75203322382238
 6  0.77286839943994 -1.16495149614962  2.40980217481748
 6  0.89134182038204 -1.83054948964896  1.21129593359336
 6 -4.84134908150815 -1.93674932363236  0.25646253355336
 6  1.87563215461546 -0.36239656925693  3.11483363786379
 6 -4.88839520092009 -2.24300300870087 -1.02453279377938
 6  2.05336329272927 -1.92733092529253  0.16794907360736
 6  2.06574259615962 -0.90590250245025 -0.68767266876688
 6 -3.66687135703570 -1.65250721602160 -1.64376165956596
 6  2.98393945714571 -0.67150789908991 -1.74210810971097
 6 -1.23428200040004 -0.34691854885489  3.88580408870887
 6 -5.91628685278528 -2.10797727802780  1.33503450905091
 6  2.62895255215522  0.55444281248125 -2.42541715171517
 6  1.95326475887589  1.10208590059006  2.81683832543254
 6  1.47865123162316  1.09174582318232 -1.78870497649765
 6  4.29683503260326 -1.43990341944194 -2.05421505160516
 6 -5.92495683178318 -2.85153724412441 -2.00260370857086
 6  5.45413096409641 -1.21253299849985 -1.03976739363936
 6  3.30037013241324  1.16996539913991 -3.57879438863886
 6  0.58149057315732  2.18865401230123 -1.98174992009201
 6  3.06349498979898  1.82696228172817  3.55172051725172
 6 -0.52027585918592  2.29988462066207 -1.20597588548855
 6 -6.91102502900290 -3.55717948204821 -1.53741229992999
 6  6.66556612621262 -1.98816707180718 -1.41111180118012
 6 -1.36951560636064  3.55176740994099 -1.29007708240824
 6 -2.26534062346235  3.48832931193119 -0.21742964916492
 6 -2.12599487188719  2.17878881238124  0.41241017301730
 6 -1.19306928532853  4.69424568476848 -2.27548931693169
 6 -3.39003964046405  4.42405288818882  0.17142138183818
 6 -1.79766365756576  5.95890130833083 -2.26868060086009
 1 -3.75706419961996 -0.39257474737474  1.04462866746675
 1 -2.65299692609261 -3.19714483948395  1.36630697979798
 1 -3.04836465626563 -2.12968641304130  2.51155054375438
 1 -0.58052335713571 -2.87957672277228  0.00604761476148
 1 -2.27700609030903 -0.59596590009001 -0.79214331673167
 1  1.94247220862086 -0.72072352615261  4.14214631373137
 1  2.86542387528753 -0.80040193149315  2.82054698409841
 1  2.92439125302530 -2.80398198109811  0.31420447364737
 1 -1.94593722302230 -0.90797007100710  4.34741180298030
 1 -0.55649541754175 -0.02272647624763  4.61749810631063
 1 -1.71711102490249  0.59014146084608  3.43710247554755
 1 -5.97995878307831 -1.40823895509551  2.21638593159316
 1 -5.73035179587959 -2.90647475207521  1.98717156345635
 1 -7.02399977677768 -2.09430507390739  0.66377273897390
 1  2.31816795619562  1.16127606950695  1.78013562486249
 1  1.17613756525653  1.88724096839684  2.87584555825583
 1  0.13314157175718  0.29348371817182 -0.40644267656766
 1  4.58647436663666 -1.19638269726973 -3.09799540144014
 1  4.06031686148615 -2.49181096029603 -2.05853296129613
 1 -5.81389352775278 -2.36125705030503 -3.01520498429843
 1  5.16612453375338 -1.32204268416842  0.05841906560656
 1  5.62112355365536 -0.07934493059306 -0.96730121262126
 1  4.03371328282828  0.41307779987999 -4.29100733023302
 1  3.83241899349935  2.01312239093909 -3.39377171257126
 1  2.44567035633563  1.64705920382038 -4.26714986698670
 1  0.90620453045305  2.87963946044604 -2.69936082808281
 1 -6.76865595169517 -4.07306949084909 -0.43167218841884
 1 -7.56076434133413 -4.06592792329233 -2.44470752425243
 1  3.87265099259926  3.66992635363536  3.61228448264827
 1 -0.42467634643464  4.51100237973797 -2.97393528892889
 1 -3.96363495309531  4.74074065586559 -0.62838398989899
 1 -3.91418016771677  3.90792558615862  0.96099691109111
 1 -3.00601891809181  5.35807609870987  0.43780955085509
 1  8.43439913341334 -2.20371352555256 -1.02946358135814
 1 -1.33399632423242  6.61746220332033 -3.12773762596260
 1 -2.41292364526453  6.39526090189019 -1.51624753225323

