%nproc=4
%Mem=3GB
# td=(NStates=1) B3LYP/SVP 

TD

0 1
 8 -3.07620453065307 -1.34320937643764 -2.84724537883788
 8  3.07426788158816  3.12072373087309  3.45186945784578
 8  3.67492180038004  1.36187331563156  4.57701214481448
 8  7.66383498639864 -1.71853796799680 -0.70557131893189
 8  6.69531368776878 -2.91248204310431 -2.30360680878088
 8 -2.74736564306431  1.68644413351335  1.42352241274127
 7 -0.26359210541054 -2.58909522382238  0.87553239403940
 7 -2.72512455045505 -1.15306044104410 -0.63943608820882
 7  1.11383293269327  0.09611052075208 -0.71462639983998
 7 -1.04404354985499  1.48941434933493 -0.23342424032403
 6 -3.36638178787879 -1.36341390379038  0.59871684558456
 6 -2.61919054515451 -2.39707385358536  1.50272557935794
 6 -1.17626326802680 -2.17857567156716  1.79909789838984
 6 -0.47940774307431 -1.27482867456746  2.80597861836184
 6  0.85107622022202 -1.10989599059906  2.39010020462046
 6  0.97760044624462 -1.91733816851685  1.22140694469447
 6 -4.75318026462646 -1.77069271797180  0.35917280458046
 6  1.85098969036904 -0.27924825442544  3.15870802530253
 6 -4.79900626202620 -2.04653336173617 -1.08264860536054
 6  2.01522947934793 -1.87917610981098  0.26274855355536
 6  2.02065808770877 -0.87897981018102 -0.63339724122412
 6 -3.45839050895089 -1.51847381268127 -1.72427971137114
 6  3.04155521872187 -0.68520926922692 -1.69076297519752
 6 -1.33226179837984 -0.53324718171817  3.82526803510351
 6 -5.67335255935594 -1.96185266556656  1.41657266286629
 6  2.65226488338834  0.47707507570757 -2.40269487948795
 6  1.93770320272027  1.13267895989599  2.86530317191719
 6  1.39968333483348  1.00086673527353 -1.76926303230323
 6  4.18436378547855 -1.52161159025903 -1.93160279037904
 6 -5.87001133723372 -2.53865595599560 -1.87306075427543
 6  5.45395094609461 -1.15355710091009 -1.29454287118712
 6  3.28911900730073  1.23192159475948 -3.56976348554855
 6  0.51083350745074  1.98066321322132 -1.96896864196420
 6  2.99438807910791  1.87533711921192  3.70836618181818
 6 -0.66517034863486  2.22323695589559 -1.26860214811481
 6 -6.99450337683768 -3.25667943204320 -1.50249880858086
 6  6.66147571717172 -2.01312956805681 -1.49912060206021
 6 -1.54552320712071  3.47681991519152 -1.39073714841484
 6 -2.41303539293929  3.41978245724572 -0.37070497669767
 6 -2.13107537993799  2.11369230273027  0.41409034103410
 6 -1.32862284068407  4.52011827202720 -2.42766453445345
 6 -3.46979761626163  4.24936541944194  0.07360159985999
 6 -1.83529742094209  5.76255167336734 -2.33619735253525
 1 -3.26894538773877 -0.30624611451145  1.15275948054805
 1 -2.71277290369037 -3.41439656465647  0.93929427852785
 1 -2.96436625642564 -2.73767721212121  2.49317870657066
 1 -0.33189849464946 -3.07697646274627 -0.04326731673167
 1 -2.07501589128913 -0.39040534403440 -0.57436153855386
 1  1.64253221462146 -0.21699315311531  4.23727582668267
 1  2.68525585848585 -0.79834172547255  2.90247517691769
 1  2.99222803670367 -2.53620520342034  0.32418547174717
 1 -2.00794342364236 -1.29981925592559  4.31303836563656
 1 -0.72183195119512 -0.37372157575758  4.67403375987599
 1 -1.70520983478348  0.39649209590959  3.26637540284028
 1 -5.41368215541554 -1.12333046424642  2.04060835383538
 1 -5.69703846454645 -2.94976908150815  1.80849369566957
 1 -6.73410078687869 -1.82914855825583  1.04965132683268
 1  2.18565470487049  1.24746468836884  1.78831644294429
 1  1.13432338383838  1.79999224352435  3.05609358305831
 1  0.29891814941494  0.22605697549755 -0.10940297259726
 1  4.34403012221222 -1.46915997499750 -3.11608721062106
 1  3.93987481728173 -2.56111789098910 -1.74755186318632
 1 -5.79242138053805 -2.22338326292629 -2.84473793759376
 1  5.32310023132313 -1.24420490039004 -0.32389916621662
 1  5.60349179047905 -0.08388538463846 -1.62305678817882
 1  3.88880879237924  0.58592508460846 -4.03624185368537
 1  3.58164391599160  2.15613669236924 -3.12206454185419
 1  2.40331612091209  1.66691118901890 -4.33037618961896
 1  1.06513042304231  2.49279077557756 -2.74044493649365
 1 -7.04431351745175 -3.45686787068707 -0.43541256245625
 1 -7.59724798969897 -3.65007633813381 -2.12709576307631
 1  3.89889361686169  3.40730009100910  3.85832908710871
 1 -0.73881776057606  4.37937921742174 -3.25583347874787
 1 -4.16859544914491  4.55526210801080 -0.86495764726473
 1 -3.95350410011001  3.74096889048905  0.85000581198120
 1 -3.40220853705371  5.33527381848185  0.60001577147715
 1  8.27104279777978 -2.41343449764976 -1.09751038603860
 1 -1.51334425902590  6.46072652975298 -3.21318617081708
 1 -2.37124947784779  6.22845422122212 -1.51402731023102

