%nproc=4
%Mem=4GB
# td=(NStates=1) B3LYP/SVP 

TD

0 1
 8 -5.24129035903590  0.31994743434343 -3.29401919161916
 8  3.06297630313031  2.85209246394639  2.99896597499750
 8  3.33703205180518  0.64751015001500  3.01721360646065
 8  1.65355299479948 -7.27089335943594  1.45429393569357
 8  0.55609049704970 -6.98233465706571 -0.44924290719072
 8  1.55317236533653  3.98079120192019 -0.02299279187919
 7 -2.36587619871987 -1.16730516071607  0.79539655625563
 7 -4.27215209660966  0.62657032353235 -1.22276063086309
 7  1.87436782838284 -0.74123569656966 -0.34108258585859
 7  2.43761930383038  1.91988773427343 -0.61618836553655
 6 -4.72224861606161  1.14728622562256  0.05713151295130
 6 -4.31464885768577  0.26492665796580  1.30822818051805
 6 -2.89439453505351 -0.02827257055706  1.48723073607361
 6 -1.98331742844284  0.65197015421542  2.14028719831983
 6 -0.70716732703270 -0.10860629612961  1.82033271087109
 6 -0.99545373317332 -1.00994405330533  0.94769658905891
 6 -6.23748610471047  1.34954274357436 -0.16819203460346
 6  0.55844445104510  0.12834351085109  2.51259027912791
 6 -6.59344985948595  0.99407865626563 -1.54726045474547
 6 -0.14675093119312 -1.98619735663566  0.26171825332533
 6  1.11948884508451 -1.89627917451745 -0.18620020222022
 6 -5.26244684498450  0.51312952765277 -2.13912122362236
 6  2.06672075727573 -2.92380291869187 -0.85006201550155
 6 -2.08313401430143  1.62048780568057  3.31350574077408
 6 -7.02035952915292  1.94467259645965  0.89687367326733
 6  3.25100143384338 -2.35271522272227 -1.28623986908691
 6  1.08222424972497  1.50953944734473  2.52762639853985
 6  3.06976505180518 -0.90539916551655 -0.97834182238224
 6  1.66570034023402 -4.32160812521252 -0.89936165306531
 6 -7.89565547154716  0.99422105970597 -2.06707509530953
 6  1.68535610121012 -5.14096503110311  0.42727872337234
 6  4.46733234223422 -2.97694616341634 -2.05297452875288
 6  3.89272014261426  0.14349375287529 -1.37118180058006
 6  2.56706732793279  1.57577516571657  2.95183108300830
 6  3.60795517331733  1.57563297479748 -1.12907947524752
 6 -9.04050903430343  0.93503566386639 -1.46177099239924
 6  1.24701976667667 -6.47029367956796  0.42002066106611
 6  4.49429826442644  2.67654440934093 -1.46135321842184
 6  3.67362663106311  3.80354087778778 -1.16053734803480
 6  2.45759733053305  3.30362821392139 -0.54119288198820
 6  5.75211881718172  2.49988482908291 -1.97298925402540
 6  4.01155677547755  5.30880575637564 -1.33807582098210
 6  6.61820187778778  3.55821150595060 -2.40116459335934
 1 -4.31305579167917  2.20992207230723  0.08338137843784
 1 -4.84954961186119 -0.59751122722272  1.14516926112611
 1 -4.68579541944194  0.89774377407741  1.97840475017502
 1 -2.75402444234423 -1.54923231873187 -0.04302122392239
 1 -3.45258625592559  1.08556047314731 -1.73944149504950
 1  0.63765820052005 -0.34695438343834  3.48242779087909
 1  1.32989699909991 -0.50535520292029  1.98967410021002
 1 -0.73490215111511 -3.07069453445345  0.19143414571457
 1 -2.91213135843584  1.58443970807081  3.59958994869487
 1 -1.38087930303030  1.22184154805481  4.16078446634664
 1 -1.72042842394239  2.54523834363436  3.01166858865887
 1 -6.43183663456346  2.57932673617362  1.38157039003900
 1 -7.64599436643664  1.17099690889089  1.45211222192219
 1 -7.74565050225022  2.70386646974697  0.23762224242424
 1  1.06827953635364  2.02552458905891  1.39158722602260
 1  0.64949806230623  2.25875269726973  3.05260108430843
 1  1.61334566096610  0.30454109910991 -0.25804116941694
 1  2.26520431263126 -4.68341217161716 -1.68884349404940
 1  0.55990778827883 -4.27584743224322 -1.23751223462346
 1 -7.79201026282628  1.11043127372737 -3.12256819501950
 1  1.08925111401140 -4.73518469816982  1.19695727232723
 1  2.80242651275128 -5.13235043954395  0.89491730663066
 1  4.21775683798380 -4.12578003020302 -2.18072153325333
 1  5.37958905730573 -2.81847069726973 -1.40634425202520
 1  4.43633506660666 -2.65204743734373 -3.14678375197520
 1  4.83269288878888 -0.24971706620662 -1.63786996269627
 1 -8.97380098059806  0.78586604210421 -0.27386007580758
 1 -10.04501263486349  0.90786220192019 -2.01996809680968
 1  4.01158584508451  2.82692607630763  2.96635140084008
 1  6.17901136933693  1.39623177237724 -2.01016983198320
 1  4.97870857065707  5.60534329852985 -0.80554917481748
 1  4.02067408990899  5.74390115581558 -2.28149069396940
 1  3.02108977857786  5.72920252665267 -1.02316405800580
 1  1.30697800590059 -8.18510966806681  1.39072512741274
 1  7.59987243164316  3.06733227312731 -2.78503577687769
 1  6.23681556905691  4.52494800700070 -2.62054440694069

