%nproc=4
%Mem=3GB
# td=(NStates=1) B3LYP/SVP 

TD

0 1
 8 -3.18608551875188 -1.46206126162616 -2.85258591289129
 8  2.77242769756976  3.34921658015802  3.06326059695970
 8  3.81791609980998  1.55399252755276  4.14406885048505
 8  7.81009961286129 -1.49969608380838 -0.90468122992299
 8  6.57988214461446 -3.09982077697770 -1.89572602070207
 8 -2.82448335483548  1.53334882398240  1.21392145264526
 7 -0.25239098529853 -2.47853416771677  0.94606944774477
 7 -2.73468550655066 -1.17679281428143 -0.62312445704570
 7  1.13872542194219  0.06499740944094 -0.76127106430643
 7 -1.10594974047405  1.38564397229723 -0.36934783268327
 6 -3.35942109180918 -1.32723028542854  0.76332330623062
 6 -2.62934156025603 -2.41277542374237  1.60648595539554
 6 -1.23202884458446 -2.06931474547455  1.82685067366737
 6 -0.57688749104910 -1.21238242994299  2.76885490599060
 6  0.84238535113511 -1.20650565156516  2.45352654725473
 6  0.99698238443844 -1.98615505020502  1.28084288828883
 6 -4.68639358595860 -1.86070171887189  0.18304519181918
 6  1.74945953735374 -0.36490682028203  3.18912106660666
 6 -4.90943730513051 -1.99618832723272 -1.14967530803080
 6  2.07321527792779 -1.91199939213921  0.30963324202420
 6  2.09220524242424 -0.91583349554955 -0.61727562906291
 6 -3.56806147604760 -1.59471143644364 -1.68372565596560
 6  3.00267133033303 -0.67023777207721 -1.70770466936694
 6 -1.23165173737374 -0.56445030203020  3.84047955625563
 6 -5.72003722782278 -2.18939541984198  1.34195520112011
 6  2.63872352925293  0.47622499069907 -2.35808041804180
 6  1.69817925032503  1.12646833883388  2.82583922552255
 6  1.32414578107811  0.92770941954195 -1.72011811781178
 6  4.21278662776278 -1.52967239633963 -1.98820845094509
 6 -5.89822415851585 -2.54722681308131 -2.01174462266227
 6  5.45815136613661 -1.17182892809281 -1.20519393629363
 6  3.18119821522152  1.15814421702170 -3.57544405360536
 6  0.61332375647565  2.09332447934793 -2.07074881998200
 6  2.96271491179118  1.99464905040504  3.43157850305030
 6 -0.61612544414441  2.28580321252125 -1.37341262916292
 6 -7.00934486098610 -3.19540330443044 -1.58968752745275
 6  6.59516908650865 -2.05530378547855 -1.42627331733173
 6 -1.31801045584558  3.54541677487749 -1.16227430213021
 6 -2.22573666306631  3.39319979897990 -0.20751865806581
 6 -2.05291756415642  2.03353428692869  0.32119105110511
 6 -0.94681465986599  4.79322558275828 -1.92130389838984
 6 -3.20455109160916  4.35157564046405  0.45571981168117
 6 -1.86179007020702  5.74271969016902 -2.14516824962496
 1 -3.42176066926693 -0.43884937483748  1.25963016761676
 1 -2.66748837523752 -3.39393451845185  1.15914626372637
 1 -3.32846266606661 -2.52592603700370  2.67778716741674
 1 -0.48659396419642 -2.70894966006601 -0.01960495049505
 1 -2.14222261196120 -0.36450275377538 -0.60672477487749
 1  1.51596955835584 -0.42115356915692  4.26145824492449
 1  3.00716804970497 -0.81031292259226  3.12069699909991
 1  2.90197901180118 -2.83085466836684  0.42706575977598
 1 -2.00027265656566 -1.09197847184718  4.19532659445945
 1 -0.46375614361436 -0.41886609020902  4.67511386788679
 1 -1.76531584538454  0.35207765446545  3.51644040934093
 1 -5.51101188838884 -1.78177630883088  2.33712800580058
 1 -5.75946470717072 -3.29251335593559  1.51845469176918
 1 -6.65963334013401 -2.03874951835184  0.93162952465247
 1  1.76975311471147  1.44416435833583  1.83116072737274
 1  0.82572252375238  1.73193543784378  3.18517649134914
 1  0.20628888648865  0.09308367816782 -0.36453848614861
 1  4.44968068726873 -1.57042010101010 -3.15812141404140
 1  3.95528635843584 -2.55202698189819 -1.76335344334433
 1 -5.62934507290729 -2.60178110271027 -3.18006146994699
 1  5.14630255155516 -1.31038151805180 -0.14973174947495
 1  5.66716815811581 -0.11854885098510 -1.51453593609361
 1  3.83488339983998  0.49473596569657 -4.11635986548655
 1  3.70231598319832  2.14054513321332 -3.21141347674767
 1  2.26035182448245  1.68616311421142 -4.32092524452445
 1  1.23122703270327  2.87139863636364 -2.72207309930993
 1 -7.34679376547655 -3.20740292419242 -0.57650667186719
 1 -7.58564682958296 -3.63737506800680 -2.34988804230423
 1  3.72042577007701  3.59696905790579  3.37648090229023
 1  0.15956207740774  4.90532181168117 -2.42733062846285
 1 -4.10676926652665  4.33675025682568 -0.14321547304730
 1 -3.70858960866087  3.96125091869187  1.27715852725273
 1 -2.85616393259326  5.32387267836784  0.68748451835184
 1  8.46945263876388 -2.27785093929393 -0.91723235823582
 1 -1.54596752135214  6.63439389648965 -2.59890474267427
 1 -3.03964631753175  5.58576995279528 -1.70689659715972

