%nproc=4
%Mem=3GB
# td=(NStates=1) B3LYP/SVP 

TD

0 1
 8 -3.12692960316032 -1.30300535603560 -2.83846450075007
 8  2.77572802760276  3.23568522702270  3.36937120802080
 8  3.63461776997700  1.62302943124312  4.55370981458146
 8  7.69586818971897 -1.52314842904290 -1.01138189999000
 8  6.65675983238324 -3.01003179807981 -2.31618806690669
 8 -2.58968987548755  1.53618910801080  1.48625868636864
 7 -0.20595634183418 -2.50271658595860  1.02096693749375
 7 -2.46308834683468 -1.36438157315732 -0.63896604120412
 7  1.15005655505551  0.02898380808081 -0.67162209940994
 7 -0.91067021252125  1.54225963386339 -0.06984788268827
 6 -3.21665681538154 -1.38381594399440  0.62631960586059
 6 -2.62373099919992 -2.43879802600260  1.59503481028103
 6 -1.20137577927793 -2.07135494949495  1.84211219981998
 6 -0.55770557285729 -1.13490468216822  2.81226924742474
 6  0.81928304090409 -1.10204520552055  2.53121431603160
 6  0.97829051525153 -1.85726216091609  1.26783158715872
 6 -4.61756670327033 -1.74239988868887  0.26106299359936
 6  1.87840243164316 -0.43674400400040  3.31570372487249
 6 -4.71228759015902 -2.01288999739974 -1.05047538803880
 6  2.11090904730473 -1.88987717991799  0.35351763046305
 6  2.06886290819082 -0.97184909710971 -0.69337323882388
 6 -3.34554922482248 -1.45603756905691 -1.69545682908291
 6  2.93848491169117 -0.78045879417942 -1.75490938983898
 6 -1.39536810901090 -0.44458831583158  3.84228973727373
 6 -5.75095031913191 -1.89366584688469  1.31894289988999
 6  2.62438209510951  0.36055342354235 -2.45295990599060
 6  1.86036546894689  0.97718341034103  2.93167980958096
 6  1.39382274877488  0.87668431703170 -1.70706681268127
 6  4.13566891599160 -1.67747717681768 -2.04502413251325
 6 -5.77634197029703 -2.26795888628863 -2.00334378257826
 6  5.36076162716272 -1.20330207540754 -1.30613403030303
 6  3.20492058745875  1.07257566016602 -3.65837234643464
 6  0.50770319441944  1.94958010491049 -2.02015376047605
 6  2.74534317461746  1.94402398789879  3.76886223142314
 6 -0.60331416301630  2.26431106330633 -1.16588187608761
 6 -6.95914984148415 -2.97831159525953 -1.81787034573457
 6  6.59185875547555 -1.98189644474447 -1.64763545354535
 6 -1.48338699349935  3.42167440064006 -1.34886296099610
 6 -2.39951404080408  3.28311879087909 -0.22760066626663
 6 -1.97783005540554  2.01493242674267  0.53818275027503
 6 -1.43105308370837  4.44093035323532 -2.41348311631163
 6 -3.46783742024202  4.23778426132613  0.22046628632863
 6 -1.89950384158416  5.74471989018902 -2.43803753655366
 1 -3.39122761596160 -0.50972646254625  1.07907211181118
 1 -2.66468809520952 -3.39144426942694  1.13067341644164
 1 -3.08260808060806 -2.56659010341034  2.65534492319232
 1 -0.48843414821482 -2.87125589068907  0.11823883388339
 1 -1.84551294099410 -0.59106541004100 -0.70134423682368
 1  1.62290025142514 -0.40384183798380  4.41673377247725
 1  2.84136146904690 -0.94142603390339  3.26513144254426
 1  2.76277509140914 -2.74755633853385  0.37397045024502
 1 -1.89740236953695 -1.37422669666967  4.25410247204721
 1 -0.79350911891189 -0.04675887948795  4.57106346284629
 1 -2.01602091589159  0.33148559525953  3.42696146144614
 1 -5.51225201240124 -1.28967709890989  2.28486277927793
 1 -5.79687844854485 -2.98725282988299  1.61806465276528
 1 -6.63744112091209 -1.70894653805381  0.85423178487849
 1  2.08067420682068  1.27359730163016  1.88732634393439
 1  0.80946089758976  1.50283252755276  2.98149612331233
 1  0.45132338993899  0.38026239603960  0.03543151085109
 1  4.44509022822282 -1.68664172317232 -3.06599220112011
 1  4.04297512731273 -2.61174295349535 -1.82558966696670
 1 -5.63043518191819 -2.20737166176618 -3.01937540134013
 1  5.28075599689969 -1.01293177307731 -0.37924470077008
 1  5.72176361766177 -0.12530952705270 -1.42791727422742
 1  4.03445335683568  0.44061055315532 -3.89402763226323
 1  3.39468522012201  2.01934301300130 -3.26708904430443
 1  2.35388117741774  0.99753425132513 -4.46409956195620
 1  0.73963787378738  2.48457995449545 -2.96222711471147
 1 -7.20846993309331 -3.47168935283528 -0.85856487768777
 1 -7.52516078097810 -3.06281761226123 -2.78611166466647
 1  3.51150487798780  3.78211757275728  3.79009226342634
 1 -0.68919279807981  4.19756103560356 -3.34428232363236
 1 -4.04240282988299  4.67747432923292 -0.81174232573257
 1 -4.09973872357236  3.43616841044104  1.02056286768677
 1 -3.21061937813781  5.04901519261926  0.85774154405441
 1  8.43341903540354 -2.06476963116312 -1.11273190819082
 1 -1.60060298489849  6.41893235033503 -3.49479433163316
 1 -2.36207856075608  6.37245862166217 -1.42654856235624

