%nproc=4
%Mem=3GB
# td=(NStates=1) B3LYP/SVP 

TD

0 1
 8 -3.43573048324832 -1.30001505700570 -2.86562721702170
 8  3.08788924372437  3.21714337283728  3.05005927682768
 8  3.69602391059106  1.57720484878488  4.28523296689669
 8  7.79215781868187 -1.49182529672967 -1.03606436823682
 8  6.65352950935093 -3.04370516541654 -2.08756520462046
 8 -2.61354226072607  1.64807029612961  1.45064512501250
 7 -0.31427717391739 -2.40962727702770  0.97344218501850
 7 -2.79987202520252 -1.18834396939694 -0.56993913851385
 7  1.27241879127913  0.14516542624262 -0.56348128532853
 7 -0.98743788928893  1.36228163606361 -0.21641253915392
 6 -3.42111726142614 -1.35075263766377  0.70867784168417
 6 -2.64399302540254 -2.42864701090109  1.57132243904390
 6 -1.24842048374837 -2.11891970597060  1.84630261886189
 6 -0.61804160646065 -1.32080327202720  2.80681870237024
 6  0.74778589118912 -1.12038703970397  2.50233142774277
 6  0.96628931513151 -1.89700613531353  1.25245004900490
 6 -4.84500944754475 -1.87171281998200  0.35156204350435
 6  1.86459105050505 -0.37874820442044  3.13891604610461
 6 -4.92365872727273 -1.91973068146815 -1.06875721622162
 6  2.04124208060806 -1.94918311051105  0.31447372607261
 6  2.06928295019502 -1.00932284448445 -0.58272217371737
 6 -3.54438910881088 -1.37533949924993 -1.64443172657266
 6  3.01598266146615 -0.73242399069907 -1.71292519141914
 6 -1.53534210641064 -0.49647350435044  3.78898440674067
 6 -5.79375459955996 -2.28619509980998  1.28897990359036
 6  2.70061971887189  0.47447481568157 -2.23379798979898
 6  1.89888932133213  1.06072176417642  2.62638928052805
 6  1.53860722722272  0.99151580018002 -1.62009811581158
 6  4.23980933003300 -1.59745917501750 -1.91633126322632
 6 -5.80199453555355 -2.51863395379538 -2.11301474967497
 6  5.40657620862086 -1.08559030423042 -1.35422883978398
 6  3.43462355775578  1.16016441904190 -3.40980748994899
 6  0.64515693979398  2.00078522542254 -1.89038078317832
 6  2.96814545484548  1.85569515501550  3.34406975217522
 6 -0.55365919751975  2.31609624182418 -1.10651593949395
 6 -6.94653858035804 -3.23167693179318 -1.75987454615462
 6  6.68489805940594 -2.01285954105411 -1.55554624462446
 6 -1.37649630443044  3.52992522572257 -1.15704377907791
 6 -2.29661375077508  3.45492597159716 -0.25813371957196
 6 -2.04570684308431  2.06167710121012  0.46169510151015
 6 -1.14664464286429  4.57814407460746 -2.13275504350435
 6 -3.40436107260726  4.32325280818082  0.25898013771377
 6 -2.09990388158816  5.57629304750475 -2.49498323112311
 1 -3.40171866506651 -0.46374186408641  1.20503470807081
 1 -2.71425305170517 -3.34425955095509  1.17537788688869
 1 -3.36724654445445 -2.58415185958596  2.44100348904891
 1 -0.48258356315632 -2.91530029512951  0.17696470647065
 1 -2.09691808150815 -0.40437674117412 -0.68450255265527
 1  1.70392835423542 -0.16895834963496  4.26737883698370
 1  2.84920225312531 -0.81299319061906  3.09721465086509
 1  2.70892970687069 -2.76779836273627  0.20789384258426
 1 -2.32825545484548 -1.08402767676768  4.19116617841784
 1 -1.09158892689269 -0.23611781538154  4.90642699919992
 1 -1.88159747354735  0.35916836353635  3.51627039233923
 1 -5.77793858105811 -1.69067719891989  2.16224051705170
 1 -5.32629138983898 -3.39211331593159  1.59923276957696
 1 -6.86981435823582 -2.20228587198720  0.91542790449045
 1  2.02251839123912  1.04394433633363  1.61452906420642
 1  1.07618757025703  1.84491673597360  2.85596357005701
 1  0.40032829042904  0.29817418721872 -0.11984401670167
 1  4.54367008620862 -1.53065612461246 -2.99081468336834
 1  4.01468229802980 -2.63735551475148 -1.70764787278728
 1 -5.50442258065807 -2.41360228482848 -3.13757722152215
 1  5.54020194149415 -1.19402988288829 -0.07680445674568
 1  5.63440488178818 -0.04331132723272 -1.43793827632763
 1  4.00023993549355  0.45216170827083 -3.95038326782678
 1  4.36003175477548  1.78976005470547 -2.97112944834483
 1  2.63394918421842  1.62463696159616 -4.00877402940294
 1  1.06529043904390  2.77041853835384 -2.60332122412241
 1 -7.31610069616962 -3.52495467936794 -0.81951097229723
 1 -7.49978824372437 -3.41613294379438 -2.56159921342134
 1  3.52634636213621  3.59310867186719  3.80434368856886
 1 -0.21252513131313  4.55170645014501 -2.75514340974097
 1 -4.30785937553755  4.37112369416942 -0.51310246174617
 1 -4.01000975067507  3.98835362896290  1.08618943034303
 1 -2.97095541174117  5.39706999809981  0.41866763666367
 1  8.50996669016902 -2.08165131933193 -0.79639027402740
 1 -1.89466239083908  6.32344280138014 -3.24112896509651
 1 -3.16834918781878  5.58821019681968 -1.76575248274827

