%nproc=4
%Mem=3GB
# td=(NStates=1) B3LYP/SVP 

TD

0 1
 8 -3.29320623082308 -1.33920897639764 -2.78182883718372
 8  2.98317877267727  3.14327598609861  3.14545881678168
 8  3.77430173837384  1.37830495879588  4.27572201580158
 8  7.78260686358636 -1.37343345754575 -0.84736549834983
 8  6.52282643904390 -3.07959875477548 -1.76885333343334
 8 -2.59981088758876  1.56659214831483  1.34892495299530
 7 -0.26305205140514 -2.46998331263126  0.81700654145415
 7 -2.73222526052605 -1.31617675267527 -0.65485763036304
 7  1.14603615301530  0.11041195089509 -0.70582551975198
 7 -0.94300344584458  1.42367777567757 -0.21730262816282
 6 -3.42714786448645 -1.30406796919692  0.66155312921292
 6 -2.65758438453845 -2.28910305650565  1.53891919871987
 6 -1.18727436913691 -2.11678949294930  1.76742473107311
 6 -0.58345814811481 -1.25317650935094  2.76830485098510
 6  0.76302741534153 -1.17200220122012  2.45553674827483
 6  1.00960364656466 -1.86460289498950  1.24275907990799
 6 -4.86213115971597 -1.88408405710571  0.30814770207021
 6  1.80954554595460 -0.34936526612661  3.19808196269627
 6 -4.89047540894089 -1.93816252465247 -1.05403574407441
 6  2.17055501190119 -1.85052324452445  0.27629990869087
 6  2.10651667356736 -0.93480539273927 -0.71922582408241
 6 -3.58549321922192 -1.48532049734974 -1.63743102650265
 6  2.96496755995600 -0.65863661196120 -1.87838173707371
 6 -1.26811538373837 -0.67904176117612  3.97854336263626
 6 -5.77899312341234 -2.22322880318032  1.43652465806581
 6  2.60540019691969  0.51760912911291 -2.37593220322032
 6  1.83388282068207  1.09385507750775  2.89679632123212
 6  1.43971733823382  0.87571422002200 -1.77357346334633
 6  4.17872322142214 -1.50593002210221 -2.08463809390939
 6 -5.98778311441144 -2.29595168556856 -1.98411185938594
 6  5.45502105310531 -1.00977272247225 -1.22157557445745
 6  3.32129222462246  1.10847925052505 -3.56387289648965
 6  0.49707213131313  1.94989013591359 -2.00465221032103
 6  2.93740238053805  1.83940352585259  3.46262160736074
 6 -0.57657148874887  2.27350198239824 -1.27572286018602
 6 -6.93150707720772 -3.29554331843184 -1.61485004370437
 6  6.62922249184918 -1.87747600270027 -1.33392408240824
 6 -1.42652130693069  3.51735396859686 -1.22283035773577
 6 -2.33288737813781  3.41555203420342 -0.30759866606661
 6 -1.91017328972897  2.08112904640464  0.43581251325133
 6 -1.21718169656966  4.60266652685269 -2.22383415141514
 6 -3.39920055655566  4.26625710861086  0.17360159985999
 6 -1.83146703790379  5.82164758295830 -2.33862759555956
 1 -3.62104059725973 -0.32545803570357  1.13703790839084
 1 -2.87341896829683 -3.31990711571157  1.11850219931993
 1 -2.90499031883188 -2.33856730113011  2.52912230093009
 1 -0.40678598339834 -2.99262802790279 -0.12052504250425
 1 -2.09291768146815 -0.41679798329833 -0.60839494189419
 1  1.97098505990599 -0.55149660346035  4.34711681078108
 1  2.78114544744474 -0.62488437973797  2.98107303670367
 1  2.88777759165917 -2.82243382628263  0.18315136833683
 1 -2.07111974127413 -1.19967924192419  4.39460652245225
 1 -0.86818658665867 -0.42485668926893  4.98404476097610
 1 -1.60254956875688  0.24437688438844  3.85206397169717
 1 -5.84749553675367 -1.34690282148215  2.27302159515952
 1 -5.47148590929093 -3.24067817241724  1.76026887318732
 1 -6.85065244204420 -2.25051069446945  0.92660902260226
 1  1.86339247864786  1.23583352525252  1.80449806110611
 1  0.91684163566357  1.67879012331233  3.08617659135914
 1  0.31857011461146  0.47737210701070 -0.23594562686269
 1  4.41577729692969 -1.31196425542554 -3.09834543644364
 1  4.34958578837884 -2.52378415761576 -1.90690779877988
 1 -6.01898403680368 -2.27370829542954 -3.08305176897690
 1  5.05770369166917 -0.91908238813881 -0.15171194749475
 1  5.54802624392439  0.03323632753275 -1.28832331483148
 1  3.96952686418642  0.29737622972297 -3.98697692719272
 1  3.78632438403840  1.92636371507151 -3.21226356175618
 1  2.50945673497350  1.24816931483148 -4.50058321032103
 1  0.71256516651665  2.36211770827083 -2.90102099409941
 1 -7.06811589768977 -3.83011519541954 -0.86121514271427
 1 -7.52024028892889 -3.75811714221422 -2.49751280478048
 1  3.92954668216822  3.39636899789979  3.61799505370537
 1 -0.43535741454145  4.36935821532153 -2.89776767216722
 1 -3.81412000160016  4.67456403820382 -0.77940909240924
 1 -4.09239798949895  3.74342913651365  0.84146495789579
 1 -2.83026134233423  5.07412770387039  0.72395816571657
 1  8.54234992849285 -2.05011816601660 -1.06762739773977
 1 -1.41162408700870  6.57279773687369 -3.08100295249525
 1 -2.67674002690269  6.01045242104210 -1.67016292379238

