%nproc=4
%Mem=3GB
# td=(NStates=1) B3LYP/SVP 

TD

0 1
 8 -3.26393330353035 -1.18529358485849 -2.82973362766277
 8  2.93869432423242  3.19803146164616  2.98165243614361
 8  3.48939324752475  1.47633476177618  4.30464490809081
 8  7.92905150805080 -1.34167028122812 -0.89994075587559
 8  6.65160931733173 -3.08730952585259 -1.84235068316832
 8 -2.70850175667567  1.48379386848685  1.37765782628263
 7 -0.34956070227023 -2.46806312061206  0.82663750455045
 7 -2.58425046304630 -1.27142227722772 -0.62214435903590
 7  1.12141369076908 -0.01213030333033 -0.75316025322532
 7 -0.99918906440644  1.36461186908691 -0.14072497039704
 6 -3.26721187088709 -1.38342590499050  0.70107708160816
 6 -2.53875250135013 -2.47014116031603  1.65515082188219
 6 -1.19835547724772 -2.10451826582658  1.74452244084408
 6 -0.53448325062506 -1.25643683538354  2.75926394689469
 6  0.77195830843084 -1.22567756875688  2.41977317191719
 6  0.95681836803680 -1.92534896959696  1.17695249924993
 6 -4.74055900250025 -1.83128877757776  0.36022290959096
 6  1.80993558495850 -0.40057038663866  3.13175533003300
 6 -4.79612597399740 -1.96232494089409 -1.05285562606261
 6  2.07802575897590 -1.94185237743774  0.34613689238924
 6  2.12356837873787 -0.98279019121912 -0.62618652015202
 6 -3.49678434833483 -1.44252621792179 -1.66417370077008
 6  3.00570163336334 -0.69454020232023 -1.68726262516252
 6 -1.28306687888789 -0.51958581558156  3.78661416971697
 6 -5.73348857295730 -2.11790827112711  1.39644064966497
 6  2.51475113201320  0.42609997819782 -2.44659926992699
 6  1.79434886728673  1.14376006800680  2.67899454105411
 6  1.38957232373237  0.90567721632163 -1.74358046404640
 6  4.27914326342634 -1.45708513761376 -1.94978460856086
 6 -5.89871420752075 -2.32196428682868 -1.99919336753675
 6  5.48007355835584 -1.15392713791379 -1.03312672957296
 6  3.02993308870887  1.05212361496150 -3.81886839603960
 6  0.49051147524752  2.04503965086509 -1.99963170827083
 6  2.82974161446145  1.83981356685669  3.40006535173517
 6 -0.61817564916492  2.23655828802880 -1.12490777867787
 6 -7.01706563306331 -3.01283504760476 -1.67049560826083
 6  6.77462703230323 -1.98803705880588 -1.35076576657666
 6 -1.39958861366137  3.49762199539954 -1.18166624132413
 6 -2.29617370677068  3.35364584358436 -0.19573747994799
 6 -1.94892716511651  1.97935886938694  0.47177610961096
 6 -1.24493447184718  4.53855011521152 -2.24083585158516
 6 -3.44357499399940  4.36972745564556  0.30703494319432
 6 -1.79586347754775  5.74409982818282 -2.32132586538654
 1 -3.17131562476248 -0.46442193209321  1.27874207880788
 1 -2.63989561596160 -3.52836796179618  1.21440178927893
 1 -2.94750457025703 -2.48840228462846  2.63298268696870
 1 -0.75425072987299 -2.97153591869187 -0.11805479547955
 1 -2.07234562426243 -0.30403670717072 -0.72584668706871
 1  1.46922488388839 -0.47917937173717  4.18159025812581
 1  2.88875620852085 -0.68272016331633  2.79791472087209
 1  2.79332814671467 -2.63130471337134  0.41302435563556
 1 -1.65770840014001 -1.28505777977798  4.43399046084608
 1 -0.53247301530153 -0.03877808140814  4.29755611211121
 1 -2.25821513531353  0.02872531923192  3.48539730503050
 1 -5.59510029722972 -1.24605273647365  2.15057935093509
 1 -5.35927468816882 -3.07822192679268  1.88185103140314
 1 -6.74881225802580 -2.05156079947995  0.95798215991599
 1  1.79358549794980  1.45292523442344  1.58554616591659
 1  0.86891684318432  1.69350159445945  2.95060303400340
 1  0.31362962056206  0.07801217101710 -0.06340837313731
 1  4.75045076427643 -1.01683474247425 -3.04757035893589
 1  4.14092492229223 -2.63934571377138 -1.91808891689169
 1 -5.79668180658066 -2.07695862046205 -3.08958242204220
 1  5.36514443574358 -1.27834831473147  0.05900912461246
 1  5.84865630693069 -0.07967496359636 -0.89970445294529
 1  3.95256516801680  0.53340983308331 -4.12667089658966
 1  3.45005075667567  2.25087616631663 -3.65478781418142
 1  2.33463925322532  1.10030452835283 -4.56275942794279
 1  0.94862877287729  2.85763726022602 -2.75181607360736
 1 -7.09769885598560 -3.27952013591359 -0.58996801800180
 1 -7.79656792169217 -3.39945127562756 -2.32400545404540
 1  3.67459118661866  3.46938629962996  3.53956721092109
 1 -0.35747962676268  4.49976125562556 -2.77841573697370
 1 -4.15298388798880  4.54764134593459 -0.51726287778778
 1 -3.81730047974798  4.13086788038804  1.26616742814281
 1 -2.72008032423242  5.28446873797380  0.27526329622962
 1  8.71238693219322 -1.91470462466247 -0.98862949794979
 1 -1.42252517711771  6.45952640974097 -2.92960781298130
 1 -2.64518687158716  6.05977735353535 -1.48350425792579

