%nproc=4
%Mem=3GB
# td=(NStates=1) B3LYP/SVP 

TD

0 1
 8 -3.17986489668967 -1.39565462096210 -2.82057271157116
 8  2.90625107990799  3.12084374287429  3.16068033893389
 8  3.45777008520852  1.53894102240224  4.64911935553555
 8  7.57921652455245 -1.84196031023102 -0.46921768356836
 8  6.62032618901890 -3.02696349124912 -2.20232668076808
 8 -2.60867177367737  1.63844933403340  1.42743280378038
 7 -0.24254000020002 -2.42597891219122  0.94554939573957
 7 -2.55889792779278 -1.24644977997800 -0.54736688128813
 7  1.09787133653365  0.10005091479148 -0.81356629382938
 7 -0.97542668816882  1.57759316721672 -0.17317821572157
 6 -3.31073622332233 -1.41359892229223  0.69126610051005
 6 -2.68454708080808 -2.35940008620862  1.69532483928393
 6 -1.17995363706371 -2.05287310131013  1.88962695129513
 6 -0.48993879617962 -1.18574976667667  2.86877489798980
 6  0.87830894349435 -1.16928192919292  2.42664385898590
 6  0.91730441664166 -1.87262369706971  1.20605540954095
 6 -4.63268821542154 -1.83202885158516  0.21904879217922
 6  1.99330392179218 -0.49183951355136  3.07098925342534
 6 -4.69080544194419 -1.96584529292929 -1.11504184468447
 6  2.06757471387139 -1.79953814601460  0.27722000070007
 6  2.05941196309631 -0.86789870207021 -0.75511941344134
 6 -3.44577924782478 -1.54120608590859 -1.67294457785779
 6  2.97827889108911 -0.68400914921492 -1.90363426232623
 6 -1.11395996819682 -0.51631548854885  4.05993150145015
 6 -5.73610883498350 -2.28869534983498  1.27999900550055
 6  2.60585024192419  0.51380874907491 -2.59880449044904
 6  1.94024345674567  0.95346103810381  2.86727336893689
 6  1.43148651515152  1.00525717431743 -1.86870297629763
 6  4.21445679477948 -1.52887231633163 -2.22125175527553
 6 -5.77229156525653 -2.33718580898090 -2.01253470167017
 6  5.42397794879488 -1.15111685688569 -1.29086250315032
 6  3.19163925932593  1.16377478007801 -3.72071858105811
 6  0.59222164626463  2.13165831273127 -1.99403114821482
 6  2.87042568286829  1.86983656915692  3.62922826802680
 6 -0.61455528712871  2.46260089228923 -1.09135442334233
 6 -6.90162408890889 -3.19550331443144 -1.68932749144914
 6  6.60564013361336 -2.14343259835984 -1.40963165316532
 6 -1.38464711951195  3.57010924412441 -1.16742481718172
 6 -2.37543163256326  3.40473095209521 -0.22453035923592
 6 -1.98533080548055  2.23703463696370  0.47981691369137
 6 -1.29432941134113  4.56060232043204 -2.22595436343634
 6 -3.53282391889189  4.32944342724272  0.30713495319532
 6 -2.15552944414441  5.60731614981498 -2.62708644144414
 1 -3.48063655685569 -0.29987547744774  1.17863206780678
 1 -2.75282690909091 -3.33925905090509  1.33062341144114
 1 -3.21089090889089 -2.37900134453445  2.53072246094609
 1 -0.60714601940194 -2.93714247934793  0.09537654765476
 1 -1.95800419011901 -0.41916822032203 -0.59694379677968
 1  1.93650161156116 -0.72341379517952  4.19763186228623
 1  2.96427376027603 -1.04252614391439  2.84449937933793
 1  2.96967578147815 -2.53694527742774  0.06272932613261
 1 -1.87590021932193 -1.05489476347635  4.62076913871387
 1 -0.35883565156516 -0.16050025362536  4.69446580308031
 1 -1.50750006380638  0.46172861956196  3.64394315961596
 1 -5.73723451065107 -1.89958809000900  2.37120141314131
 1 -5.66247500820082 -3.41458556315632  1.53205605190519
 1 -6.94770214701470 -1.90165580898090  1.06933329502950
 1  2.18609474887489  1.13781372327233  1.78563617491749
 1  0.64072402390239  1.26498874317432  2.82896086978698
 1  0.35117337493749  0.55992036183618  0.03596156385639
 1  4.57770348954895 -1.33578663766377 -3.18460406230623
 1  3.96239706950695 -2.68891067026703 -2.15532264026403
 1 -5.62862500090009 -1.98213913851385 -2.99304276807681
 1  5.08528644994499 -1.22810329022902 -0.36925370167017
 1  5.91506294759476 -0.27482447854786 -1.77159164166417
 1  4.01788169966997  0.44121061316132 -3.98918714821482
 1  3.80032578417842  2.08034911361136 -3.45230756615662
 1  2.33860965026503  1.28339283718372 -4.54518767076708
 1  0.69790370037004  2.77984948144814 -2.74573546554655
 1 -6.99309839593959 -3.62485466936694 -0.80997001820182
 1 -7.54129239413941 -3.54551588208821 -2.45171822532253
 1  3.30185391289129  3.64362372337234  4.12990624482448
 1 -0.29208308710871  4.60682196169617 -2.77249514491449
 1 -4.45848443804380  4.11240782258226 -0.36228738023802
 1 -3.88953770347035  3.96971176477648  1.37165797719772
 1 -3.15509382558256  5.53147343844384 -0.01921615171517
 1  8.23265895939594 -2.60989414361436 -0.67868850385039
 1 -2.00003292789279  6.27549800690069 -3.38838369056906
 1 -3.22671502440244  5.70109148494849 -2.15883179067907

