%nproc=4
%Mem=4GB
# td=(NStates=1) B3LYP/SVP 

TD

0 1
 8 -5.48819504950495 -0.09118367876788 -3.18073786348635
 8  2.99383938943894  3.02755000970097  3.08173425182518
 8  3.21032938153815  0.72093749274927  3.42989487458746
 8  1.31298893839384 -7.08570484058406  1.42391089738974
 8  0.84211909990999 -7.02118854245425 -0.75880386328633
 8  1.99574662276228  3.99243236603660  0.15702520992099
 7 -2.36966657775778 -0.92303073327333  0.54329134573457
 7 -4.47551243264326  0.38082574907491 -1.24817317211721
 7  1.84932532413241 -0.58867044004400 -0.40656913451345
 7  2.63806934883488  1.89337508300830 -0.55970271697170
 6 -4.80279667086709  1.16840833783378  0.00908670847085
 6 -4.34610200300030  0.39740990629063  1.23375073277328
 6 -2.93769886548655  0.10490074677468  1.36557857085709
 6 -1.98092718941894  0.73379833703370  2.10803397299730
 6 -0.71404801510151  0.12548711321132  1.70504118171817
 6 -1.00483467126713 -0.90547360626063  0.76736855625563
 6 -6.40072242834283  1.27727551685169 -0.09018423382338
 6  0.55446405300530  0.21287196369637  2.45514453455346
 6 -6.80099061356136  0.72117136553655 -1.30838656735674
 6 -0.19494575067507 -1.82374111101110  0.09511159265927
 6  1.08002489868987 -1.76677622422242 -0.37062864506451
 6 -5.59392999329933  0.12326054075408 -2.01467877937794
 6  1.93744782998300 -2.85573611201120 -0.83610061936194
 6 -2.23211891279128  1.76640239713971  3.07329171937194
 6 -7.27211470467047  1.89280740994099  0.99600358625863
 6  3.11786812051205 -2.29072902410241 -1.24953619871987
 6  1.12448847614761  1.63016150955095  2.43761739763976
 6  3.08232630793079 -0.88975760136014 -1.04841883008301
 6  1.51574534473447 -4.24374033843384 -0.97346906380638
 6 -8.08406431243124  0.67554919251925 -1.92633102090209
 6  1.76548411401140 -5.01601253585359  0.32846884238424
 6  4.25040064906491 -3.00009847864786 -1.84518374967497
 6  4.00096096669667  0.10159956345635 -1.41939662206221
 6  2.62634325552555  1.71668925712571  3.05082098199820
 6  3.83772815061506  1.50346575807581 -1.13342991029103
 6 -9.32983796719672  0.75154731503150 -1.34879969526953
 6  1.40356542124212 -6.47344399459946  0.20343900290029
 6  4.76801563616362  2.55512226712671 -1.50024710781078
 6  4.04122339073907  3.76400692439244 -1.08001929622962
 6  2.81182275307531  3.25718356945695 -0.45420418311831
 6  6.03161676697670  2.38976381698170 -2.00355231033103
 6  4.43298891869187  5.18129300510051 -1.01259327272727
 6  6.74748480608061  3.35842152695270 -2.55396987388739
 1 -4.12599708580858  2.10991207130713 -0.23664062376238
 1 -5.03650830773077 -0.45778725482548  1.20924566876688
 1 -4.71488832873287  0.83603760346035  2.09042595229523
 1 -2.95563460336034 -1.39204660016002 -0.23481040284028
 1 -3.41864286158616  0.26676859395940 -1.59724727562756
 1  0.49194362906291 -0.20502019001900  3.42302185028503
 1  1.41637564696470 -0.35754042144214  1.87680281308131
 1 -0.68052671357136 -2.75179264426443 -0.17658265596560
 1 -3.25892603790379  1.98766003010301  3.24891488118812
 1 -1.88168938403840  1.48160752465246  4.14316270417042
 1 -1.62813919501950  2.59257307710771  2.67817523932393
 1 -6.34041749264926  2.66914571807181  1.42123435643564
 1 -7.56643641064106  1.19684949414941  1.76641365206521
 1 -8.13068900610061  2.48625470857086  0.86284476467647
 1  1.27273998239824  2.16525856245625  1.55239330663066
 1  0.64102721522152  2.46761358335834  2.99036486068607
 1  1.47780210661066  0.46189683468347 -0.50463582888289
 1  2.15125291749175 -4.75556938733873 -1.77100170987099
 1  0.42898469596960 -4.47100694819482 -1.33628211161116
 1 -7.90757181898190  0.68318854945495 -3.15102104030403
 1  1.23539572847285 -4.52465364506451  1.18818639523952
 1  2.74864113421342 -4.88100530503050  0.52927074197420
 1  4.32934799709971 -4.21157861006101 -1.36289975107511
 1  5.18025912431243 -2.29092794299430 -1.32400601820182
 1  4.31126255935594 -3.25374760736074 -3.15766484008401
 1  4.84963458295830 -0.13519561406141 -2.03874004970497
 1 -9.18158175867587  0.69190664616462 -0.35921861166117
 1 -10.20259839343934  0.75350676637664 -1.98777487748775
 1  3.87942262876288  3.06967035073507  3.59402416811681
 1  6.33706717491749  1.39844199339934 -2.10601941694169
 1  5.25837653745374  5.55182794699470 -0.48159677957796
 1  4.80956297879788  5.39504627032703 -1.92328487338734
 1  3.43293096269627  5.70359996639664 -0.76104784638464
 1  1.03313062116212 -7.93736489358936  1.18901495639564
 1  7.59483192759276  2.89848538843884 -2.96803407670767
 1  6.39736162366237  4.37837334953495 -2.90463281578158

