%nproc=4
%Mem=3GB
# td=(NStates=1) B3LYP/SVP 

TD

0 1
 8 -3.21957886808681 -1.30684574007401 -2.84695534983498
 8  3.16984743954395  3.17626928542854  3.14237850875088
 8  3.52030633883388  1.51401853015302  4.63979842344234
 8  7.82864146704670 -1.55822193639364 -0.72577333913391
 8  6.69544370077008 -2.87155795069507 -2.03600004810481
 8 -2.42503340984098  1.58455394449445  1.63730379087909
 7 -0.26344209040904 -2.40421673597360  0.91008584938494
 7 -2.60320235823582 -1.35278041304130 -0.62742488708871
 7  1.17982953235324  0.07391830153015 -0.69104404160416
 7 -0.90840998649865  1.41063647154715 -0.13743464136414
 6 -3.33889903960396 -1.40467803020302  0.65624259815982
 6 -2.67102572867287 -2.39692383858386  1.60362566936694
 6 -1.21983762546255 -2.02104991899190  1.87387537613761
 6 -0.61853165546555 -1.23556474817482  2.79593761426143
 6  0.75442655525553 -1.11924692569257  2.51951314591459
 6  0.96003869006901 -1.85446188088809  1.23425822982298
 6 -4.75681062766277 -1.76660230893089  0.25482236953695
 6  1.84531912331233 -0.22671300090009  3.25378753325333
 6 -4.81564792619262 -1.95749445784578 -1.13375371587159
 6  2.12031998839884 -1.92613080528053  0.26099837853785
 6  2.11137715961596 -0.92353426562656 -0.73587748924893
 6 -3.52716738663866 -1.59733169846985 -1.67362464586459
 6  2.97908897209721 -0.68944969326933 -1.82426632553255
 6 -1.38109668186819 -0.48668252525253  3.94007951625163
 6 -5.80453567766777 -2.08588506880688  1.18718972457246
 6  2.55106476337634  0.38469583778378 -2.53188779877988
 6  1.87869730213021  1.19283497549755  2.74506114771477
 6  1.37531089758976  0.89405605420542 -1.82580868686869
 6  4.20572592169217 -1.61611104020402 -2.10517014711471
 6 -5.95684002010201 -2.24540663106311 -2.03255670387039
 6  5.48320387138714 -1.01071281648165 -1.33966738363836
 6  3.07846794219422  1.02569097169717 -3.68285479467947
 6  0.41046347044704  1.87769291619162 -2.13188493359336
 6  2.95190383068307  1.89736932243224  3.56329167436744
 6 -0.61887571917192  2.13982861506151 -1.13235852375238
 6 -7.01875580208021 -2.96820058415842 -1.82839139783978
 6  6.70708027762776 -1.85412366746675 -1.43976466646665
 6 -1.52651130593059  3.33777601080108 -1.20463853855386
 6 -2.29660374977498  3.31058153715372 -0.11060896709671
 6 -1.95910818321832  2.07098803230323  0.55389432143214
 6 -1.32191216961696  4.37361362156216 -2.30756252425243
 6 -3.40179081558156  4.26332681558156  0.27505174487449
 6 -1.91470536173617  5.53503892209221 -2.34340807360736
 1 -3.22244073727373 -0.39900539043904  1.02197640224022
 1 -2.75619724612461 -3.41929705470547  1.38122847194719
 1 -3.10918073787379 -2.25234867926793  2.50669005770577
 1 -0.39232453725373 -2.99278804390439 -0.10830382038204
 1 -2.13837222692269 -0.47033333683368 -0.57391149354935
 1  1.68335629702970 -0.33018447224723  4.35851795089509
 1  2.87818515141514 -0.79760165146515  3.13713864326433
 1  2.84204301820182 -2.55466704960496  0.37808086128613
 1 -1.98268089738974 -1.24966424042404  4.24574163596360
 1 -0.72832260026003 -0.18015221882188  4.66933328982898
 1 -1.96670598439844  0.29235168186819  3.53152191749175
 1 -5.47395818301830 -1.48078620982098  2.12929722272227
 1 -6.11904066476648 -3.22155626022602  1.41798464476448
 1 -6.68931630843084 -1.75973161656166  0.63477983968397
 1  2.19796593599360  1.17151709360936  1.62983059435944
 1  0.82555250675068  1.60298254255425  2.83981195489549
 1  0.31341959955996  0.29996436623662 -0.09487151945195
 1  4.67013273247325 -1.78696175517552 -3.12716831873187
 1  4.09644047384738 -2.61811359055906 -1.63331043904390
 1 -5.71419355775578 -1.82686361096110 -2.99510297409741
 1  5.25630355165517 -0.76764724462446 -0.28914569086909
 1  5.73059450075008  0.10002300620062 -1.53868835133513
 1  3.73810372187219  0.29311580368037 -4.32580080958096
 1  3.90293604520452  1.83803488218822 -3.32763509890989
 1  2.33103889318932  1.57789228712871 -4.47908106010601
 1  0.42146605660566  2.49045054155415 -3.01897278927893
 1 -7.16706579267927 -3.43298548244825 -0.72651167236724
 1 -7.83987225212521 -2.90494182468247 -2.61412446594659
 1  3.89215294279428  3.58217757875788  3.56706996119612
 1 -0.56650052885288  4.03520479998000 -2.93999189458946
 1 -4.01893048264827  4.57533411521152 -0.45091624312431
 1 -4.12784153385339  3.95369016261626  1.18760957235724
 1 -2.92579089528953  5.14769506060606  0.61775754565457
 1  8.54405009850985 -2.08797195139514 -1.12320295529553
 1 -1.65910883548355  6.26904736183618 -3.10711556375637
 1 -2.59782213511351  5.85560693649365 -1.54719062656266

