%nproc=4
%Mem=4GB
# td=(NStates=1) B3LYP/SVP 

TD

0 1
 8 -5.36009223922392  0.20708614821482 -3.38708849854986
 8  3.20835084058406  2.80680793549355  3.10279635803580
 8  3.36719506810681  0.55670106910691  2.90086197129713
 8  1.83447108660866 -7.04369063916392  1.71014952125213
 8  0.59420430843084 -7.06429285288529 -0.21335931883188
 8  1.45863291139114  3.87892101490149  0.05025453285329
 7 -2.30346995809581 -1.09756818701870  0.68662567916792
 7 -4.25886076747675  0.56874454095410 -1.32776113091309
 7  1.89999039063906 -0.69827140014001 -0.41903038063806
 7  2.40685622752275  1.81019676517652 -0.52087883458346
 6 -4.66065245644564  1.13227472447245 -0.11160536073607
 6 -4.36123351615162  0.20911107640764  1.15440279797980
 6 -2.92375747134713 -0.08492823612361  1.43268528152815
 6 -1.87636673337334  0.48721367856786  2.19327249684968
 6 -0.65541215151515 -0.10084552005201  1.84632531013101
 6 -0.88750293809381 -1.05910896979698  0.82448426782678
 6 -6.13983633973397  1.37130491979198 -0.24628984438444
 6  0.56699530613061  0.17141781828183  2.57079609970997
 6 -6.60326084058406  1.05766501490149 -1.48638436713671
 6 -0.17061331743174 -2.01633036993699  0.20388246974697
 6  1.18769566576658 -1.87313686028603 -0.28664024622462
 6 -5.35504610491049  0.45941415611561 -2.21354866636664
 6  2.03734781998200 -2.94145468386839 -0.88320532983298
 6 -2.12969867076708  1.47489324622462  3.28325271547155
 6 -6.94458195139514  2.08545667486749  1.00260424632463
 6  3.13908024172417 -2.37140709190919 -1.37061830693069
 6  1.15858188548855  1.55378387178718  2.65508914481448
 6  3.04074214951495 -0.86785541114111 -1.15308929712971
 6  1.59753352355236 -4.36339230363036 -0.90419213611361
 6 -7.93307921392139  1.14298593619362 -2.04741312911291
 6  2.04209177477748 -5.03163409800980  0.38891488698870
 6  4.32211782078208 -3.07929639843984 -2.02536176747675
 6  3.86226709730973  0.10163956745675 -1.44766944934493
 6  2.68065868706871  1.51605919411941  3.03355925582558
 6  3.48151252905291  1.44799021052105 -1.18615518281828
 6 -9.18212319571957  1.35597775807581 -1.47446226152615
 6  1.40382544724472 -6.47976462666267  0.51839049804981
 6  4.43225205980598  2.66835359025903 -1.55662274537454
 6  3.62049131753175  3.81333185688569 -1.12718401270127
 6  2.38845041584158  3.19219707080708 -0.49211797449745
 6  5.74417802310231  2.56021086168617 -1.99653160826083
 6  3.84450006980698  5.26777165296530 -1.11820383378338
 6  6.52145220282028  3.72890857565757 -2.35611008790879
 1 -4.21712619871987  2.22750383048305 -0.09192615231523
 1 -5.04907956485649 -0.61573304940494  0.69689443364336
 1 -4.68319515941594  0.80974497419742  1.93468037773777
 1 -2.81582062196220 -1.55913330883088 -0.04355127692769
 1 -3.30007100440044  0.58215013211321 -1.69328687958796
 1  0.27937237193719 -0.35435512351235  3.45103465156516
 1  1.55854986438644 -0.56683135053505  2.15163029582958
 1 -0.40464912581258 -3.18690615561556  0.17828283058306
 1 -3.45890603590359  1.64654591869187  3.39806979667967
 1 -1.80962217731773  1.16755611951195  4.10074846274628
 1 -1.63642002310231  2.57492131193119  3.15415283708371
 1 -6.22577602850285  2.50136894039404  1.77154938793879
 1 -7.82686245324532  1.19074888408841  1.19104611531153
 1 -7.60988692589259  3.08510459355936  0.52470095029503
 1  0.84118682708271  2.13636567316732  1.69417748504850
 1  0.82938605110511  2.25211203320332  3.54737056125613
 1  1.38264259065907  0.27189783478348 -0.28269363466347
 1  1.89589738193819 -4.91493532393239 -1.83262787248725
 1  0.54015581308131 -4.54763461096110 -0.74485296869687
 1 -8.05557661946195  1.17480771137114 -3.23504944314431
 1  1.87693988288829 -4.59235041474147  1.23902147874787
 1  3.02190846094609 -5.04220142464246  0.54487230213021
 1  3.92149721202120 -4.08833628582858 -2.72761622272227
 1  5.17514861326133 -3.38170702090209 -1.34219783738374
 1  4.81189262236224 -2.36124835743574 -2.82026109970997
 1  4.82320193969397 -0.21913400790079 -1.91494767046705
 1 -9.44386798729873  1.64849230473047 -0.48852154195419
 1 -9.99000713431343  1.38554997069707 -2.09950605060506
 1  4.14988967546755  2.70477386108611  3.28846361206121
 1  6.15773924212421  1.40449259845985 -2.07739655465547
 1  4.89324002380238  5.65325809000900 -0.59316793669367
 1  4.06802882538254  5.66576334203420 -2.19487203210321
 1  2.93512118171817  5.74534414081408 -0.74757649924992
 1  1.40348765686569 -7.93338449554955  1.67755381028103
 1  7.46359880428043  3.65191073097310 -2.72756002930293
 1  6.22950483798380  4.78183369556956 -2.27986033853385

