%nproc=4
%Mem=3GB
# td=(NStates=1) B3LYP/SVP 

TD

0 1
 8 -3.28798570877088 -1.32154721022102 -2.82097275157516
 8  3.09641009580958  3.12216387488749  3.13638790969097
 8  3.81171547974797  1.31149827812781  4.33302774637464
 8  7.72053065596560 -1.69417553175318 -0.57119788158816
 8  6.78452260866087 -2.82996379127913 -2.37804425252525
 8 -2.66629753625363  1.65744123322332  1.42581264176418
 7 -0.22532827902790 -2.46885319961996  1.02623746454645
 7 -2.60731276927693 -1.32917805280528 -0.62123426802680
 7  1.13533508290829  0.07818872857286 -0.69829476667667
 7 -1.09776892239224  1.44700010791079 -0.25924682258226
 6 -3.26112126182618 -1.36965452785279  0.62890986488649
 6 -2.63310193629363 -2.40770491669167  1.59709501630163
 6 -1.24726036773677 -2.08877669166917  1.86485447404740
 6 -0.60366016831683 -1.15001619331933  2.86456447694769
 6  0.77309842244224 -1.11371637263726  2.48928012261226
 6  0.91483416961696 -1.77543397809781  1.29709451345134
 6 -4.79969491609161 -1.91802745144514  0.21383827112711
 6  1.81579617101710 -0.30909123872387  3.21124327882788
 6 -4.81320768216822 -1.96339504790479 -1.12042238273827
 6  1.99292724912491 -1.73266145834583  0.42205448414841
 6  1.94186020792079 -0.93137504970497 -0.68574247574757
 6 -3.46558122802280 -1.49263122842284 -1.70620790419042
 6  3.01348241144114 -0.66423717201720 -1.77598149704970
 6 -1.34069264146415 -0.41380523752375  3.96973248154815
 6 -5.73195841994199 -2.14760124042404  1.24492549814981
 6  2.57683734063406  0.41755912411241 -2.46166077607761
 6  1.96072550495050  1.10645633763376  2.78392503410341
 6  1.33620698719872  0.96924357295730 -1.79873597959796
 6  4.22519786888689 -1.52102153125313 -1.97216684678468
 6 -5.77646198229823 -2.43620571097110 -2.02936638483848
 6  5.34627017801780 -1.17481922712271 -1.05290870777078
 6  3.09673976937694  1.07345574817482 -3.62466897609761
 6  0.50512293639364  2.03893904080408 -1.99300104520452
 6  3.07465610591059  1.77437702320232  3.47872321752175
 6 -0.54231806340634  2.28028266046605 -1.12628791669167
 6 -6.91587551405140 -3.18990275437544 -1.71923048174817
 6  6.69258882848285 -1.97448570367037 -1.51308199819982
 6 -1.45972462726273  3.46779901310131 -1.25927400210021
 6 -2.35169925932593  3.36943742274227 -0.19652755895590
 6 -2.03431570397040  2.08600953445345  0.40273920592059
 6 -1.24436441484148  4.53525978617862 -2.20567233523352
 6 -3.50959159565957  4.21249173207321  0.14406864656466
 6 -1.87579147034703  5.73400881908191 -2.27257098989899
 1 -3.38481697489749 -0.43191868176818  0.99757396199620
 1 -2.74133575997600 -3.50690581558156  1.27658800790079
 1 -3.40619043884388 -2.16498994339434  2.42314170287029
 1 -0.33469877467747 -2.93781254635463  0.08821583158316
 1 -1.91332972267227 -0.61360766426643 -0.61375547794779
 1  1.68458642004200 -0.16623807760776  4.37095919501950
 1  2.73148048094810 -0.85038692999300  3.12211714111411
 1  2.64823363726373 -2.63701528442844  0.32063511671167
 1 -1.96323895319532 -0.92325159915992  4.58060512231223
 1 -0.57147691569157  0.16831262766277  4.76317267376738
 1 -2.08994830863086  0.37306975367537  3.33472223752375
 1 -5.57249803700370 -1.59694782598260  2.23944823782378
 1 -5.92259101980198 -3.20553465806581  1.35300814711471
 1 -6.71843922072207 -1.84391003440344  0.81578794049405
 1  2.07386352575258  1.13524346624662  1.82172978427843
 1  0.98965891739174  1.52049429372937  2.98191616531653
 1  0.19056731433143  0.48088245804580 -0.29956198849885
 1  4.51601732093209 -1.53268632763276 -2.88770437233723
 1  3.89616044584458 -2.64638641784178 -1.80341744974497
 1 -5.57179931833183 -2.40143106770677 -3.05415887968797
 1  5.33734165546555 -1.40596107600760 -0.05912268856886
 1  5.52379382068207  0.01595459935994 -1.09593407590759
 1  4.11619153065307  0.57174366646665 -3.94032226172617
 1  3.33061881348135  2.13052413111311 -3.53013534893489
 1  2.35706149544954  0.97399189708971 -4.40926407840784
 1  0.90793470347035  2.65577707420742 -2.77080797279728
 1 -7.17559664576458 -3.25669785368537 -0.62208122932293
 1 -7.40773903880388 -3.64766609710971 -2.50780383388339
 1  3.91299502700270  3.55009437043704  3.20422367656766
 1 -0.45606948574857  4.39183046254625 -2.99632752815282
 1 -4.16531512111211  4.46983356515652 -0.73193434493449
 1 -4.06243499319932  3.59491428502850  0.95164597599760
 1 -3.10099841604160  5.20170046114611  0.82815858575858
 1  8.31279697319732 -2.34528768296830 -1.04004463946395
 1 -1.46901982658266  6.45864632173217 -3.08407325952595
 1 -2.74600695359536  5.88916029182918 -1.49425533303330

