%nproc=4
%Mem=4GB
# td=(NStates=1) B3LYP/SVP 

TD

0 1
 8 -5.47166339633963  0.07377281688169 -3.29855964566457
 8  2.88716872237224  2.97052430713071  3.32982906130613
 8  3.53019136773677  0.78309370837084  2.78380026512651
 8  1.21606924642464 -7.05796206630663  1.60768927522752
 8  0.52881776977698 -6.99735615921592 -0.56126410931093
 8  1.78199524762476  3.95808893169317  0.11993150055005
 7 -2.23630324142414 -0.96019444964496  0.48124514111411
 7 -4.45567044844484  0.45223288978898 -1.25980433523352
 7  1.98130852245225 -0.65694726772677 -0.45281375897590
 7  2.69557509940994  1.79867561306131 -0.44145089178918
 6 -4.83067945914591  1.14693619061906  0.06226202600260
 6 -4.35198259105911  0.32317248254825  1.18734609230923
 6 -2.97007210281028 -0.06090583388339  1.35732774577458
 6 -1.94408350505050  0.62116707390739  2.04460763036304
 6 -0.69349595989599 -0.00177561306131  1.79630030763076
 6 -0.90778496629663 -0.95931899079908  0.72709452885289
 6 -6.37059941604160  1.31313910321032 -0.05060027542754
 6  0.63154176077608  0.15096577307731  2.46374539463946
 6 -6.78404891939194  0.72753200160016 -1.31320704940494
 6 -0.17584384048405 -1.91513024992499 -0.02654057255726
 6  1.14430132633263 -1.80192973957396 -0.40151173337334
 6 -5.63761436173617  0.36429464416442 -2.04890220172017
 6  2.03099718491849 -2.80911144954495 -0.88879588888889
 6 -2.14103980488049  1.69159491639164  3.10382477267727
 6 -7.12458995219522  1.85762389158916  1.05340932683268
 6  3.27406374007401 -2.35030498169817 -1.26484772987299
 6  1.18353438073807  1.65326381978198  2.53086672257226
 6  3.15135321062106 -0.89155778137814 -1.05600958915892
 6  1.57967173737374 -4.30959692409241 -0.93016473337334
 6 -8.13760966696670  0.69796143374337 -1.96247463526353
 6  1.55750331593159 -4.97209814441444  0.41138713421342
 6  4.51861747074707 -3.00469893869387 -1.91203043434343
 6  4.07192806340634  0.20696009950995 -1.37668235063506
 6  2.65075569676968  1.69484707290729  2.89413531343134
 6  3.78110248804881  1.50262567406741 -1.04260082738274
 6 -9.39524450785079  0.65926808710871 -1.44294911021102
 6  1.03535860056006 -6.40784743494349  0.40428908790879
 6  4.67848668326833  2.69937669256926 -1.50658774187419
 6  3.92899216761676  3.79954047774778 -1.02780407470747
 6  2.74961653245325  3.21339919101910 -0.40216897959796
 6  5.95864947024702  2.46731157175718 -2.10152210731073
 6  4.29476509630963  5.20319519531953 -1.07566958035804
 6  6.86973703130313  3.51825751055106 -2.44049852675268
 1 -4.36016050215021  2.05267634773477  0.27259029932993
 1 -4.92070672757276 -0.47904938103810  1.31400614481448
 1 -4.55291213111311  0.86230022972297  1.95742265196520
 1 -2.90987002690269 -1.54668206370637 -0.11886880868087
 1 -3.52887388468847  0.52336425352535 -1.70355790669067
 1  0.66120055475548 -0.14187387538754  3.46736628472847
 1  1.48850285968597 -0.42231689908991  1.84081921472147
 1 -0.48459712061206 -2.83139060406041 -0.49887488518852
 1 -3.25328547384738  1.75581684578458  3.15629561926193
 1 -1.68270948604861  1.38264762866287  4.16267465536554
 1 -1.75712209330933  2.58382220202020  2.67935535733573
 1 -6.58319177007701  2.53312211571157  1.61218345134513
 1 -7.50441020802080  1.08574838403840  1.81178818951895
 1 -8.00933687088709  2.43881996509651  0.63522200240024
 1  1.17198990739074  2.19042107870787  1.59200726802680
 1  0.77166027852785  2.29068589058906  3.40080590479048
 1  1.82121644804480  0.31146179117912 -0.10438580388039
 1  2.27139493169317 -4.68273210361036 -1.76236084578458
 1  0.50406220372037 -4.46047589508951 -1.26452493589359
 1 -8.16134719651965  0.48076830743074 -2.94106004420442
 1  0.93026521542154 -4.28214939463946  1.29124670127013
 1  2.76071234133413 -4.90063726822682  0.72560037493749
 1  4.30403546584659 -4.17042449464946 -2.13264672577258
 1  5.37631873027303 -2.90549940014001 -1.26970058765877
 1  4.69227066016602 -2.50564279687969 -2.83564263786379
 1  4.91183080258026 -0.21365345984598 -1.95807198289829
 1 -9.55315891639164  0.72023947944794 -0.28548123792379
 1 -10.42418055165517  0.70556197189719 -2.08852495249525
 1  3.87576226272627  3.19682306600660  3.55038980468047
 1  6.38830229842984  1.49181133033303 -2.45009382438244
 1  5.31589228902890  5.47202996719672 -0.70733935383538
 1  4.35139716221622  5.61548831453145 -2.12824536943694
 1  3.40792846244625  5.88654826122612 -0.40262200380038
 1  1.02665997409741 -7.99306046314631  1.49144519941994
 1  7.77473991839184  3.26336187608761 -2.90679795309531
 1  6.54069595709571  4.52805831803180 -2.06704905740574

