%nproc=4
%Mem=3GB
# td=(NStates=1) B3LYP/SVP 

TD

0 1
 8 -3.36107301750175 -1.34459951545155 -2.94876553085309
 8  3.01012146694669  3.08302996149615  3.09761403230323
 8  3.75735004320432  1.42055918421842  4.37033147674768
 8  7.88600720362036 -1.51999811401140 -0.92870363216322
 8  6.51922607900790 -3.14942573747375 -1.74758120622062
 8 -2.52183308980898  1.53931942104210  1.46732679317932
 7 -0.31436718291829 -2.45538185248525  0.92883772457246
 7 -2.83139517751775 -1.13781891689169 -0.67317946254625
 7  1.15661721112111  0.03926483618362 -0.82048698589859
 7 -0.92110125562556  1.41491689958996 -0.25203610151015
 6 -3.43478862856286 -1.41110867326733  0.68999597349735
 6 -2.59732835893589 -2.34287843404340  1.63089839663966
 6 -1.20381602330233 -1.98148596259626  1.80369835843584
 6 -0.59082888518852 -1.08675986768677  2.78602662316232
 6  0.85179629222922 -1.15047004800480  2.44563575817582
 6  0.94837752395240 -1.90324675937594  1.25200000400040
 6 -4.77272221882188 -1.89035468416842  0.26664355165517
 6  1.83238783018302 -0.39630996059606  3.16776893139314
 6 -4.82531889328933 -1.96915562396240 -1.11934227472747
 6  2.04030198659866 -1.91897008920892  0.23343562226223
 6  2.05811183308331 -0.86873878607861 -0.73574747624763
 6 -3.58425309520952 -1.40127209250925 -1.71820910431043
 6  3.01472253545355 -0.68919966826683 -1.78235213411341
 6 -1.29746831903190 -0.42823668066807  3.88592410071007
 6 -5.73675889999000 -2.25184166446645  1.35035604120412
 6  2.56118577547755  0.39671703990399 -2.45465007500750
 6  1.79350878327833  1.11920761276128  2.88682532413241
 6  1.32440580708071  0.89351600020002 -1.89516562256226
 6  4.34905025412541 -1.41162059115912 -1.99763939403940
 6 -5.89990432653265 -2.41818390879088 -2.00214366256626
 6  5.57325287628763 -0.92591433663366 -1.15560897779778
 6  3.20393048844884  1.13550195279528 -3.68075458465847
 6  0.54213663776378  1.91454660156016 -1.99356110121012
 6  2.94381302160216  1.85932551805181  3.60825617081708
 6 -0.65852968456846  2.25772040424042 -1.24365965386539
 6 -6.90641456795680 -3.23736750085009 -1.71113967266727
 6  6.62898246784679 -1.96953520862086 -1.31590228022802
 6 -1.37583623842384  3.56635886908691 -1.21655973067307
 6 -2.24496858625863  3.38389886888689 -0.18364627082708
 6 -1.96667894029403  2.06612754625463  0.49621855385539
 6 -1.29196917531753  4.53725998619862 -2.24288605660566
 6 -3.27872850935094  4.23939442234223  0.26674091379138
 6 -2.06155004620462  5.75052047024703 -2.28655238803880
 1 -3.49207770097010 -0.33644913481348  1.09247345194519
 1 -2.74161578797880 -3.18994411941194  1.00578092719272
 1 -3.19697951775178 -2.27330077447745  2.53016240494049
 1 -0.46706201100110 -2.96050481558156  0.06722373237324
 1 -2.07312570227023 -0.44835113861386 -0.70645474787479
 1  1.54887284868487 -0.63141459525953  4.20245234433443
 1  2.87605493839384 -0.80858274957496  3.05235016441644
 1  2.92089090299030 -2.76933851675168  0.28629168236824
 1 -2.09226185548555 -0.98275754975497  4.52690975277528
 1 -0.50682045004500  0.01355715211521  4.59976633313331
 1 -1.71790110391039  0.37080952765277  3.34825359065907
 1 -5.76169695689569 -1.71851998319832  2.31612590559056
 1 -5.83559231993199 -3.34434853945395  1.69433227952795
 1 -6.88200557735774 -2.10244588798880  1.16513287498750
 1  1.91181732113211  1.46550649254925  1.77582519381938
 1  0.92117206870687  1.56315856015602  3.19470744444444
 1  0.33950220782078  0.38292266206621 -0.11841387368737
 1  4.45887160636064 -1.55248830783078 -3.09071467336734
 1  4.30711154095409 -2.53387516671667 -1.81221832983298
 1 -5.91756389478948 -2.22050297489749 -3.21682514631463
 1  5.19965788708871 -1.05862634253425 -0.11038781508151
 1  5.77825926722672  0.12960596449645 -1.44368885138514
 1  4.32708261976198  0.75867235933593 -3.93959218871887
 1  3.26706245784578  2.26645772447245 -3.29118145354535
 1  2.54879066836684  1.13617811571157 -4.60516366836684
 1  0.70466437643764  2.63364486098610 -2.82968386038604
 1 -6.77207629372937 -3.57754993889389 -0.79801882308231
 1 -7.64367263216322 -3.54298562906291 -2.57165021852185
 1  3.66611033853385  3.52256161716172  3.62535578977898
 1 -0.60585446424642  4.31396267576758 -2.93752164756476
 1 -4.03477206680668  4.47937451925192 -0.36593774527453
 1 -3.73247199689969  3.85729052265226  1.33173398479848
 1 -2.91603992019202  5.20191048214821  0.54800056995699
 1  8.57793348684869 -2.24127728192819 -1.20565120012001
 1 -1.83498642324232  6.34988544564456 -3.16821167336734
 1 -2.81326367926793  5.90011138693869 -1.38653456095610

