%nproc=4
%Mem=4GB
# td=(NStates=1) B3LYP/SVP 

TD

0 1
 8 -5.28626485648565  0.02080752035204 -3.31198098779878
 8  3.04698470397040  2.91986924162416  2.98810488888889
 8  3.38313666226623  0.71497689668967  2.90634251935194
 8  1.61102874237424 -7.13140941104110  1.59638814511451
 8  0.71544643264326 -7.02641906550655 -0.50238822172217
 8  1.68754580268027  3.92428555135514  0.34409391679168
 7 -2.28098770987099 -0.84731316151615  0.57821483808381
 7 -4.36301118251825  0.59649731623162 -1.27864621942194
 7  1.88132852445245 -0.68660023302330 -0.40648912651265
 7  2.39613515541554  1.85130087558756 -0.62182892959296
 6 -4.76465285648565  1.22770426742674  0.00488628842884
 6 -4.43600099289929  0.33979414471447  1.16755411311131
 6 -2.90150524612461  0.05108536523652  1.32123413641364
 6 -2.03264236093609  0.67799275647565  2.18082125172517
 6 -0.70382699299930  0.04167873237324  1.91359203680368
 6 -0.93692788058806 -0.99346240514051  0.92440425982598
 6 -6.27543990009001  1.32108989828983 -0.07356257165717
 6  0.54344295089509  0.08601927842784  2.61230025012501
 6 -6.64026454095410  0.97882713111311 -1.41587731643164
 6 -0.14343059915992 -2.06102483938394  0.17797987948795
 6  1.12711960816082 -1.94451399799980 -0.24290587278728
 6 -5.40271087138714  0.53158137283728 -2.18241555305531
 6  2.04542862806281 -3.01840237863786 -0.84150115941594
 6 -2.08980468136814  1.72248800570057  3.13596798699870
 6 -7.06381387458746  2.00414854405441  0.88208219411941
 6  3.15061139483948 -2.29115906710671 -1.28697994309431
 6  1.09684571187119  1.59068756215622  2.54856849274928
 6  3.00612868816882 -0.93760238583858 -1.11769575777578
 6  1.62593636383638 -4.39881584598460 -0.85254697159716
 6 -7.91608751475148  0.88407004460446 -2.09663805160516
 6  1.85846341194119 -5.17028796339634  0.46912290779078
 6  4.24243985298530 -2.79786825562556 -2.19610884218422
 6  3.87736860746075  0.10092949644964 -1.48714339673967
 6  2.60964158535854  1.67501508970897  2.83475937583758
 6  3.59895427322732  1.44136954845485 -1.30835740304030
 6 -9.05759074247425  0.86853901420142 -1.39143395869587
 6  1.33822888758876 -6.54143079327933  0.43049170817082
 6  4.47700653525353  2.64804155905591 -1.51775885898590
 6  3.81266053445345  3.71184170787079 -0.94251554585459
 6  2.50735230603060  3.22341019211921 -0.34284304700470
 6  5.78574217951795  2.56186102670267 -2.23958591369137
 6  4.16125174497450  5.12208708450845 -0.93896590999100
 6  6.75002506010601  3.48615430023002 -2.37270174707471
 1 -4.31732621872187  2.32642372247225  0.08043108340834
 1 -4.79468412531253 -0.61780325642564  0.96337108130813
 1 -4.80669750965097  0.83203720342034  2.14063097279728
 1 -2.83607264716472 -1.45486288178818 -0.16000292209221
 1 -3.18606960426043  0.59750166726673 -1.32269982088209
 1  0.36867130183018 -0.36241592959296  3.64292384048405
 1  1.20400440984098 -0.75696036343634  2.29930506330633
 1 -0.75945460636064 -2.91233869886989  0.05865086738674
 1 -3.16923706900690  1.81071233533353  3.60511050075007
 1 -1.50254146924692  1.39490885478548  4.23540192809281
 1 -2.07149353045304  2.74454827462746  2.93133055485549
 1 -6.52258570947095  2.74419322282228  1.63874610761076
 1 -7.62956272327233  1.15671548074807  1.55728273897390
 1 -7.77019295649565  2.60208629172917  0.43539201940194
 1  0.83418612701270  2.08274031063106  1.55011307860786
 1  0.50278339083908  2.20981780378038  3.28928475267527
 1  1.48127245364536  0.30433107810781 -0.13102846814681
 1  2.18942673487349 -4.87713154355436 -1.65512012171217
 1  0.65141693919392 -4.48003785128513 -1.20606909030903
 1 -7.96012707450745  0.82994322492249 -3.20074601280128
 1  1.50328251715172 -4.58661984168417  1.38178575517552
 1  2.97578384848485 -5.10161736623662  0.81764957985799
 1  4.28008307060706 -3.90164761696170 -2.61255471657166
 1  5.23656475487549 -2.80481933213321 -1.70645426302630
 1  4.23101453455345 -2.06385861846185 -3.11335040864086
 1  4.74829444894490  0.00267817331733 -1.92748892459246
 1 -9.22867646814681  0.89971742724272 -0.33952664246425
 1 -10.03845197879788  0.52128354405441 -1.78186428642864
 1  3.94199888638864  2.72071545524552  3.11087585328533
 1  5.58580204840484  1.44176632583258 -2.59996881188119
 1  5.09778047784778  5.27617038123812 -0.28128674857486
 1  4.39563158565857  5.68667543324332 -2.02049459435944
 1  3.40586825642564  5.75555516191619 -0.55410715231523
 1  1.45552286038604 -8.13865502260226  1.71988804370437
 1  7.64285673007301  3.08874441434143 -3.00213748704870
 1  6.78069995749575  4.47956346854685 -1.89345169766977

