%nproc=4
%Mem=4GB
# td=(NStates=1) B3LYP/SVP 

TD

0 1
 8 -5.23628985898590  0.17704314391439 -3.28433822352235
 8  2.95170517601760  2.76342359705971  3.16530260866087
 8  3.42887123572357  0.61001640064006  2.79828171327133
 8  1.63481112061206 -7.21440771087109  1.47904641094109
 8  0.93555844384438 -7.14551097469747 -0.63555153805381
 8  1.65726277437744  4.05043816661666 -0.07434792739274
 7 -2.34653426452645 -0.97950638083808  0.60862787938794
 7 -4.33893877527753  0.61000866736674 -1.24203255805581
 7  1.90757114871487 -0.68615018801880 -0.32332080968097
 7  2.51529707160716  1.85207095259526 -0.59713646034603
 6 -4.78436482768277  1.20300179717972  0.06592239203920
 6 -4.51285867866787  0.45401556685669  1.29841719941994
 6 -2.98698379397940  0.00311056775678  1.47388940194019
 6 -1.88396749344934  0.57948290549055  2.21850502010201
 6 -0.81275788608861 -0.06102153765377  1.92289296689669
 6 -1.00401458925893 -0.95568862776278  0.79870168956896
 6 -6.22804516061606  1.41211900120012 -0.10483569896990
 6  0.50663927052705  0.12297297379738  2.74737375747575
 6 -6.52677319181918  0.86465571397140 -1.32476820552055
 6 -0.26964322042204 -1.90420915781578  0.12490457195720
 6  1.09575647184718 -1.83923346994699 -0.28592017421742
 6 -5.34799539983998  0.47000521522152 -2.13129044054405
 6  1.88794287948795 -2.89573011141114 -0.87614462376238
 6 -2.09997569846985  1.64081983888389  3.22376676687669
 6 -7.14095158835884  2.08069619881988  0.82449643554355
 6  3.06355268896890 -2.35573552475247 -1.22097334243424
 6  1.11644767206721  1.50709920332033  2.62985662156216
 6  3.02902097739774 -0.95700432603260 -0.96948093629363
 6  1.56310008020802 -4.23944990939094 -0.82895461236124
 6 -7.90014592059206  0.86315795339534 -2.04599298709871
 6  1.64885245084508 -5.02606354095410  0.50965696119612
 6  4.23817942694270 -2.96169463826383 -1.89612884418442
 6  4.04126499709971  0.13073247674767 -1.26748143054305
 6  2.59608022922292  1.45120270847085  2.82323822372237
 6  3.65053943174317  1.46360177167717 -1.11335790309031
 6 -9.06988197159716  0.78311047134713 -1.45816063136314
 6  1.38196326102610 -6.48385503570357  0.35630428942894
 6  4.55634446904690  2.66743349824982 -1.47040412351235
 6  3.83264253265327  3.80352087578758 -1.08458975327533
 6  2.52670424122412  3.35214306540654 -0.56588535123512
 6  5.77746135143514  2.61475631623162 -2.19843179827983
 6  4.15057067686769  5.27006188198820 -1.25932794619462
 6  6.68445850345034  3.52856854165417 -2.49888436533653
 1 -4.12732721882188  2.14965604570457  0.14398743904390
 1 -5.00230488738874 -0.53093456955696  1.04067881208121
 1 -5.03730056995700  0.89745374507451  2.08341525122512
 1 -2.77184622452245 -1.48382577807781 -0.13767068886889
 1 -3.23989498679868  0.22841475857586 -1.41257880878088
 1  0.55551998669867 -0.30993068106811  3.85205475357536
 1  1.27803181258126 -0.56457112451245  2.35164029682968
 1 -0.65548420932093 -2.79552701770177 -0.38153315101510
 1 -3.10280042534253  1.76760802490249  3.61244123382338
 1 -1.24001521662166  1.56489585348535  4.11666005390539
 1 -1.79251563266327  2.68133195299530  2.85824324612461
 1 -6.70999445034503  2.91248005150515  1.40782301530153
 1 -7.43948371537154  1.24056386558656  1.47518452915292
 1 -7.94181011821182  2.64548063116312  0.21408988918892
 1  1.01412412081208  1.91744378097810  1.60536860416042
 1  0.55061817431743  2.06701352335234  3.50188601280128
 1  1.59726405280528  0.31702234723472 -0.14905027032703
 1  1.94775256745675 -4.79629345974597 -1.73710832053205
 1  0.48176997449745 -4.45002484998500 -1.07459594299430
 1 -7.72317337913791  1.06295652625263 -3.21556749494949
 1  1.11754394329433 -4.39251043074307  1.33407098369837
 1  2.71442771287129 -5.02601980648065  1.10237805270527
 1  4.05788085038504 -4.09955740794079 -2.15235869696970
 1  5.26527762616262 -3.16865571577158 -1.27840145774578
 1  4.56320775387539 -2.57885011761176 -2.86489556315632
 1  5.11745136463646  0.00821872737274 -1.81565774147415
 1 -9.16500010051005  0.33648110361036 -0.21855454525453
 1 -9.95342347594760  0.78725014071407 -2.13515961596160
 1  3.81940662716272  2.81384476817682  3.37696246194619
 1  5.96883035123512  1.47833998319832 -2.72345116011601
 1  5.18941964176418  5.43659642384238 -0.83375199509951
 1  4.32690471297130  5.29847661336134 -2.36543908880888
 1  3.28035570517052  5.68587819421942 -0.78793053465347
 1  1.30504781288129 -8.20057121422142  1.29832588748875
 1  7.68640108450845  3.19252479237924 -2.91407868116812
 1  6.71291317881788  4.56754226642664 -2.18235058755876

