%nproc=4
%Mem=4GB
# td=(NStates=1) B3LYP/SVP 

TD

0 1
 8 -5.26616284628463  0.18487392699270 -3.24662445214521
 8  3.09247925342534  2.92590984568457  3.14019009740974
 8  3.34308265686569  0.75878127712771  3.01575346044604
 8  1.86358399789979 -7.33409968006801  1.39207771407141
 8  0.43855874387439 -6.93045946954695 -0.49480746364636
 8  1.74836188428843  4.00258338113811 -0.09463995659566
 7 -2.37426703780378 -1.04223265346535  0.67077409400940
 7 -4.36163104450445  0.69682734923492 -1.18476683148315
 7  1.92892328392839 -0.69390096309631 -0.36067454505451
 7  2.54541008290829  1.85477122262226 -0.58680542724272
 6 -4.85567195839584  1.19030052705271  0.08602440224022
 6 -4.44960235303530  0.26220638593859  1.17303466116612
 6 -2.94744984058406  0.00544080078008  1.30049206220622
 6 -1.99710880758076  0.62153711091109  2.11329449904990
 6 -0.81386799709971  0.03693825832583  1.84030470807081
 6 -1.00699488728873 -0.93436649554955  0.82094391379138
 6 -6.33048540464046  1.17682547184718 -0.13061827722772
 6  0.55558416501650  0.26743742024202  2.48355737583758
 6 -6.71019153365337  0.91539078747875 -1.32729845854585
 6 -0.17134339043904 -1.92746148304830  0.23673575507551
 6  1.11628852505250 -1.74252379897990 -0.32144372657266
 6 -5.35654625492549  0.58611682638264 -2.15476278777878
 6  1.94098818401840 -2.90238077647765 -0.88790579987999
 6 -2.30815651655166  1.69998575547555  3.15518990919092
 6 -7.28567606080608  1.72177030623062  1.03254724062406
 6  3.18971530523052 -2.38322827402740 -1.33599484458446
 6  1.14929095639564  1.61788028142814  2.40096373227323
 6  3.13618169346935 -0.94437306290629 -1.08667265546555
 6  1.60469423962396 -4.37808377277728 -0.90554227112711
 6 -7.99373527952795  0.76114775237524 -2.01797018481848
 6  1.74576214181418 -5.12847378197820  0.45130112561256
 6  4.35031064006401 -3.02055052385239 -1.85030426172617
 6  4.02079294989499  0.14732413591359 -1.36678136053605
 6  2.61010163136314  1.74044163236324  2.95262116201620
 6  3.67129150695070  1.62747815931593 -1.20127669496950
 6 -9.27229221262126  0.92304446474647 -1.41275609090909
 6  1.20762582728273 -6.60479712991299  0.36401506050605
 6  4.58874770937094  2.62298905380538 -1.51008809190919
 6  3.89495876427643  3.76809733343334 -1.05502679697970
 6  2.68507007780778  3.30121797289729 -0.50700946364636
 6  5.89935354065407  2.50613545414541 -2.07486944204420
 6  4.34680029982998  5.12136701250125 -1.04236625002500
 6  6.79941999959996  3.48284396919692 -2.49394387128713
 1 -4.34853934003400  2.26173725382538  0.35918895919592
 1 -4.87268192509251 -0.86361783788379  1.23496824102410
 1 -4.69080592049205  0.62502650235024  2.20303721342134
 1 -2.83513255315532 -1.64212160766077 -0.01067798959896
 1 -3.34854585188519  0.87067898499850 -1.44880243114311
 1  0.40398483318332  0.17223753575358  3.60891043914391
 1  1.28148215761576 -0.39555422282228  1.97039217201720
 1 -0.70604926582658 -2.91348881388139  0.07196219851985
 1 -3.43578372367237  1.91511277537754  3.28500849054906
 1 -2.15587680278028  1.04806417031703  4.12235062296230
 1 -1.79869625072507  2.61365518531853  3.11337875967597
 1 -6.81795524642464  2.25183398689869  1.84027626062606
 1 -7.85918568556856  0.83275308450845  1.53007001770177
 1 -8.03262920012001  2.08123420652065  0.55853433363336
 1  1.11665437383738  2.06768880548055  1.47802586988699
 1  0.64597771027103  2.37263408540854  3.17538336253625
 1  1.55329965636564  0.31454209920992 -0.16312167746775
 1  2.38724651685168 -4.74761859225923 -1.60341495119512
 1  0.53214501200120 -4.42159200670067 -1.22248073147315
 1 -8.00713177497750  0.61564179477948 -3.10842678087809
 1  1.02807499639964 -4.60799197889789  1.31393897049705
 1  2.81350762086209 -5.13245044954496  0.84173198809881
 1  4.56039110141014 -4.19255670787079 -1.90392385348535
 1  5.22671376977698 -2.57431628182818 -1.38043166076608
 1  4.44144557765777 -2.86041827442744 -3.03208228182818
 1  4.91405102460246 -0.10301239573957 -1.95038121382138
 1 -9.36951055155516  0.90082753825383 -0.35800849064906
 1 -10.08744687828783  1.10070148584858 -1.94919101910191
 1  3.93598828532853  2.78552193589359  3.44377914361436
 1  6.20250371857186  1.43396554575458 -2.35770458545855
 1  5.24721542134213  5.31336410061006 -0.43447206710671
 1  4.53808583108311  5.40288705440544 -1.99015156005601
 1  3.49015668526853  5.59259886628663 -0.42272401400140
 1  1.25586289438944 -8.22331348844885  1.32510856575658
 1  7.82820526492649  3.30912645254525 -2.82826009930993
 1  6.47248913641364  4.54043955615562 -2.34107646014601

