%nproc=4
%Mem=3GB
# td=(NStates=1) B3LYP/SVP 

TD

0 1
 8 -3.28069497969797 -1.22299735523552 -2.83010366466647
 8  3.57975843064306  2.88864052255225  2.94402867376738
 8  3.86359066726673  1.31896902520252  4.63103754735474
 8  7.68587719061906 -1.69632574677468 -0.53167392919292
 8  6.63695785218522 -3.03215401030103 -2.02495894399440
 8 -2.64283519001900  1.69915540464046  1.46886694719472
 7 -0.29883562976298 -2.29001531583158  0.77964280508051
 7 -2.75349738773877 -1.06170130513051 -0.53467561216122
 7  1.21819336873687  0.21307221692169 -0.72959789698970
 7 -1.16066521202120  1.40402581048105 -0.29455035293529
 6 -3.48350350005000 -1.31718928132813  0.74827180108011
 6 -2.66152477857786 -2.32063620982098  1.60032533933393
 6 -1.27759340104010 -1.92612042604260  1.71344933353335
 6 -0.60128993129313 -1.03933512521252  2.77854587508751
 6  0.79733084568457 -1.06372137313731  2.37558875347535
 6  0.92564525072507 -1.85111154585459  1.15430023402340
 6 -4.80209515611561 -1.94880052875288  0.25341222852285
 6  1.97487207860786 -0.48786911651165  3.17505966046605
 6 -4.81620798219822 -2.03296200460046 -1.09041938243824
 6  2.05370332673267 -1.80961915411541  0.23776605530553
 6  2.08205422732273 -0.78379029122912 -0.67853175467547
 6 -3.58145281518152 -1.44553651895190 -1.65027231063106
 6  3.00531159435944 -0.54071481978198 -1.75676957585759
 6 -1.26570514271427 -0.53059691669167  3.90296580488049
 6 -5.84205943004300 -2.24529100940094  1.27587859345935
 6  2.55561521842184  0.62983035123512 -2.36714132413241
 6  2.18237767016702  0.98448414041404  2.84062070367037
 6  1.31249461596160  0.99231588018802 -1.72107821382138
 6  4.18614396349635 -1.41872130123012 -2.07306693679368
 6 -5.77823215931593 -2.58993108350835 -2.01993544174417
 6  5.29350490149015 -1.16085783098310 -1.05327874477448
 6  3.32142223762376  1.31891029362936 -3.50569707890789
 6  0.42157458155816  1.99540468736874 -2.06230797589759
 6  3.32790143044304  1.69300888638864  3.55783112831283
 6 -0.73168700030003  2.25717034923492 -1.28134342224222
 6 -6.80185411191119 -3.46163992809281 -1.78561712041204
 6  6.59951952155216 -2.07271552665267 -1.17955864586459
 6 -1.55353400820082  3.44601683488349 -1.35457353205321
 6 -2.43876796619662  3.38807928692869 -0.29419732593259
 6 -2.10666293869387  2.09148008150815  0.45887481948195
 6 -1.38116809520952  4.48901516171617 -2.37307907590759
 6 -3.45658629512951  4.37314779767977  0.22618685838584
 6 -2.19840373157316  5.56819223742374 -2.48577231003100
 1 -3.74698319151915 -0.19073456335634  1.15789999459946
 1 -2.63301492789279 -3.27404252925293  1.19716006510651
 1 -3.01203102290229 -2.22710615501550  2.68560794949495
 1 -0.50554585938594 -2.67899666476648 -0.14017700770077
 1 -1.99599798949895 -0.19548585208521 -0.60092419481948
 1  1.95299326072607 -0.72158361216122  4.21906400550055
 1  2.74015134803480 -0.97072896419642  2.97973290269027
 1  2.89154796869687 -2.57339892279228  0.06130918411841
 1 -1.98383101240124 -1.17007628162816  4.27875493729373
 1 -0.49790955895590 -0.24952915651565  4.69472582908291
 1 -1.87955726952695  0.30815326202620  3.47601636693669
 1 -5.69825061226123 -1.57335546674667  2.17128142114211
 1 -5.64194295499550 -3.30356446104611  1.79752259855986
 1 -6.86273365016502 -2.17322296569657  0.92311867356736
 1  2.40856699609961  0.98568851075107  1.77627523882388
 1  1.36440639213921  1.70577282158216  2.94162213591359
 1  0.41453971157116  0.23711808160816  0.00327829552955
 1  4.72946866606661 -1.04160721972197 -3.15399100100010
 1  4.11111194099410 -2.61335311451145 -2.14997210521052
 1 -5.35113725212521 -2.51689261386139 -3.16457992179218
 1  4.91129905120512 -1.44188466836684 -0.01487826412641
 1  5.64324576587659  0.07862086598660 -0.87679216171617
 1  4.13525343684368  0.86076256835684 -4.02151038053805
 1  3.54532028362836  2.32796387508751 -3.07793012841284
 1  2.52345813511351  1.34183868176818 -4.46674982698270
 1  0.74403831383138  2.78508000450045 -2.80850174217422
 1 -7.28893797989799 -3.61896408030803 -0.68272729392939
 1 -7.34743300820082 -3.94329566006601 -2.67966101960196
 1  4.06063979147915  3.36168552955296  3.51072432663266
 1 -0.44916879567957  4.42736401590159 -3.09902779817982
 1 -4.47720631023102  4.52766934873487 -0.17014816631663
 1 -3.69828857855786  4.06242103570357  1.35854666606661
 1 -2.86254457065707  5.45830612171217  0.25672144204420
 1  8.38222391589159 -2.28234138833883 -0.77404803980398
 1 -1.98311123572357  6.11738219531953 -3.37490234243424
 1 -3.18671102400240  5.71701307710771 -1.81896780428043

