%nproc=4
%Mem=4GB
# td=(NStates=1) B3LYP/SVP 

TD

0 1
 8 -5.42026825682568  0.02999843944394 -3.23792358205821
 8  3.15618562406241  3.01295855055506  3.17636371477148
 8  3.34199254785479  0.76889228822882  3.03623550865087
 8  1.65539317881788 -7.22606887698770  1.52753125942594
 8  0.61616650465047 -7.03763018661866 -0.56509449234923
 8  1.88317536563656  4.01487461026103  0.19346885428543
 7 -2.30034964606461 -0.85320375057506  0.55854287088709
 7 -4.42938782018202  0.41538920542054 -1.19088744354435
 7  1.80222061366137 -0.70289186218622 -0.55611408900890
 7  2.56469201110111  1.83064881038104 -0.45320206690669
 6 -4.89537592879288  1.18157965496550 -0.00962516271627
 6 -4.37384477727773  0.27781794709471  1.17308466616662
 6 -2.85773086868687  0.06014627132713  1.32219423242324
 6 -1.91084018071807  0.68213317051705  2.13486665626563
 6 -0.67116372667267  0.06107067156716  1.82806348394839
 6 -0.97204139193919 -0.88147120602060  0.88738055745575
 6 -6.34565692179218  1.30942873217322 -0.11131634703470
 6  0.62435104170417  0.25121579807981  2.53594261436144
 6 -6.73621413591359  0.79511876027603 -1.38947467616762
 6 -0.18706496259626 -1.95283402030203  0.14618670017002
 6  1.06699359555956 -1.78600814741474 -0.42039362156216
 6 -5.48987958825883  0.32080029472947 -2.06021333283328
 6  1.92495658085809 -2.82434297269727 -0.88775578487849
 6 -2.15674137503750  1.75646140304030  3.07919230943094
 6 -7.19103659685969  1.81762989218922  0.98150213611361
 6  3.07578391209121 -2.33017296849685 -1.42959420452045
 6  1.10386641394139  1.77652614601460  2.58694233013301
 6  3.03693176847685 -0.92167079267927 -1.18548253645365
 6  1.46115988618862 -4.24209017341734 -0.88792050895090
 6 -8.00171607760776  0.57580921852185 -2.02820120792079
 6  1.68931649724972 -5.06477741234123  0.44851084658466
 6  4.30940654965497 -2.93226169496950 -2.17857708900890
 6  3.96886775737574  0.11536093959396 -1.42585726812681
 6  2.71573219441944  1.82226981518152  2.93235913581358
 6  3.73839821762176  1.42166757825783 -1.04804137143714
 6 -9.28324330773077  0.76363852415242 -1.59999481478148
 6  1.14708977367737 -6.51291794199420  0.31071973097310
 6  4.68846768136814  2.59358611351135 -1.38532561566157
 6  3.94561382978298  3.70248077177718 -0.86385768006801
 6  2.72889446024602  3.30188803990399 -0.34441320402040
 6  5.87485109040904  2.44622946354635 -2.13100505560556
 6  4.37680330013001  5.16325120092009 -0.92236424982498
 6  6.74272433003300  3.31671735653565 -2.51321579847985
 1 -4.35856034213421  1.94545562566257  0.05962900320032
 1 -4.89911456835684 -0.83923539963996  1.23441818601860
 1 -4.66659349924992  0.83116711641164  2.29339624932493
 1 -2.85066410631063 -1.66578397389739 -0.05102202400240
 1 -3.42845384268427  0.63919583668367 -1.59262681358136
 1  0.66201063576358 -0.13633332133213  3.67326687478748
 1  1.43888789818982 -0.15279994739474  2.14628976177618
 1 -0.77288594949495 -2.75953341834183 -0.17303230093009
 1 -3.14860500580058  1.78475974007401  3.52905289498950
 1 -1.68304952005201  1.82554191809181  4.12414080198020
 1 -1.87063344444444  2.72319613941394  2.70779820162016
 1 -6.54927837873787  2.49411821532153  1.47936016901690
 1 -7.81423119011901  1.13365317451745  1.67102411311131
 1 -7.97343328052805  2.52370845394539  0.45724420462046
 1  1.22667537593759  2.22178421502150  1.55165323262326
 1  0.58619173167317  2.45922274427443  3.22635846004600
 1  1.62891721812181  0.47612825782578 -0.26282164746475
 1  2.03279107130713 -4.68253208360836 -1.68875348504850
 1  0.38464026152615 -4.32648249574958 -1.03674215761576
 1 -7.84332539433943  0.36305653625363 -3.05260119831983
 1  1.00008219711971 -4.60837201690169  1.26718429502950
 1  2.73139941004100 -4.94966217071707  0.87758557345735
 1  4.19595465776578 -4.01282873507351 -2.21088454955496
 1  5.18301940034003 -2.70221907210721 -1.61386500410041
 1  4.42201363446345 -2.35191742434243 -2.96701577517752
 1  5.02854247374738 -0.06448854335434 -1.84753092879288
 1 -9.58907250775078  1.28604606010601 -0.54465715551555
 1 -10.16660479407941  0.28029944564456 -2.29525562556256
 1  4.11848653515352  2.93080646434644  3.46970173587359
 1  5.98337180538054  1.52772492169217 -2.58693750875088
 1  5.38648934873487  5.34228699289929 -0.48522714261426
 1  4.14075609810981  5.64394115981598 -1.93225577047705
 1  3.65868353795380  5.95732533893389 -0.35216695829583
 1  1.23615092319232 -8.08284944204421  1.58067412231223
 1  7.52806525092509  2.95708124802480 -3.25416268956896
 1  6.49557144464446  4.36884239643964 -2.36315866836684

