%nproc=4
%Mem=4GB
# td=(NStates=1) B3LYP/SVP 

TD

0 1
 8 -5.20814704470447  0.26155159475948 -3.29415920562056
 8  3.00488049354936  2.83354060876088  3.21076715511551
 8  3.25528387698770  0.60088548754875  3.07806969206921
 8  1.70877851735174 -7.18858512861286  1.54986349264926
 8  0.81113600160016 -7.09737616121612 -0.48640662356236
 8  1.70379742784278  3.92392551535154  0.20795030243024
 7 -2.42837244834483 -0.89509793999400  0.59411642824282
 7 -4.20935581698170  0.76141380788079 -1.15010336513651
 7  1.87394778637864 -0.73422499549955 -0.39601807940794
 7  2.50601614351435  1.86193193869387 -0.51714846154615
 6 -4.76882327352735  1.29167066406641  0.12691849164916
 6 -4.39763715651565  0.31033119841984  1.25681303900390
 6 -3.00833592919292 -0.07686743004300  1.38294030703070
 6 -1.98598769546955  0.61225618281828  2.19838300790079
 6 -0.78194480478048 -0.09341477697770  1.83377405500550
 6 -1.00776496429643 -1.03437649654965  0.87622944234423
 6 -6.20308266436644  1.26941473077308 -0.18130334573457
 6  0.49582818941894  0.19244992149215  2.54121314141414
 6 -6.51600211471147  0.84217346574657 -1.39990571927193
 6 -0.16816307240724 -2.00715945284528  0.19932201370137
 6  1.11988888508851 -1.85850539713971 -0.22751433363336
 6 -5.25628622892289  0.59203741844184 -2.12074938643864
 6  1.88412249744975 -2.93465400380038 -0.90802781208121
 6 -2.11642734363436  1.62627838473847  3.16869125932593
 6 -7.05214270747075  1.80020815001500  0.98394238013801
 6  3.12360869456946 -2.30812076327633 -1.35259650475048
 6  1.10187621492149  1.60192868626863  2.36679031493149
 6  3.00142821812181 -0.93284190979098 -1.03892788098810
 6  1.53378714891489 -4.35776174057406 -0.88252996989699
 6 -7.71880778677868  0.80704234183418 -2.12538092589259
 6  1.71785935153515 -5.09854078867887  0.51525752125213
 6  4.32736834583458 -3.01147961676168 -1.93500273157316
 6  3.85959683028303  0.01791119461946 -1.44842952535254
 6  2.57759838103810  1.61192878107811  2.95485138503850
 6  3.58047242504250  1.53550896239624 -1.11294786208621
 6 -8.98638362176218  0.98191035133513 -1.53299811511151
 6  1.38779384408441 -6.52485913611361  0.40714937393739
 6  4.44673350795080  2.68083483838384 -1.55071215431543
 6  3.77313658205821  3.79785030873087 -1.01411270557056
 6  2.55244681548155  3.33029088018802 -0.44083284598460
 6  5.75098870417042  2.58641348194819 -2.29651160626063
 6  4.13934955475548  5.24821969776978 -1.16308832223222
 6  6.57548760636064  3.55769145394539 -2.76901137803780
 1 -4.43779826592659  2.28811989208921  0.32007504780478
 1 -4.86104076097610 -0.70157163326333  0.92304704890489
 1 -4.81140798069807  0.72482648234824  2.26716362606261
 1 -3.21320035993599 -1.43245064056406  0.17154023222322
 1 -3.22860385768577  0.84639655675567 -1.37653520442044
 1  0.50892532723272  0.06588690069007  3.64346389448945
 1  1.40078408780878 -0.37158182558256  2.15951108390839
 1 -0.69898855975598 -2.81250871587159 -0.34841983968397
 1 -3.23338348364837  2.02868413251325  3.34597458715872
 1 -1.58379959505951  1.67712707660766  4.21340972887289
 1 -1.65625200630063  2.70142396219622  2.85502292409241
 1 -6.23587703860386  2.19521832533253  1.81696392939294
 1 -7.54416418341834  1.03112292149215  1.53162017271727
 1 -7.67389332653265  2.67082316541654  0.66755523572357
 1  1.09691239963996  1.97942997959796  1.35916398369837
 1  0.51362447494749  2.27734455645565  3.08544436863686
 1  1.72508683508351  0.15797644264426 -0.12702806810681
 1  1.85496328852885 -5.01854568496850 -1.92807741744174
 1  0.46691848934894 -4.48241808930893 -1.15536401980198
 1 -7.78917997979798  0.86213644424442 -3.26343228142814
 1  1.18849103800380 -4.59872105180518  1.33250082668267
 1  2.81601787188719 -4.98160536503650  0.72121993689369
 1  3.80440550285029 -4.03716116831683 -2.32673613471347
 1  5.11499259765977 -3.16404525472547 -1.15165878347835
 1  4.63453488658866 -2.44964719731973 -2.81422049564957
 1  4.77319693919392 -0.42538463296330 -1.74233040874087
 1 -9.01831543204320  1.18407586308631 -0.47180987078708
 1 -9.84898303190319  0.81476289198920 -2.17443354335434
 1  3.84048873537354  2.93058644234423  3.07715248094810
 1  6.03252672087209  1.63261541074107 -2.43099191419142
 1  5.10878157795779  5.47568033223322 -0.62551117101710
 1  4.26795881838184  5.56654342004200 -2.07485002990299
 1  3.22845051465147  5.75892549894989 -0.62944468606861
 1  1.12955026312631 -8.02189334643464  1.53027908280828
 1  7.46615906030603  3.17034257415742 -3.32280955425543
 1  6.41323321082108  4.63050856305631 -2.61859421192119

