%nproc=4
%Mem=3GB
# td=(NStates=1) B3LYP/SVP 

TD

0 1
 8 -3.36940385058506 -1.22665772127213 -2.95356601090109
 8  2.89359981478148  3.17100875937594  3.23267753865386
 8  3.79411371957196  1.43092022032203  4.26837128072807
 8  7.69611821472147 -1.49760587478748 -0.73966472827283
 8  6.61604576097610 -3.05135593049305 -1.96334278237824
 8 -2.74767567406741  1.73516900600060  1.38024808530853
 7 -0.23510925712571 -2.46225253955396  0.87209205000500
 7 -2.71913395139514 -1.12579771477148 -0.71197334193419
 7  1.24755630503050  0.09995090479048 -0.69240417761776
 7 -0.99227837333733  1.46737214511451 -0.22472337023702
 6 -3.32338748844884 -1.30500806320632  0.56755372927293
 6 -2.63564219031903 -2.29479362556256  1.56377168396840
 6 -1.19765540724072 -2.03083089708971  1.77189517811781
 6 -0.48399820212021 -1.21414260596060  2.87209523002300
 6  0.79576068866887 -1.19940494149415  2.53828502310231
 6  1.03846653285329 -1.99896633133313  1.30606541054105
 6 -4.72197714431443 -1.83014866356636  0.23706059335934
 6  1.93565815721572 -0.39871020062006  3.09481163566357
 6 -4.79359572097210 -1.87203591199120 -1.07272761326133
 6  2.06251420782078 -1.90456864906491  0.29008128682868
 6  2.13373939583958 -0.89045095729573 -0.62500640214021
 6 -3.57002167206721 -1.30681264656466 -1.72722000540054
 6  2.98035909910991 -0.72713346164616 -1.76327022592259
 6 -1.24224279647965 -0.51256511351135  4.01561707000700
 6 -5.69177440154015 -2.24352083238324  1.27101810741074
 6  2.46397605450545  0.33852122032203 -2.41433604360436
 6  1.84361379377938  1.04667035903590  2.87745438703870
 6  1.42313568006801  0.85311195979598 -1.76758286428643
 6  4.28542389148915 -1.51820124922492 -2.03588321842184
 6 -5.77638197429743 -2.46274836523652 -2.00475392359236
 6  5.46085163616362 -0.98901064626463 -1.31551496839684
 6  3.12643273867387  0.95367376997700 -3.68622513171317
 6  0.51628405250525  1.97927307420742 -1.92048379347935
 6  2.96864550485048  1.84229381488149  3.53011835703570
 6 -0.64094792639264  2.24088872107211 -1.14160944884488
 6 -6.83838776527653 -3.30967473157316 -1.62418097679768
 6  6.55669523912391 -2.01445970107011 -1.32350304030403
 6 -1.43493214801480  3.46120835403540 -1.27258533323332
 6 -2.44054814421442  3.33715419441944 -0.26825473167317
 6 -2.04775704810481  2.03925485898590  0.45275420742074
 6 -1.33179315771577  4.48961522172217 -2.29711147914791
 6 -3.41123175967597  4.21548203110311  0.30470471017102
 6 -1.76409030023002  5.81213663186319 -2.27469120192019
 1 -3.46663515671567 -0.30340583048305  1.20379458405841
 1 -2.69946157255726 -3.22042716771677  1.10440078917892
 1 -3.24860468026803 -2.13008645304530  2.52398178687869
 1 -0.26234153895390 -2.89169793489349 -0.01447443744374
 1 -1.91660004970497 -0.21761806530653 -0.61639574197420
 1  1.79224718611861 -0.55768722252225  4.19957205630563
 1  2.68405573847385 -0.73335522682268  2.70969589898990
 1  2.68418723262326 -2.74378596149615  0.48877193039304
 1 -1.89542217151715 -1.38768804280428  4.57959502130213
 1 -0.56314608260826 -0.04337854145415  4.82643900040004
 1 -2.03728304210421  0.29625207190719  3.82177094239424
 1 -5.68681946914691 -1.57194532573257  2.02460675367537
 1 -5.49101786248625 -3.20595470007001  1.77372021832183
 1 -6.64377175397540 -2.08228387178718  1.07383374507451
 1  2.09819595899590  1.21367130903090  1.67366497779778
 1  1.00529048054805  1.58895113941394  3.04727270097010
 1  0.29134739233923  0.13262763256326 -0.07921995429543
 1  4.34558027722772 -1.59550260926093 -3.19812541444144
 1  4.08133896369637 -2.53027480668067 -1.92461956995700
 1 -5.62221435983598 -2.22953387798780 -3.08837230103010
 1  5.16320424172417 -0.64602508240824 -0.37703447974797
 1  5.97852929422942 -0.11469846594659 -1.58565304780478
 1  3.77688760026003  0.37064355645565 -4.25883411291129
 1  3.49587533913391  2.00280135883588 -3.50379271467147
 1  2.40669645894589  1.00750524842484 -4.37399055105510
 1  0.73546745674568  2.65665716221622 -2.70767165916592
 1 -6.99501858795880 -3.41980416431643 -0.65852487368737
 1 -7.39069733463346 -3.83854518501850 -2.37971102460246
 1  3.35253898139814  3.67755711671167  3.91964521872187
 1 -0.73318719751975  4.25294657415742 -3.23506140154015
 1 -4.29851844144414  4.59468605040504 -0.47377852935294
 1 -3.93698244794479  3.84831962556256  1.08685949734974
 1 -2.98652696889689  5.27747803890389  0.65325109500950
 1  8.46478217171717 -2.14826798099810 -0.95350598559856
 1 -1.72024494909491  6.39235969306931 -3.22647749995000
 1 -2.40645299819982  6.21230260606061 -1.47881378887889

