%nproc=4
%Mem=3GB
# td=(NStates=1) B3LYP/SVP 

TD

0 1
 8 -3.27577448764877 -1.35311036653665 -2.86326698099810
 8  2.65443589838984  3.26749840834083  3.29690396129613
 8  3.97203151135114  1.36279340764076  4.06028047164717
 8  7.72385098799880 -1.52046816101610 -0.66220698249825
 8  6.74191834823482 -2.97637843274327 -2.07943439153915
 8 -2.55785669216922  1.65229071817182  1.51217127762776
 7 -0.27208295449545 -2.51156747104710  0.92049689048905
 7 -2.69967200520052 -1.20662579757976 -0.62117426202620
 7  1.12900444984498 -0.00272936323632 -0.75688062526253
 7 -1.03567271277128  1.42600800870087 -0.18515941384138
 6 -3.33545869556956 -1.32484004640464  0.66422339623962
 6 -2.68305693179318 -2.33561770797080  1.68791409820982
 6 -1.31379702140214 -2.07025483948395  1.81856984558456
 6 -0.60059986228623 -1.26980817251725  2.82530055055506
 6  0.78387950055005 -1.15124012501250  2.54376557115712
 6  1.00500318651865 -1.92359879457946  1.24775957995800
 6 -4.70060500710071 -1.72565821452145  0.24295118241824
 6  1.86728131953195 -0.25811614121412  3.13245540004000
 6 -4.85266162756276 -2.01885059345935 -1.10569090959096
 6  2.17726568296830 -1.90754894709471  0.39468174687469
 6  2.16011203310331 -0.95780769296930 -0.54196809830983
 6 -3.51721639153915 -1.47506947224722 -1.64839212261226
 6  3.01763282648265 -0.71793254155416 -1.84017791669167
 6 -1.34341291349135 -0.51021487848785  3.83253876217622
 6 -5.84514973907391 -2.07718419871987  1.15899690529053
 6  2.56375603250325  0.42965033323332 -2.53159776977698
 6  1.78247768016802  1.16249194119412  2.81862850445045
 6  1.32869623612361  0.83537018561856 -1.87662376837684
 6  4.21619696879688 -1.49963939303930 -2.07696732683268
 6 -5.88148248434843 -2.45578766916692 -1.99662311051105
 6  5.37317286828683 -1.13206495169517 -1.19063248014801
 6  3.07066716211621  1.10547895049505 -3.69854636383638
 6  0.49647207130713  1.95874102100210 -2.04281602670267
 6  2.92046068636864  1.92228181368137  3.52146749194919
 6 -0.57992182378238  2.24360899309931 -1.23529881778178
 6 -6.86357028352835 -3.30825458955896 -1.73227178587859
 6  6.65822539213921 -1.95416367146715 -1.41705239523952
 6 -1.43441209600960  3.49512174537454 -1.23276135083508
 6 -2.26275036443644  3.37719819881988 -0.16763466966697
 6 -1.89408168056806  2.07792872637264  0.51236016801680
 6 -1.17974795319532  4.47980424062406 -2.32117388538854
 6 -3.34630526702670  4.26915739863986  0.39919415911591
 6 -1.77497138833883  5.76010142834283 -2.24257799059906
 1 -3.27655614881488 -0.33221871177118  1.08908311291129
 1 -2.53544517091709 -3.34840996599660  1.32510285938594
 1 -3.36149596939694 -2.11162460686069  2.66445583428343
 1 -0.59329463426343 -3.14656342144214  0.15559256925693
 1 -2.04497288698870 -0.46051235473547 -0.70912501490149
 1  1.67125508690869 -0.41257271107111  4.05517761686169
 1  2.86238357125713 -0.68067995929593  2.71081601100110
 1  2.97691650555055 -2.64386596949695  0.65566862006201
 1 -1.87776040534053 -1.29563883788379  4.51972903470347
 1 -0.61975174317432  0.07944374077408  4.53151950845085
 1 -2.23316263006301 -0.00129768306831  3.36210497579758
 1 -5.60201098829883 -1.74255238643864  2.05471976497650
 1 -6.00262902360236 -3.24453855845585  1.36337918421842
 1 -6.78881625842584 -1.81151679507951  0.73092945464546
 1  1.91341748114812  1.35616555845585  1.82260987228723
 1  0.87165711721172  1.76900914521452  3.07596557025703
 1  0.36592485008501  0.28477284708471 -0.14876690899090
 1  4.52786850605061 -1.34289734873487 -3.18923452535254
 1  3.93891472127213 -2.47705948514852 -2.19512662066207
 1 -5.72212435083508 -1.86286721132113 -3.00487395119512
 1  5.33988190949095 -1.33479395929593  0.08374159785979
 1  5.41516295759576  0.02611561546155 -1.29426390889089
 1  3.91681159265927  0.41728822092209 -4.04775300480048
 1  3.59375512711271  2.12740381908191 -3.26815915131513
 1  2.32985877517752  1.20184468236824 -4.50954410641064
 1  0.76894080408041  2.66143764026403 -2.91587247924792
 1 -7.09294838093809 -3.72570475437544 -0.76477549874988
 1 -7.62400066496650 -3.76388771927193 -2.45537859135914
 1  3.38789251675168  3.75522488348835  3.61267452165216
 1 -0.53707758655866  4.04275555505551 -3.06933482888289
 1 -4.14744333393339  4.90223680548055 -0.26313746524652
 1 -3.88223697339734  3.72686748034803  1.14581539293929
 1 -2.67311562776278  5.05425571667167  0.96218198809881
 1  8.40604629812981 -2.08023117731773 -0.73225386038604
 1 -1.61541446604660  6.42502295939594 -2.96404125632563
 1 -2.47045939883988  6.04189556535654 -1.25556146364636

