%nproc=4
%Mem=4GB
# td=(NStates=1) B3LYP/SVP 

TD

0 1
 8 -5.18190442044204  0.15135057465747 -3.33220301000100
 8  3.08316832233223  2.84475172987299  3.17698377677768
 8  3.26504485308531  0.61250664966497  3.07393927902790
 8  1.68207584708471 -7.23912018211821  1.43731223752375
 8  0.59558444644464 -6.95977240084008 -0.54846282918292
 8  1.48888593669367  3.86707983078308 -0.09488998159816
 7 -2.32514212531253 -0.96302473267327  0.70313733033303
 7 -4.28479336073607  0.47410507700770 -1.22474082888289
 7  1.91346173777378 -0.67724929792979 -0.32314079167917
 7  2.55873141504150  1.87160290579058 -0.47850459715972
 6 -4.66152254345435  1.08902039903990 -0.07770197039704
 6 -4.44822221502150  0.23225339063906  1.28295565326533
 6 -2.93083817941794 -0.06620636393639  1.49147116011601
 6 -1.90469956665667  0.54186914411441  2.19033220282028
 6 -0.69427603790379 -0.12455789128913  1.96225690329033
 6 -0.94314850265027 -1.10410346924692  0.96454827422742
 6 -6.05240759685969  1.41293908320832 -0.21008622402240
 6  0.60230883748375  0.23480415691569  2.65695471557156
 6 -6.57309782428243  1.01738098649865 -1.40039576827683
 6 -0.21569782588259 -1.99052778967897  0.21678375987599
 6  1.17024392059206 -1.80125967256726 -0.16171775397540
 6 -5.31406200650065  0.46193440814081 -2.16370368186819
 6  1.92039612481248 -2.89311985038504 -0.81845885518552
 6 -2.18593429432943  1.59466522342234  3.17380177037704
 6 -6.96149364256426  2.06738486768677  0.84735872177218
 6  3.13174950865087 -2.28381833303330 -1.30830207530753
 6  1.22769879717972  1.64195268866887  2.64583821972197
 6  3.06672474777478 -0.91932055765577 -1.03040702890289
 6  1.60964473467347 -4.29614557895790 -0.88741045794579
 6 -7.81923782978298  0.99341097869787 -2.07887627542754
 6  1.72275984158416 -5.08255919051905  0.43460945644564
 6  4.17637324632463 -2.95788425722572 -2.09077830913091
 6  3.90531140174017  0.15813521702170 -1.35813049544955
 6  2.63373399459946  1.63336092429243  3.05189108900890
 6  3.69800417821782  1.46700211171117 -1.01445801310131
 6 -9.03604858825883  0.98753091339134 -1.49170398569857
 6  1.34248931363136 -6.47461411161116  0.31239989898990
 6  4.34490332493249  2.69949670457046 -1.59094617771777
 6  3.63742301070107  3.78217874157416 -1.23518481278128
 6  2.42534410521052  3.31633948504850 -0.55611437413741
 6  5.77857146244625  2.52708754935494 -1.99415137023702
 6  4.00710633043304  5.19538441424142 -1.30047206060606
 6  6.54669472707271  3.48861454625463 -2.58890336723672
 1 -4.07518200430043  2.08314939503950  0.07872091239124
 1 -5.01775643254325 -0.59135061116112  1.27077182138214
 1 -4.55248208810881  0.82768676837684  2.26669357905791
 1 -2.81921096099610 -1.45694308980898  0.06414949314931
 1 -3.28109910721072  0.42256417351735 -1.44728227912791
 1  0.41416585128513 -0.29763945194519  3.77212676077608
 1  1.49998400780078 -0.42762743014301  2.26735186798680
 1 -0.70643930483048 -2.85533299829983 -0.29613461116112
 1 -3.41385153045305  1.73301456555656  3.15937592729273
 1 -1.61309252435244  1.31014037793779  4.21160954885489
 1 -1.68104448554855  2.54844866466647  2.74561198299830
 1 -6.36252970387039  2.66226503000300  1.36545877887789
 1 -7.26055582258226  1.22936274547455  1.51249826052605
 1 -7.91956789398940  2.45275135823582  0.39252773297330
 1  1.27421012941294  1.90930296689669  1.53443151045105
 1  0.66157927042704  2.46833365536554  3.21701752595260
 1  1.59603392979298  0.22483312831283 -0.17272263756376
 1  2.23844163636364 -5.09930376077608 -1.61433604330433
 1  0.70103190069007 -4.41260110761076 -1.33831231463146
 1 -7.71626268806881  0.99934016461646 -3.06904284248425
 1  1.18026021492149 -4.60862204190419  1.30990856745675
 1  2.72711898199820 -5.09548675317532  0.84847266216622
 1  3.88615367766777 -3.95781323352335 -2.25086854795480
 1  5.20219131753175 -2.67232608280828 -1.43979759735974
 1  4.27919935303530 -2.68388062066207 -3.18384745834583
 1  4.82203182268227 -0.14450654515452 -1.90261643734373
 1 -9.28461206170617  0.99951740724072 -0.45038772857286
 1 -9.92947108070807  0.99723113881388 -2.10815691569157
 1  3.87272195869587  2.85629901360136  3.41205597129713
 1  6.18958242644264  1.44784693389339 -1.61626044104411
 1  5.20796149594960  5.22995575977598 -1.13902252215222
 1  3.94222624512451  5.57791455715572 -2.43012555745574
 1  3.32435010461046  6.01025063146315 -0.88579032063206
 1  1.33244055215522 -8.11405256235624  1.25752180708071
 1  7.61986443084308  3.38479401930193 -2.60347762106211
 1  6.12182406990699  4.54422993519352 -2.88968132063206

