%nproc=4
%Mem=3GB
# td=(NStates=1) B3LYP/SVP 

TD

0 1
 8 -3.26566347654766 -1.46071112661266 -2.85278593289329
 8  2.88712916771677  3.13463512201220  2.86743101400140
 8  3.56303061126113  1.47574470277028  4.31279572317232
 8  7.66052465536554 -1.73052916711671 -0.64827558935894
 8  6.63365752215222 -3.10138093299330 -2.10806725482548
 8 -2.92024293079308  1.57297278637864  1.31535159565957
 7 -0.24236998319832 -2.47177349164917  0.96538137893789
 7 -2.58055009300930 -1.26469160416042 -0.58429057365737
 7  1.11835338473847  0.09485039473947 -0.71920685788579
 7 -1.07542668816882  1.54383979187919 -0.16802770067007
 6 -3.29253440314031 -1.36890445284528  0.62571954585459
 6 -2.67208583468347 -2.41138528472847  1.65785109190919
 6 -1.19593523522352 -2.04260207420742  1.80778876747675
 6 -0.47450725302530 -1.21829302100210  2.84351237173717
 6  0.83613472607261 -1.20739574057406  2.42999419401940
 6  1.01430411661166 -1.96130256495650  1.21659646364636
 6 -4.67403234983498 -1.84389003770377  0.28447533483348
 6  1.93507809920992 -0.36313664326433  3.10360251475148
 6 -4.68392475387539 -2.00373908230823 -1.03253359385939
 6  2.06590454685469 -1.92468066026603  0.19789206790679
 6  2.10689671157116 -0.89939185138514 -0.71782568406841
 6 -3.45301997189719 -1.48708067336734 -1.69021630503050
 6  3.01485254845485 -0.62051279957996 -1.67958185708571
 6 -1.27926649884988 -0.52725658265827  3.95731123942394
 6 -5.72686791089109 -2.02051853215322  1.31681268686869
 6  2.57112676957696  0.43284065226523 -2.39352396239624
 6  1.91925135753575  1.08335402740274  2.66300294189419
 6  1.36470983748375  0.94584123272327 -1.78101420742074
 6  4.25300064916492 -1.47413684278428 -1.96883651375138
 6 -5.82489682578258 -2.39968205860586 -1.90934438263826
 6  5.48248379937994 -1.13273501870187 -1.32639605650565
 6  3.36237633303330  1.18521692429243 -3.51375788498850
 6  0.64444686878688  2.09893504040404 -1.95850759585959
 6  2.93324196449645  1.93480306580658  3.41245659085909
 6 -0.58520235183518  2.34573920612061 -1.10222551045105
 6 -6.85324925142514 -3.26470023412341 -1.62381093979398
 6  6.57007657725773 -2.09045730083008 -1.41006169616962
 6 -1.49391804660466  3.56442867606761 -1.10371844654465
 6 -2.46738082748275  3.31211169016902 -0.23583148934893
 6 -2.19374164656466  2.03767470097010  0.43896282828283
 6 -1.25627560596060  4.68301456165617 -2.08669043704370
 6 -3.51182181868187  4.29821030393039  0.09769400910091
 6 -1.77851174237424  5.92354777297730 -2.15877961076108
 1 -3.44452294549455 -0.26819230913091  1.30034423902390
 1 -2.67573920032003 -3.37004212921292  1.17493784288429
 1 -3.09432925272527 -2.58996244064406  2.59478886758676
 1 -0.55352065686569 -3.01327009210921  0.11049805980598
 1 -1.97673606330633 -0.39693599709971 -0.94418852125213
 1  1.70828879027903 -0.45776723052305  4.12941504060406
 1  2.96599393229323 -0.90502239353935  2.98308323772377
 1  2.66970578447845 -2.62438402130213  0.15495854905491
 1 -1.75539816911691 -1.16643591759176  4.74394145594559
 1 -0.55157492549255 -0.12602680628063  4.59198555505551
 1 -1.99151846564656  0.03958640534053  3.63349211451145
 1 -5.65458624582458 -1.26652478367837  2.21610590359036
 1 -5.68587734843484 -3.15189929452945  1.69152199849985
 1 -6.83562093889389 -1.86614225762576  0.81132749444945
 1  2.13138927832783  1.35031497339734  1.65196280758076
 1  0.85102505400540  1.63704594889489  2.65366334003400
 1  0.14911316891689  0.08930330013001 -0.27846987928793
 1  4.44854057325733 -1.65643870287029 -3.01664726662666
 1  3.89479030883088 -2.49133091229123 -1.52876998499850
 1 -5.41494363276328 -2.31725264986499 -2.98008147194719
 1  5.24509243054306 -1.08977945784578 -0.38253502980298
 1  5.88064950625063 -0.30728772487249 -1.57098158065807
 1  4.12960287178718  0.47469396149615 -4.00971920142014
 1  3.74593034463446  2.16095717441744 -3.24123645904590
 1  2.74871066036604  1.45164966286629 -4.24909806180618
 1  0.83914782478248  2.95253675017502 -2.69756064806481
 1 -7.19912899899990 -3.68697088098810 -0.54252327352735
 1 -7.32184044894489 -3.71031236173617 -2.47961101460146
 1  3.57516124362436  3.72297165816582  3.28629188338834
 1 -0.27330120892089  4.59036031553155 -2.75808370377038
 1 -4.00330892049205  5.00715729752975 -0.71648279977998
 1 -4.47670642034203  3.65139993359336  0.78558937033703
 1 -2.98413672987299  5.18221851295129  1.00947671757176
 1  8.52343803730373 -2.28582173637364 -0.56203683868387
 1 -1.36168909350935  6.63371382848285 -2.91249610181018
 1 -2.52036438933893  6.39995137093709 -1.50267617511751

