%nproc=4
%Mem=4GB
# td=(NStates=1) B3LYP/SVP 

TD

0 1
 8 -5.12569879987999  0.40763620322032 -3.31588137783778
 8  3.20061006650665  2.79800705540554  2.93327940634063
 8  3.45133348194820  0.55840123912391  3.05263714881488
 8  1.84309194869487 -7.25303157325733  1.38620712701270
 8  0.42643753175318 -6.96978340194019 -0.39502748564856
 8  1.56921396949695  3.86514963776378  0.08618812621262
 7 -2.35935554665467 -1.01262969316932  0.65083209980998
 7 -4.29948482988299  0.76614428092809 -1.11178953375338
 7  1.88996938853885 -0.68037961096110 -0.25862434003400
 7  2.50530607250725  1.82440818631863 -0.52677942464246
 6 -4.78246463766377  1.28912040904090  0.18878467826783
 6 -4.35942333513351  0.27092725802580  1.27567492519252
 6 -2.88146324192419  0.07443770047005  1.34993700670067
 6 -1.96450554725473  0.61286624382438  2.16026919651965
 6 -0.70991760206021 -0.06368180368037  1.91144182178218
 6 -0.90235442324232 -1.03775683458346  0.92044386378638
 6 -6.29522187828783  1.39269705900590 -0.14449966536654
 6  0.66979558615862  0.10256093259326  2.50954997509751
 6 -6.65800631513151  0.94042329072907 -1.42378810751075
 6 -0.10423667976798 -2.01499023592359  0.26260834233423
 6  1.18166506270627 -1.85329487608761 -0.22189377157716
 6 -5.30224082438244  0.72323053775378 -2.10460777227723
 6  2.00798488368837 -2.89173971237124 -0.69146615591559
 6 -2.28314401530153  1.70727648454845  3.12236662686269
 6 -7.12207970117012  1.69340746994699  0.97492147804780
 6  3.15276160986099 -2.32540249144914 -1.22756400150015
 6  1.29120514781478  1.47274576797680  2.57178081398140
 6  3.01472954825483 -0.93379200480048 -0.95710969916992
 6  1.60075384558456 -4.28445440984098 -0.87306902380238
 6 -7.83899980598060  0.95336697429743 -2.17315570337034
 6  1.73271083668367 -5.07665860046005  0.48801479697970
 6  4.37683329232923 -2.94593306210621 -1.83786301760176
 6  3.87605847644764  0.06926633013301 -1.40825550795080
 6  2.74177479867987  1.50484807300730  2.86612251215122
 6  3.55784016181618  1.47276268776878 -1.22902947024703
 6 -9.15148013141314  0.76622878317832 -1.85254006930693
 6  1.26022108680868 -6.45649229942994  0.39286794579458
 6  4.41393022762276  2.65503225812581 -1.56410349344934
 6  3.75834510291029  3.74762528622862 -1.01371266556656
 6  2.51161273207321  3.25135298639864 -0.49061782448245
 6  5.78603220852085  2.54690953155316 -2.20085204030403
 6  3.89482510231023  5.32810768656866 -1.18983099649965
 6  6.54381443904390  3.53220890569057 -2.65567004390439
 1 -4.47741222732273  2.26648772887289  0.26433947424743
 1 -4.64607926482648 -0.62544402050205  0.92592733693369
 1 -4.71803864376438  0.80779477917792  2.23839074877488
 1 -2.82517155705571 -1.48754615011501 -0.10227714951495
 1 -3.31285228252825  0.90571248834883 -1.31606915781578
 1  0.41927636233623 -0.26137582558256  3.62280182828283
 1  1.42968697809781 -0.45709037643764  2.16410154295430
 1 -0.50620928182818 -3.06794425942594  0.00998600090009
 1 -3.32084222952295  2.09055031913191  3.32645263496350
 1 -1.86408762386239  1.34234359825983  4.04471285918592
 1 -1.80740712181218  2.74294811461146  2.86003342514251
 1 -6.72527597849785  2.30866967046705  1.92135436843684
 1 -7.66571633863386  0.90715052425243  1.50706771747175
 1 -7.92965890309031  2.15678176127613  0.78125660586059
 1  1.41603431183118  2.14011604820482  1.53016108340834
 1  0.64005711821182  2.04249107110711  3.29872569676968
 1  1.46786111251125  0.27389803480348 -0.13544891019102
 1  2.41809960216022 -4.82299613001300 -1.47137174687469
 1  0.54902670017002 -4.45224507200720 -1.41840032343234
 1 -7.57092815461546  0.93108333893389 -3.23592953115312
 1  1.10619280818082 -4.61275245494549  1.31387896449645
 1  2.86986325642564 -5.03093029752975  0.79734754965497
 1  4.00110517281728 -3.98132558475848 -2.24406786788679
 1  5.22384348274827 -2.96149499969997 -1.33295691329133
 1  4.57421885498550 -2.23679591219122 -2.79251832543254
 1  4.62401202070207 -0.37528962346235 -2.03629980568057
 1 -9.63014661516152  0.71343879937994 -0.79579226902690
 1 -9.98819695329533  0.88796021172117 -2.67998409840984
 1  4.11190587708771  2.84689807350735  3.36638140384038
 1  6.13081654985498  1.63426557575758 -2.51105992099210
 1  4.89398009780978  5.41967473167317 -0.58877749764976
 1  4.00918294079408  5.54671143684368 -2.32485503040304
 1  3.01004867446745  5.82385199159916 -0.62322406400640
 1  1.22146945504551 -8.02398355545555  1.52411846674667
 1  7.43516596099610  3.44965050495049 -3.20802807610761
 1  6.12412429992999  4.60272578477848 -2.48978133063306

