%nproc=4
%Mem=3GB
# td=(NStates=1) B3LYP/SVP 

TD

0 1
 8 -3.17735464566457 -1.43184824032403 -2.87088774307431
 8  3.25946640144014  3.24643630213021  3.01101537243724
 8  3.76616092429243  1.37441456975698  4.35751019461946
 8  7.66258486138614 -1.59294540874087 -0.80516127792779
 8  6.55890004640464 -3.33411420632063 -1.94138058615862
 8 -2.86605751225123  1.49147463656366  1.34995505600560
 7 -0.31021676787679 -2.41924823912391  0.95871071187119
 7 -2.72493453145315 -1.25929106410641 -0.62027417201720
 7  1.03126467586759  0.11644255395540 -0.71447638483848
 7 -1.18341748724872  1.46828223612361 -0.26428732663266
 6 -3.33372852255226 -1.38633619601960  0.62539951385139
 6 -2.59686831293129 -2.39631377757776  1.68033334013401
 6 -1.21215685738574 -1.91054886888689  1.82699068766877
 6 -0.66212601490149 -1.02780397209721  2.69047706820682
 6  0.77152826542654 -0.96105110611061  2.40875206980698
 6  0.97880056625663 -1.78459489418942  1.27498230223022
 6 -4.70708565516552 -2.00611626032603  0.18632551985199
 6  1.95602019341934 -0.24522485208521  3.02579473397340
 6 -4.67985434683468 -2.23547225562556 -1.17848818931893
 6  2.04063201960196 -1.95766395859586  0.23842612131213
 6  2.02501852375238 -0.96972888508851 -0.70716461796180
 6 -3.45906057595760 -1.60586255155516 -1.63278056145615
 6  2.99429049224923 -0.64859560786079 -1.73494739363936
 6 -1.32853142534253 -0.31476533353335  3.82985849414941
 6 -5.88647387148715 -2.17051353165317  1.18116912251225
 6  2.55359501640164  0.53700106830683 -2.35275988598860
 6  1.93537296969697  1.16912260426043  2.75570221182118
 6  1.31590495699570  0.99011566016602 -1.75853195919592
 6  4.21731708080808 -1.49464889398940 -2.10422005210521
 6 -5.67530186628663 -2.66971906230623 -2.02364581278128
 6  5.42521807280728 -1.16455820102010 -1.26491990889089
 6  3.11365146054605  1.18284668726873 -3.52107861706171
 6  0.53796622072207  2.08147329422942 -1.90860260536054
 6  3.11275991629163  1.87222680818082  3.48581392659266
 6 -0.62242607420742  2.32322695489549 -1.09360464836484
 6 -6.73594752125212 -3.44451821592159 -1.75217377607761
 6  6.53284285388539 -2.19591784688469 -1.33271396139614
 6 -1.42486114091409  3.66544877807781 -1.11370944564456
 6 -2.34179826922692  3.44403488248825 -0.10711861806181
 6 -2.11014328672867  1.96868780228023  0.41427035903590
 6 -1.19181916031603  4.73361962216222 -2.08250001800180
 6 -3.44859549604961  4.43177366026603  0.33345758545855
 6 -1.73985787698770  5.89308472667267 -2.16997072987299
 1 -3.43347184038404 -0.36809229912991  1.02346655125513
 1 -2.60584221062106 -3.39199432443244  1.26024637373737
 1 -3.13820364016402 -2.21606505090509  2.63879326802680
 1 -0.32258756355636 -3.13781254635464  0.05832284228423
 1 -2.06903529322932 -0.59906621012101 -0.80982508490849
 1  1.68158612001200 -0.55664711851185  4.15375747484748
 1  2.87153448634863 -0.68516040734073  2.80899582898290
 1  2.88416723062306 -2.53156473937394  0.36239929312931
 1 -1.91326395569557 -1.06873614761476  4.29172623442344
 1 -0.54457422542254  0.05540133653365  4.55991234773477
 1 -1.95748506230623  0.62577502420242  3.48288705400540
 1 -5.52499328652865 -1.52245037623762  2.04877917091709
 1 -6.09483824452445 -3.28389249384939  1.61906475277528
 1 -6.62065944274427 -1.83445908930893  0.67047340904090
 1  2.01167730713071  1.29034897679768  1.69496710801080
 1  0.99221917341734  1.87679992429243  3.03833180688069
 1  0.22853111071107  0.08526289608961 -0.01047307960796
 1  4.33881960116012 -1.37141020002000 -3.13184878677868
 1  3.89582041184118 -2.61025280448045 -1.90099720772077
 1 -5.69092123052305 -2.43260418501850 -2.99271273507351
 1  5.15413333463346 -1.24652513241324 -0.09511628792879
 1  5.69888132943294 -0.29642663876388 -1.54404888738874
 1  4.01277118861886  0.68086457855786 -3.71876010551055
 1  3.27473322492249  2.23763484218422 -3.20538287368737
 1  2.35153094239424  1.35638013591359 -4.31540469246925
 1  0.92977688768877  2.73787528402840 -2.73554444644464
 1 -6.78388747484748 -3.84404658855886 -0.64453347454745
 1 -7.37274553945395 -3.67696902740274 -2.57827088058806
 1  4.03215694319432  3.39658901990199  3.61436469066907
 1 -0.33879775857586  4.39172045154515 -2.84353224862486
 1 -4.04554314391439  4.94370095189519 -0.58814996649665
 1 -4.20142889258926  3.87023181678168  1.00059087048705
 1 -2.92305062126213  5.29036932803280  1.18361413131313
 1  8.29034472797280 -2.31207436163616 -1.04066470147015
 1 -1.50444336893689  6.57014747184718 -2.88716356855686
 1 -2.37344969786979  6.38341971777178 -1.24133004050405

