%nproc=4
%Mem=3GB
# td=(NStates=1) B3LYP/SVP 

TD

0 1
 8 -3.16967387758776 -1.39031408690869 -2.84473512781278
 8  3.29257971277128  3.05578723722372  3.04432870377038
 8  3.59586389458946  1.38820594889489  4.59073351695169
 8  7.62712131503150 -1.59056517071707 -0.44867562936294
 8  6.76785094149415 -2.87240803570357 -2.08599504760476
 8 -2.61953285978598  1.59956544564456  1.35728578907891
 7 -0.29178492469247 -2.42932924722472  0.91473631443144
 7 -2.69926196419642 -1.18875401040104 -0.49038118271827
 7  1.03358490789079  0.02032294199420 -0.87233217041704
 7 -1.02096124162416  1.44916032393239 -0.30449134703470
 6 -3.45803095279528 -1.29510707310731  0.71576855075508
 6 -2.63107173327333 -2.36216036223622  1.77373268006801
 6 -1.23921956365637 -2.04657247124713  1.85527351595160
 6 -0.46139594189419 -1.23588478017802  2.86914493499350
 6  0.78757987058706 -1.17116211721172  2.47977917251725
 6  0.92333501970197 -1.83088952365237  1.21187599159916
 6 -4.74741968856886 -1.99504515321532  0.29773666096610
 6  1.94672926432643 -0.44256458605861  3.14562671717172
 6 -4.73998035943594 -2.15214392279228 -1.04065440594059
 6  2.12491044744474 -1.81000919311931  0.32310458915892
 6  2.02755877777778 -0.85300721292129 -0.69578347984798
 6 -3.47366203610361 -1.58384034933493 -1.59630691409141
 6  2.91567263046305 -0.66623737203720 -1.90291419031903
 6 -1.33114168636864 -0.55840969796980  3.88708421672167
 6 -5.90907613171317 -2.18559503980398  1.23933493909391
 6  2.53938359525953  0.43945131333133 -2.49890450045004
 6  2.07972740514051  1.00081577357736  2.69589623122312
 6  1.28765213171317  0.91017766636664 -1.84577068306831
 6  4.18130347944794 -1.46184561366137 -2.07912754285429
 6 -5.80857519361936 -2.40587267766777 -1.99381282948295
 6  5.42720827182718 -0.99734147934793 -1.22388580548055
 6  3.26945704110411  0.97055545814581 -3.76411292049205
 6  0.45012743684368  2.03023817071707 -2.13151489658966
 6  3.08696733703370  1.80247983348335  3.57753309850985
 6 -0.65657948954895  2.29230386258626 -1.29970525842584
 6 -6.93673760026003 -3.17771153525353 -1.71211977067707
 6  6.69700927052705 -1.91448970407041 -1.34066475647565
 6 -1.39706836163616  3.56848908210821 -1.25701377607761
 6 -2.39632372177218  3.41166164516452 -0.28101600780078
 6 -2.01764403680368  2.15721665516552  0.44690362236224
 6 -1.23308328672867  4.67876413661366 -2.16643841184118
 6 -3.47374801130113  4.28673915681568  0.25799003870387
 6 -1.89948383958396  5.82391780998100 -2.27142087488749
 1 -3.47760625382538 -0.26843233313331  1.35821002560256
 1 -2.96243787018702 -3.41426655165517  1.56888723782378
 1 -3.03414323412341 -1.86891033543354  2.86823621232123
 1 -0.56842214701470 -2.89649841494149  0.01171818181818
 1 -2.10269865956596 -0.41272757625763 -0.60148425082508
 1  1.62449041044104 -0.35979743354335  4.13789588868887
 1  2.72673000590059 -1.11054294559456  2.83098802820282
 1  2.87344615851585 -2.53860544344434  0.35833888708871
 1 -1.84679730903090 -1.22658193219322  4.63418047984799
 1 -0.81583135113511 -0.03200740434043  4.82087844434443
 1 -2.00677999179918  0.20429287598760  3.39176794209421
 1 -5.74070485768577 -1.44789292049205  2.08041233423342
 1 -6.24493325402540 -3.20081418601860  1.83020586688669
 1 -6.80580795759576 -1.89335497889789  0.79935629732973
 1  2.23485962536254  1.10797073897390  1.50886849814981
 1  0.99508946044605  1.47584982928293  2.52678065176518
 1  0.13483174077408  0.21090546034603 -0.33048508080808
 1  4.42416813601360 -1.48337139613961 -3.01893749564956
 1  4.21379220902090 -2.58959073827383 -1.63678078607861
 1 -5.65673781218122 -2.12625354995499 -3.02475593939394
 1  5.40267818911891 -0.82161264116412 -0.09904668096810
 1  5.76222766406641  0.04825782968297 -1.40380486298630
 1  4.17640755225523  0.49606609870987 -4.12711094059406
 1  3.57162291389139  2.07322840154015 -3.52535487088709
 1  2.57808359765977  1.07372187008701 -4.59194234623462
 1  0.81724563456346  2.66738823532353 -2.91328222022202
 1 -7.08636772287229 -3.74133631753175 -0.83715273647365
 1 -7.78714697959796 -3.22922425292529 -2.59739279277928
 1  3.89297302480248  3.38030739173917  3.78988224242424
 1 -0.47213109190919  4.51158243774377 -3.01497939333933
 1 -4.10666925652565  4.77365394719472 -0.67628878037804
 1 -4.16637538723872  3.73311810541054  0.90134094549455
 1 -3.27959627582758  5.32796308740874  0.82880865076508
 1  8.35429112261226 -2.37697085128513 -0.62562319731973
 1 -1.76098902350235  6.73313377047705 -3.03589844204421
 1 -2.63518587148715  6.24985636143614 -1.41186709420942

