%nproc=4
%Mem=4GB
# td=(NStates=1) B3LYP/SVP 

TD

0 1
 8 -5.46373260326033 -0.01555611601160 -3.23269305900590
 8  2.99096910241024  2.88503575827583  3.14907098549855
 8  3.30053840244024  0.74082948194819  3.11716360146015
 8  1.87360500000000 -7.11620789088909  1.47990649694969
 8  0.51334622262226 -6.99073549714971 -0.38044602750275
 8  1.74940198829883  4.04355747854785 -0.15762625522552
 7 -2.43019263036304 -0.96777520772077  0.51734875147515
 7 -4.42013689508951  0.38140580708071 -1.19036739153915
 7  1.82608299989999 -0.68224979797980 -0.43036151375138
 7  2.63336887878788  1.87090283578358 -0.43128987568757
 6 -4.82664905610561  1.02538403540354  0.05683148294829
 6 -4.50583797659766  0.12591275657566  1.30134749244924
 6 -2.99009410501050 -0.02497224052405  1.41725373837384
 6 -2.01642073877388  0.50731568876888  2.16793996359636
 6 -0.74610122042204  0.01542610711071  1.82141281888189
 6 -0.99744393219322 -0.88885194409441  0.75614743414341
 6 -6.22818517461746  1.35634342364236 -0.07486270167017
 6  0.54339294589459  0.15032570907091  2.52089110921092
 6 -6.64933544804480  0.98338758715872 -1.33496922562256
 6 -0.16580283638364 -1.94484322122212  0.15240732223222
 6  1.12430932713271 -1.87594714131413 -0.42591417361736
 6 -5.42221282158216  0.29140735543554 -1.98782609410941
 6  2.03193727892789 -2.91540207860786 -0.95928293759376
 6 -2.23506920782078  1.59643540044004  3.29913430363036
 6 -7.08914640784078  2.09059718891889  0.96409039493949
 6  3.21240757445745 -2.30581053225323 -1.35581682678268
 6  1.14765079237924  1.65511400480048  2.49426306220622
 6  3.12102017731773 -0.94912353795380 -1.04560854905491
 6  1.63329709990999 -4.43582954735474 -0.95706742364236
 6 -7.94938084408441  1.00636227382738 -2.01562995079508
 6  1.75265283088309 -5.07354828942894  0.40330632613261
 6  4.35064067306731 -2.88883735253525 -2.13915314661466
 6  3.94150502110211  0.05559496299630 -1.37647232963296
 6  2.62066268746875  1.65255284348435  2.94616051595160
 6  3.71370574837484  1.51313672517252 -1.03363993129313
 6 -9.21026601000100  1.14266642694269 -1.58696351165117
 6  1.31618668336834 -6.53153980418042  0.41158981798180
 6  4.62062089668967  2.63365011991199 -1.50718780188019
 6  3.85509477787779  3.77005752945295 -1.12545383968397
 6  2.61080265106511  3.32630048114811 -0.51987074977498
 6  5.85873947924792  2.49711455205521 -2.08047000210021
 6  4.20128574837484  5.21345622142214 -1.14994700810081
 6  6.81407146474647  3.52053773857386 -2.30457493439344
 1 -4.13909839593959  2.07502858295830  0.07279031933193
 1 -4.97859251615162 -0.88703017911791  1.38815355955596
 1 -4.93908074797480  0.84268826852685  2.06869377907791
 1 -2.77724676457646 -1.71670906640664 -0.13564048584859
 1 -3.42208320562056  0.55605752285229 -1.42843039393939
 1  0.42619705440544 -0.30158984698470  3.55099464756476
 1  1.29884389378938 -0.45142981038104  2.07260239303930
 1 -0.68615727662766 -2.93872133713371 -0.12949794749475
 1 -3.30341048634864  1.63744500860086  3.62246223592359
 1 -1.42180339543954  1.77501686558656  4.10689907780778
 1 -2.11245762686269  2.55630945074507  2.93401082288229
 1 -6.25700915181518  2.76463526702670  1.29394162716272
 1 -7.44427419441944  1.32063187238724  1.76263327402740
 1 -7.83342928012801  2.54874095719572  0.48043652385239
 1  1.30512322072207  1.81664370097010  1.46710477777778
 1  0.76319943244324  2.44603142514251  3.17475329952995
 1  1.50320464686469  0.13902454745475 -0.15235060036004
 1  2.40900869306931 -4.88178200860086 -1.61580619031903
 1  0.53640543804380 -4.73651349884989 -1.37778626202620
 1 -7.94339540134013  1.04300453105311 -3.13610954915492
 1  0.95757794669467 -4.57446862656266  1.11192876947695
 1  2.72138840894089 -5.08912611711171  0.85688350325032
 1  4.24551961426143 -4.18428588078808 -2.19227268836884
 1  5.18448954735474 -2.68851770197020 -1.51322494009401
 1  4.62205363846385 -2.74770700330033 -3.14236330993099
 1  4.77503712321232 -0.32847494199420 -2.00725690139014
 1 -9.64474807530753  1.14181163666367 -0.46748943874387
 1 -10.00737887148715  1.25347676337634 -2.45956205620562
 1  3.94339902640264  3.00589397309731  3.52727749344935
 1  6.22738620682068  1.61242339153915 -2.18248706370637
 1  5.23584428422842  5.69332209640964 -0.76050467036704
 1  4.34675669816982  5.34443120882088 -2.16859940484048
 1  3.40142781238124  5.80257986438644 -0.79932167376738
 1  1.30921822992299 -8.03036419351935  1.35955201010101
 1  7.80781322572257  3.38596413631363 -2.62403967726773
 1  6.46486837433743  4.54041955415542 -2.27454980748075

