%nproc=4
%Mem=3GB
# td=(NStates=1) B3LYP/SVP 

TD

0 1
 8 -3.43797070727073 -1.21695675117512 -2.93751440574057
 8  2.68315877067707  3.35044670317032  3.09675394629463
 8  3.43624793299330  1.62248937723772  4.29323376697670
 8  7.65432403530353 -1.84771088528853 -0.48004876667667
 8  6.69803395979598 -2.88369916481648 -2.29749619771977
 8 -2.44386529302930  1.57904339343934  1.46457651815182
 7 -0.28817456365637 -2.40275658995900  0.86859169997000
 7 -2.70217225522552 -1.30442557755776 -0.76827897249725
 7  1.07953950335034  0.02728363806381 -0.76245118231823
 7 -0.98432757825783  1.37380278817882 -0.36509740764076
 6 -3.34539968966897 -1.39856741914191  0.59344631853185
 6 -2.58543716981698 -2.39309345554555  1.49522482928293
 6 -1.18174381608161 -2.00085789978998  1.79432742134213
 6 -0.55493529582958 -1.22226341804180  2.77564558505851
 6  0.84834594719472 -1.05480048104811  2.43100429502950
 6  0.99003168936894 -1.99436587128713  1.22555735973597
 6 -4.66736168276828 -2.00373602230223  0.35129201650165
 6  1.92303689508951 -0.27762809240924  3.03753590809081
 6 -4.87187354875488 -2.12987169556956 -1.00752109260926
 6  2.08796675307531 -1.87812600480048  0.27239951865186
 6  2.12467848974898 -0.90759267146715 -0.65861976347635
 6 -3.62658732863286 -1.51965393069307 -1.80271755515552
 6  3.09357042024202 -0.57077782608261 -1.79347324622462
 6 -1.33564213641364 -0.44921877887789  3.75972148044804
 6 -5.64400962506251 -2.26164264456446  1.44913591919192
 6  2.61532118901890  0.53795116331633 -2.50464507450745
 6  1.64209364176418  1.21191688368837  2.79761640324032
 6  1.37246061256126  0.87668431703170 -1.86142224822482
 6  4.26671202030203 -1.54415384448445 -2.00700033013301
 6 -5.96186052215221 -2.54966705710571 -1.83418686688669
 6  5.45089064006401 -1.24042578777878 -1.05309872677268
 6  3.27432752815282  1.11747014961496 -3.58049455865587
 6  0.50724314841484  1.90911605850585 -2.14888663376338
 6  2.68711735203520  2.16185577107711  3.50903624882488
 6 -0.55869970157016  2.17510214241424 -1.30747603550355
 6 -7.02896682318232 -3.25698946304630 -1.50891945064506
 6  6.64011358095810 -2.07075533063306 -1.42231292129213
 6 -1.28263691849185  3.51411364456446 -1.15951402610261
 6 -2.19359344874487  3.34123460246025 -0.14747265346535
 6 -1.93484575697570  1.97954888838884  0.43412234423442
 6 -1.11241121952195  4.65090135033503 -2.07419918791879
 6 -3.19013965046505  4.24665514841484  0.46627086678668
 6 -1.60786467766777  5.85020043824382 -2.00779451225123
 1 -3.60888938213821 -0.50384587448745  1.14067827242724
 1 -2.58763038943894 -3.33512863786379  1.11852220132013
 1 -3.29971979177918 -2.57978142254225  2.38220760946095
 1 -0.57931323612361 -2.59156792189219 -0.16216920692069
 1 -1.93491188088809 -0.65018132163216 -0.59259336173617
 1  2.27992595399540 -0.36873832763276  4.15564766386639
 1  2.94170150305031 -0.75822771407141  2.39581451085109
 1  2.90163897779778 -2.58120970387039  0.19179223242324
 1 -2.15880851015101 -1.01022029602960  4.31027808960896
 1 -0.79595936393639 -0.16383058665867  4.53077943444345
 1 -1.89021833563356  0.42106455315532  3.34933369866987
 1 -5.37039782698270 -1.59030716191619  2.16762105510551
 1 -5.79198795949595 -3.29637374197420  1.48748159445945
 1 -6.76549392619262 -1.99665530893089  1.19232559425943
 1  1.62590873027303  1.73193313521352  1.68393600490049
 1  0.62202215371537  1.47473971827183  3.30278825252525
 1  0.12908116571657  0.22772714251425 -0.31900393269327
 1  4.50177589678968 -1.38038109710971 -3.17406300820082
 1  4.27068789858986 -2.66757853705371 -2.02047915591559
 1 -6.04410654905490 -2.05872679727973 -2.76585004880488
 1  5.24615253655366 -1.19049952985298  0.10560378407841
 1  5.66340778207821 -0.10437743384338 -1.24039852235223
 1  4.13234314581458  0.30397688978898 -4.03947217671767
 1  3.62469822142214  2.10812189088909 -3.47676001140114
 1  2.53497928722872  1.35644014191419 -4.34673782578258
 1  0.86988089808981  2.66506800330033 -2.78463935593559
 1 -6.89267835393539 -3.79583176707671 -0.33255227642764
 1 -8.10784904980498 -3.07041837233723 -2.13840689418942
 1  3.47889161666167  3.84186354735474  3.40221347554755
 1 -0.37379125792579  4.48057933743374 -2.86289418481848
 1 -3.95671426102610  4.58619520132013 -0.30088123962396
 1 -3.71062981268127  3.75840063366337  1.22243305470547
 1 -2.65909422562256  5.08515880698070  0.97828359825983
 1  8.25407110061006 -2.40545369956996 -0.83641427642764
 1 -1.61481440604060  6.70762121922192 -2.84381923412341
 1 -2.18710106300630  6.18983035883588 -1.14579048654866

