%nproc=4
%Mem=4GB
# td=(NStates=1) B3LYP/SVP 

TD

0 1
 8 -5.56346257625763 -0.12812737313731 -3.24267405710571
 8  3.00049005450545  2.92112936763676  3.28272435083508
 8  3.17809615821582  0.66710210921092  3.27339922502250
 8  1.61833947344734 -7.14376064616462  1.50313882018202
 8  1.31708659665967 -7.28184460806081 -0.90756873977398
 8  1.84783183128313  4.15825894869487 -0.03418391099110
 7 -2.35980559165917 -0.89491792199220  0.57272428902890
 7 -4.39626450785078  0.52883054955496 -1.21409976477648
 7  1.82606299789979 -0.70185175817582 -0.35987446504650
 7  2.52153769566957  1.96471221672167 -0.44703144984498
 6 -4.85927231843184  1.17609910691069 -0.02017621782178
 6 -4.39557695049505  0.38744891019102  1.21690904860486
 6 -2.97007210281028  0.10354061076108  1.36670868386839
 6 -1.97532662936294  0.71752670987099  2.17105027462746
 6 -0.74172078237824  0.13967853235324  1.85695637323732
 6 -1.00653484128413 -0.94243730263026  0.75671749114912
 6 -6.33454581068107  1.40227801710171 -0.15564077947795
 6  0.62147075367537  0.22135281178118  2.53337235733573
 6 -6.65356587108711  0.95270451885189 -1.41136686538654
 6 -0.24462071817182 -1.93303204010401  0.16593867536754
 6  1.07728462466247 -1.83161270787079 -0.23286486868687
 6 -5.55644624492449  0.40496871157116 -2.17130444194419
 6  1.85218930413041 -2.90229076747675 -0.90185719501950
 6 -2.09010471137114  1.87639339623962  3.20026441664166
 6 -7.14201169436944  2.03676180538054  0.92309629552955
 6  2.98560489418942 -2.29880983218322 -1.30820206530653
 6  1.16686271357136  1.66717521092109  2.60817445334533
 6  3.01809988528853 -0.84520314591459 -0.98759274747475
 6  1.47705147534753 -4.37007297169717 -0.93118483538354
 6 -8.02556846284629  0.79794143174317 -2.00641902970297
 6  1.76572413801380 -5.11634256885689  0.40472646814681
 6  4.13213882288229 -3.01031950075007 -1.97620685198520
 6  3.81318218881888  0.14355375887589 -1.42944762716272
 6  2.50300092129213  1.64700228842884  3.15526142604260
 6  3.63821819961996  1.48277368886889 -1.13688025532553
 6 -9.10025500890089  0.73506566686669 -1.37682249754975
 6  1.56468153285329 -6.69665631583158  0.24509316831683
 6  4.56349518411841  2.64102085698570 -1.54851193429343
 6  3.93759302770277  3.74542506620662 -1.06291758605861
 6  2.65904747554756  3.37611546264626 -0.38977774047405
 6  5.86810041534153  2.33497833843384 -2.20674262936294
 6  4.35065068486849  5.11875675147515 -1.15418743214321
 6  6.93939399699970  3.25328101290129 -2.52560703760376
 1 -4.49482396849685  2.15877695779578  0.05283832413241
 1 -4.84455911281128 -0.45815729182918  1.05654039823982
 1 -4.50680752065206  0.74845884558456  2.34931184088409
 1 -2.67004604450445 -1.38819621512151 -0.27545446724672
 1 -3.38749974727473  0.72968488558856 -1.45150270117012
 1  0.43609804450445 -0.14727441544154  3.59673922202220
 1  1.32395640504050 -0.48291295869587  2.08461359415942
 1 -0.77545620652065 -2.84919238423842 -0.26690168786879
 1 -3.14366451175117  1.90148141224122  3.19047903760376
 1 -1.66978819391939  1.76032539643964  4.16126451435144
 1 -1.48349473057306  2.78892271207121  2.83831125292529
 1 -6.57236068696870  3.03072187568757  1.41218345134514
 1 -7.32787255425542  1.36363617281728  1.55593260396040
 1 -8.07948388558856  2.45431151425142  0.62651113131313
 1  1.21594430283028  2.09528156475648  1.62591065836584
 1  0.90702381488149  2.34698152015202  3.43174899909991
 1  1.50506483288329  0.16225687068707  0.15894052875288
 1  1.86130392259226 -4.96029986038604 -1.76941155085509
 1  0.35008680618062 -4.43072291979198 -1.09133761716172
 1 -7.88401946374637  0.65978620922092 -3.17944388258826
 1  0.96607879677968 -4.82811399109911  1.15462303890389
 1  2.64488075817582 -4.84423162766277  0.97441525642564
 1  4.04538960126013 -4.11713916611661 -2.39256271737174
 1  5.31353245164517 -2.98826767696770 -1.42056567416742
 1  4.23822525562556 -2.24676690929093 -2.75207428102810
 1  4.68622824232423 -0.20124221872187 -1.93279945564556
 1 -9.09926352685269  0.87762521802180 -0.17554024382438
 1 -10.17502563616362  0.40564197989799 -1.92573867386739
 1  3.99359404590459  2.92194557825783  3.30516528222822
 1  6.39041250945094  1.32263441264126 -2.35704451945194
 1  5.41109180898090  5.28295105930593 -0.77441606150615
 1  4.58492051455145  5.37265403110311 -2.22811535643564
 1  3.72210988058806  5.90932053845385 -0.89383112471247
 1  1.21151845994599 -8.08977013411341  1.53428948384839
 1  7.71856430083008  2.87636317621762 -2.80711798509851
 1  6.72786467396740  4.26629214141414 -2.42215456795680

