%nproc=4
%Mem=4GB
# td=(NStates=1) B3LYP/SVP 

TD

0 1
 8 -5.29294552455246  0.47219265886589 -3.31834162386239
 8  2.86984699019902  2.96804405910591  3.16904298269827
 8  3.40216856545655  0.81572697169717  2.87886977207721
 8  1.46906454595460 -7.27241351145114  1.58464697099710
 8  0.69870475847585 -7.01902832643264 -0.57893587648765
 8  1.60930797889789  3.83215633843384  0.03205271267127
 7 -2.25743535463546 -1.06605503570357  0.69252626922692
 7 -4.33485836723672  0.73901156765677 -1.19331768656866
 7  1.89044943654365 -0.76469804280428 -0.49597807540754
 7  2.54981052295230  1.82230797629763 -0.57233398009801
 6 -4.78609500070007  1.14270576757676  0.04602040184018
 6 -4.36002339513951  0.12736290159016  1.16560391809181
 6 -2.98720381598160 -0.17184692799280  1.45140715371537
 6 -1.95257435413541  0.55668062526253  2.12959612921292
 6 -0.72585919621962  0.01163572807281  1.80006068366837
 6 -0.98140232803280 -0.96891995089509  0.89265108450845
 6 -6.30522287838784  1.29102689198920 -0.09989520492049
 6  0.53766237283728  0.23418409490949  2.56566558665867
 6 -6.65417593209321  0.90859010741074 -1.28901463016302
 6 -0.06795305140514 -2.04179291619162  0.35895797729773
 6  1.20465736193619 -1.84002354895490 -0.27803938613861
 6 -5.32286288658866  0.64372258695870 -2.09563687518752
 6  2.04803888908891 -2.96235677407741 -0.84626163546355
 6 -2.28679438033803  1.51034679157916  3.17273166336634
 6 -7.13547104030403  1.92059018821882  1.04958894479448
 6  3.27276361006101 -2.37415736693669 -1.26339758485849
 6  1.08718474577458  1.63012150555055  2.61233486938694
 6  3.16394446974697 -0.92458108370837 -0.96731071927193
 6  1.62603637383738 -4.48388435283528 -0.88172988988899
 6 -7.92331823782378  0.96301793939394 -2.14454284208421
 6  1.81033859945995 -5.22832376697670  0.42090808630863
 6  4.29943555255526 -3.04147261606161 -1.99909914121412
 6  4.08723959455946  0.10732013551355 -1.26508119051905
 6  2.53846446764676  1.74154174237424  2.95341124102410
 6  3.75165954375438  1.45048045954595 -1.10744731203120
 6 -9.23354833823382  1.04159631993199 -1.58418323362336
 6  1.30069513421342 -6.56565321552155  0.43019167816782
 6  4.53944277887789  2.69212596749675 -1.48561564466447
 6  3.77407667606761  3.82538306200620 -1.13446474077408
 6  2.64244581538154  3.33647149824982 -0.60358912161216
 6  5.81460506580658  2.56630147074707 -2.14703665876588
 6  4.14660027982798  5.19574445024502 -1.26707872127213
 6  6.51676173377338  3.63934961976198 -2.63129760666067
 1 -4.47412189828983  2.06247732783278  0.27390043034304
 1 -4.82282693959396 -0.88184966106611  1.02837758195820
 1 -4.93928076797680  0.37620161986199  2.24380128982898
 1 -2.58000704060406 -1.77717511301130 -0.02797971977198
 1 -3.29238023532353  0.39098101520152 -1.34525207610761
 1  0.50943537823782 -0.28473816181618  3.61127067516752
 1  1.32938694809481 -0.38900356775678  2.09477461026103
 1 -0.80244890579058 -2.96219368436844  0.12272727502750
 1 -3.29478962426243  1.51740300440044  3.51104109380938
 1 -1.66153736883688  1.22061142504250  4.05931431933193
 1 -2.05814219531953  2.56076989678968  2.89427684948495
 1 -6.53444689558956  2.53960276377638  1.53268550155016
 1 -7.70782054905490  1.15035484468447  1.85459246994699
 1 -7.80853679087909  2.53698978207821  0.56201468166817
 1  1.35513822222222  2.20386242284228  1.80717878517852
 1  0.54047716021602  2.26710353235323  3.19233505770577
 1  1.76487081348135  0.19620026502650 -0.32528789408941
 1  2.21854964716472 -5.06281011141114 -1.70104471417142
 1  0.58119991749175 -4.55167501500150 -0.99539802320232
 1 -7.59959102090209  0.86561679227923 -3.15424136233623
 1  1.37436962586259 -4.63123430313031  1.26904448104811
 1  2.66791306140614 -5.01368857335734  0.88889670457046
 1  4.14436949924993 -4.15056250845084 -2.06637009810981
 1  5.35701680008001 -2.76889573977398 -1.57656127372737
 1  4.40311174427443 -2.71330356295630 -3.00988006160616
 1  4.85270488998900 -0.05478757325733 -1.78494467016702
 1 -9.45875947644764  1.16492394789479 -0.35165785558556
 1 -10.25001313491349  0.97751916761676 -2.02545864586459
 1  3.81860654715472  2.99820320402040  3.59379414511451
 1  6.38475194339434  1.62269441864186 -1.95754456945695
 1  5.25371607140714  5.57594035823582 -0.91021964186419
 1  4.16013803630363  5.51035780148015 -2.13570611551155
 1  3.60227789738974  5.90430003640364 -0.78296003760376
 1  1.25609291739174 -8.03833499059906  1.06483253815382
 1  7.54349679407941  3.30320586048605 -2.91516879017902
 1  6.19398128562856  4.80947645984598 -2.51431378387839

