%nproc=4
%Mem=4GB
# td=(NStates=1) B3LYP/SVP 

TD

0 1
 8 -5.38689491949195  0.11839727932793 -3.28069785948595
 8  3.03231323682368  2.97129438413841  3.14441051945194
 8  3.40563891249125  0.74444984398440  3.07394928002800
 8  1.85739337883788 -7.26586285638564  1.35902440874087
 8  0.89645453345335 -7.21012743634363 -0.63546152905291
 8  1.73173022112211  3.94808793159316  0.09887939533953
 7 -2.38480809190919 -0.87103553375338  0.61990900750075
 7 -4.35757063846385  0.84142180868087 -1.25521387618762
 7  1.87388778037804 -0.76649822282228 -0.27246572417242
 7  2.54389993189319  1.85178092359236 -0.53448019471947
 6 -4.79163555475548  1.33150464746475  0.02836863666367
 6 -4.36957435023502  0.40061022632263  1.25643300100010
 6 -2.96858195379538  0.05730598729873  1.42571458445845
 6 -1.98966806350635  0.62365732293229  2.13642681228123
 6 -0.73328993929393  0.06391095559556  1.81410208780878
 6 -1.00188437623762 -0.92569562846285  0.81633345274527
 6 -6.27761011711171  1.43788157745775 -0.15963117851785
 6  0.59914852145215  0.25609628612861  2.43880290039004
 6 -6.63210372487249  0.94303355175518 -1.27782351105111
 6 -0.24077033313331 -1.99228796569657  0.15928801030103
 6  1.02089898609861 -1.81847139373937 -0.27722930513051
 6 -5.36645724602460  0.59020723542354 -2.09818713021302
 6  1.86436052125213 -2.89931046944694 -0.82224923422342
 6 -2.14517021792179  1.78588434533453  3.09341373157316
 6 -7.19120661386139  2.01556968616862  0.94876886278628
 6  3.06894322802280 -2.33539349054905 -1.15236648174817
 6  1.11721774907491  1.63371186458646  2.53374701060106
 6  3.09104718001800 -1.03291191679168 -0.86130011821182
 6  1.45076884708471 -4.28200416481648 -0.95898761566157
 6 -7.88231413741374  0.83876551415142 -2.05315370317032
 6  1.81995956155616 -5.18595953055306  0.23802979847985
 6  4.33351896089609 -2.96787525632563 -1.77037626892689
 6  3.96621749234923  0.06793619711971 -1.22718740114011
 6  2.62052267346735  1.65036262446245  2.93929982988299
 6  3.61864624242424  1.38415382688269 -0.99901646894689
 6 -9.13455843924392  0.54294645494549 -1.44212902820282
 6  1.39837490219022 -6.58339498969897  0.20909956895690
 6  4.51546038063806  2.59729648454845 -1.51615869896990
 6  3.90063933233323  3.69624014771477 -1.04721601590159
 6  2.59124069486949  3.24966281738174 -0.37011577427743
 6  5.83802740804080  2.40584542514251 -2.11931388648865
 6  4.09952557235724  5.19339421522152 -1.22555456885689
 6  6.57349740734073  3.38938462326233 -2.64188866576658
 1 -4.08156264236424  2.30522160226023  0.11372441274127
 1 -4.87000165706571 -0.55919739583958  1.04828957315732
 1 -4.79400624052405  0.91481548124812  2.11913882358236
 1 -2.93457249714971 -1.50310770627063 -0.09765668746875
 1 -3.49093009030903  1.12732464956496 -1.65405295619562
 1  0.53849828452845 -0.10894058205821  3.48468801690169
 1  1.30933494289429 -0.60457512491249  1.97705283808381
 1 -0.91028968986899 -2.84622208720872 -0.11953695139514
 1 -3.23730387568757  1.74514577867787  3.42820280998100
 1 -1.60405162026203  1.73955331923192  4.05678406630663
 1 -2.14052043314331  2.90004382418242  2.67400482228223
 1 -6.96209966086609  2.96678548204820  1.54822705570557
 1 -7.53679344634463  1.10769057825783  1.50426743744374
 1 -8.16214215141514  2.37238332143214  0.30453893409341
 1  1.20351305970597  2.22894493109311  1.56267433473347
 1  0.50742385488549  2.06990381238124  3.17312313651365
 1  1.45847017341734  0.16176682168217 -0.11887725302530
 1  1.71975976817682 -4.89354318471847 -1.84898950865086
 1  0.37321911941194 -4.20851069856986 -0.86727521092109
 1 -7.66368743054305  0.92860309090909 -3.11347728592859
 1  1.46564875377538 -4.47024820452045  1.21656923352335
 1  2.95245151525153 -5.09701690619062  0.33338115301530
 1  4.12335739803980 -4.03217066926693 -2.08751221232123
 1  5.00478157655766 -3.05208405860586 -1.10954457205721
 1  4.76244767786779 -2.39301153375338 -2.71573064666467
 1  4.92569218871887 -0.16708880338034 -1.62384856055606
 1 -9.48690229072907  0.63754120962096 -0.55213790359036
 1 -10.13164129772977  0.09799121482148 -2.01752785278528
 1  3.97198188468847  2.74994837853785  3.48321308700870
 1  6.05784925312531  1.38302045124512 -2.37397621262126
 1  5.03136383618362  5.43057582178218 -0.51221984188419
 1  4.05425744824482  5.47976474217422 -2.27915045994599
 1  3.08237590719072  5.62578218461846 -0.95771751335133
 1  1.65589289738974 -8.21977313441344  1.27401345624562
 1  7.58375081948195  2.90423596349635 -3.04693196649665
 1  6.57131901940194  4.48311382358236 -2.50840319281928

