%nproc=4
%Mem=4GB
# td=(NStates=1) B3LYP/SVP 

TD

0 1
 8 -5.20973720372037  0.35450088968897 -3.38788857855786
 8  3.08456846234623  2.94458171287129  3.11741782018202
 8  3.22761110971097  0.76328172717272  3.27132901800180
 8  1.66608424792479 -7.33612988308831  1.52125063136314
 8  0.87820270827083 -7.25034145774577 -0.58281626452645
 8  1.70431747984798  3.90375349814982  0.17695720312031
 7 -2.46243585468547 -0.98552698289829  0.71709872647265
 7 -4.26389127052705  0.66553421992199 -1.25912426722672
 7  1.90081047264726 -0.71198277127713 -0.35129360696070
 7  2.53393893579358  1.91594734023402 -0.52958970567057
 6 -4.71864825602560  1.23325482248225 -0.03716791699170
 6 -4.36679407220722  0.45334549984999  1.28887624532453
 6 -2.89662475807581  0.05704596129613  1.48533054605461
 6 -1.94525362206221  0.63195815301530  2.21225439503950
 6 -0.68706531683168  0.01349591409141  1.85142582018202
 6 -1.02382657045705 -0.99862292119212  0.90037185658566
 6 -6.19874223032303  1.44152194149415 -0.17598281368137
 6  0.51280988758876  0.13846452295230  2.71156017611761
 6 -6.64487500200020  0.90163941234123 -1.36613234193419
 6 -0.26595285138514 -2.04860359725973  0.26358844034403
 6  1.06388328452845 -1.88539808640864 -0.27243882608261
 6 -5.28871947224722  0.62071028572857 -2.20238755025503
 6  1.93684776997700 -2.99339987838784 -0.84428143744374
 6 -2.11625732663266  1.74344010091009  3.09920431063106
 6 -7.09694718791879  1.90514864406441  0.92682666856686
 6  3.19029536323632 -2.39399935113511 -1.19980122522252
 6  1.02634866216622  1.65093358675868  2.63346698259826
 6  2.99492756805681 -0.89045767136714 -1.09324331253125
 6  1.51758552875288 -4.39224518891889 -0.97233895079508
 6 -7.92038794479448  0.80094173177318 -2.07333572137214
 6  1.87674524012401 -5.21892282688269  0.32625862136214
 6  4.26652226122612 -2.95203367216722 -2.02884211551155
 6  3.85259613021302  0.13639304280428 -1.52193687608761
 6  2.55304592579258  1.69740732893289  2.90349624952495
 6  3.64785916371637  1.52045745724572 -1.21885845314531
 6 -9.15689067246725  0.74553671397140 -1.50829564486449
 6  1.40188525322532 -6.64625127532753  0.35980463946395
 6  4.50088892349235  2.71139789468947 -1.50150723382338
 6  3.76810607900790  3.74853537723772 -1.03923521782178
 6  2.58757032783278  3.28805665676568 -0.41698046074607
 6  5.67165077037704  2.52360720132013 -2.30098205330533
 6  4.16225184498450  5.20448532433243 -1.15435744914491
 6  6.59176923452345  3.39819550435044 -2.65000947784779
 1 -4.30801528762876  2.36189726982698  0.06841988228823
 1 -4.90860551745175 -0.38834031013101  1.36837158135814
 1 -4.65686252615262  0.96340033973397  2.28873578327833
 1 -2.94992403230323 -1.29503689918992 -0.17251417321732
 1 -3.32138313561356  0.69238115521552 -1.63672122302230
 1  0.49747418211821 -0.12361204920492  3.88971851995200
 1  1.43196720612061 -0.37508217561756  2.26795192799280
 1 -0.85917457835784 -3.12575004000400  0.09038404070407
 1 -3.31165131043104  1.77169843394339  3.31047103680368
 1 -1.57206842194219  1.65291465536554  3.99889827772777
 1 -1.57609399049905  2.66058987878788  2.80417783958396
 1 -6.59682313321332  2.33282208570857  1.83967620062006
 1 -7.74253402040204  1.01226103530353  1.36256326702670
 1 -7.91309724692469  2.58780486358636  0.48232671287129
 1  0.82420512891289  2.33223526012601  1.67252531983198
 1  0.80247335983598  2.27573439543954  3.46875269946995
 1  1.74846917331733  0.33873451845185  0.00706534123412
 1  2.21956974917492 -4.71417524792479 -1.65798040774077
 1  0.52255405290529 -4.64550439793979 -1.16586506990699
 1 -8.15858692049205  0.72308253885389 -3.17051298949895
 1  1.40856304520452 -4.71631281098110  1.28881645824582
 1  2.94579084918492 -5.02909011351135  0.58783659855986
 1  4.20347540984098 -4.03015046724672 -2.48352181328133
 1  5.26326742514251 -2.87884673487349 -1.52275589318932
 1  4.58931036413641 -2.29080131273127 -2.96362543614361
 1  4.69678929842984 -0.08550064456446 -2.08400457615762
 1 -9.08883248374837  0.56819427492749 -0.36458914871487
 1 -10.05847398099810  0.80073148884888 -2.11127722772277
 1  4.11005569206921  2.83618700240024  2.81231599729973
 1  5.91391485968597  1.57426957615762 -2.32985180018002
 1  4.88156885668567  5.50380314451445 -0.28710733063306
 1  4.87336935943594  5.63733049874988 -2.12654519941994
 1  3.25232290189019  5.82406201260126 -0.86453819541954
 1  1.34962227032703 -8.22218337543754  1.45840189508951
 1  7.75880832523252  3.03458899879988 -2.97059433273327
 1  6.48263015051505  4.32890840304030 -2.43024537703770

