%nproc=4
%Mem=4GB
# td=(NStates=1) B3LYP/SVP 

TD

0 1
 8 -5.37083331333133  0.16353179277928 -3.29617940764076
 8  2.89367937343734  3.01232848754875  3.24969104750475
 8  3.38305665426543  0.83876927592759  2.86947883298330
 8  1.57401504100410 -7.15515178527853  1.37904641094109
 8  0.66312120012001 -7.02107853145314 -0.65415339823982
 8  1.81859890799080  4.16603972677268  0.00345985338534
 7 -2.31497110821082 -1.02249067926793  0.64073108970897
 7 -4.34877975937594  0.56826449294930 -1.19540789558956
 7  1.84162455405541 -0.69553112611261 -0.40092857045705
 7  2.50067560946095  1.89804555005501 -0.61757850455046
 6 -4.74743113431343  1.16147764476448  0.04559035883588
 6 -4.44824221702170  0.19179934523452  1.27801515921592
 6 -2.96394148974897 -0.10154989828983  1.38936094909491
 6 -2.09128822552255  0.51041599879988  2.19971314091409
 6 -0.75042165246525 -0.01609704520452  1.80823150075007
 6 -1.03095728352835 -1.03720677957796  0.84103592299230
 6 -6.29054141024102  1.36934472377238 -0.07589280468047
 6  0.53528213481348  0.27570824732473  2.61382040214021
 6 -6.59968048254825  0.85479472787279 -1.38373410211021
 6 -0.15983223932393 -1.97201593849385  0.19994207570757
 6  1.11301819801980 -1.83766331293129 -0.29991157335734
 6 -5.40714131443144  0.54054226892689 -2.15306261776178
 6  1.93869795499550 -2.91753229162916 -0.89987699699970
 6 -2.16939264016402  1.74341009790979  3.17497188738874
 6 -7.20397789098910  1.91579970917092  0.96020000590059
 6  3.11450778447845 -2.38159811101110 -1.31644288938894
 6  1.11922795009501  1.69593808720872  2.47416105200520
 6  3.09193726902690 -0.99670829642964 -1.03083707190719
 6  1.63704747494749 -4.37444340874087 -0.94049576647665
 6 -7.97062296829683  0.84242588018802 -1.92587097489749
 6  1.77320488608861 -5.11745267986799  0.46331232673267
 6  4.34467007600760 -3.04207267606761 -1.99670890219022
 6  4.03505437603760  0.05514491799180 -1.24372905530553
 6  2.53208382958296  1.76588417661766  2.88127402730273
 6  3.68184256205621  1.49382479397940 -1.05163173047305
 6 -9.18700368376838  0.80240240054005 -1.37822263756376
 6  1.33293835853585 -6.51302795299530  0.26431509050905
 6  4.59743857845785  2.62569932483248 -1.35204228732873
 6  3.96280554895490  3.77651817551755 -1.10483177747775
 6  2.63201477227723  3.36714456555656 -0.50171893459346
 6  5.95682928822882  2.36492133273327 -1.87577953305331
 6  4.28910453025303  5.22629750555055 -1.24361637503750
 6  6.70504056165617  3.35942162696270 -2.57488196509651
 1 -4.11090557665767  2.08989006910691  0.21659469976998
 1 -5.09184384128413 -0.62658413451345  1.31665640984098
 1 -4.63290012991299  0.54797879757976  2.31414832453245
 1 -2.73703274317432 -1.77588498399840  0.04706778497850
 1 -3.34674567186719  0.22564448154815 -1.54174172507251
 1  0.22355679037904  0.09683999599960  3.69318886698670
 1  1.31216522592259 -0.50664533193319  2.32898803160316
 1 -0.59092775367537 -2.88962642764276 -0.12734773247325
 1 -3.38589873517352  2.22872413651365  3.29154914461446
 1 -1.75940715581558  1.55314467836784  4.27642603050305
 1 -1.59959634073407  2.71629544934493  2.77476489828983
 1 -6.62877632853285  2.66447525102510  1.50846307930793
 1 -7.41263103010301  1.15475528472847  1.65423243394339
 1 -8.09743568076808  2.32230831393139  0.54436291649165
 1  1.05171788018802  2.10159219581958  1.44644271157116
 1  0.53918703120312  2.30601742374237  3.07207303150315
 1  1.44370869726973  0.29682032703270 -0.32811817711771
 1  2.40591838403840 -4.79204303470347 -1.47941255095510
 1  0.61035283278328 -4.61775162266227 -1.28083656705671
 1 -8.00882194399440  0.72675290589059 -2.99776571477148
 1  0.92722491139114 -4.78042922262226  1.22616019261926
 1  2.81841811191119 -4.89715692019202  0.88122593749375
 1  4.46306136843684 -4.26169362156216 -2.01790525162516
 1  5.29355045344535 -2.73202205240524 -1.55199881748175
 1  4.21060249334934 -2.56896912951295 -3.27575664926493
 1  4.94004362386239 -0.09656175067507 -1.78781495719572
 1 -9.40510411091109  0.68293574907491 -0.33475616541654
 1 -9.91086922052205  0.87656907260726 -2.07645374537454
 1  3.80261494799480  2.79866325002500  3.41346611231123
 1  6.39731319951995  1.36710886008601 -1.83486230123012
 1  5.26669736953695  5.38828159235924 -0.62040065996600
 1  4.23318534103410  5.59032579827983 -2.16528907380738
 1  3.56837450705071  5.89630923732373 -0.59139088068807
 1  1.11736904500450 -8.00984214131413  1.36738279317932
 1  7.89560200460046  3.23116865676568 -3.00718799209921
 1  6.12911479897990  4.41512702490249 -2.91073342584258

