%nproc=4
%Mem=4GB
# td=(NStates=1) B3LYP/SVP 

TD

0 1
 8 -5.35332156215622  0.04575001460146 -3.22408219791979
 8  3.02741274677468  3.04217147184718  3.16773285168517
 8  3.43300164876488  0.87459285828583  2.80623250835084
 8  1.74806244574457 -7.27255352545254  1.36184469076908
 8  0.46048093609361 -7.06001242484248 -0.54870285318532
 8  1.66621366946695  3.94919804260426  0.01820132753275
 7 -2.27390700180018 -0.77962639283928  0.61534855145515
 7 -4.30388526992699  0.57667533403340 -1.26933528832883
 7  1.84710510211021 -0.67183875687569 -0.23247172477248
 7  2.50669621152115  1.84611035653565 -0.49634638133813
 6 -4.74210060126013  1.23513501050105 -0.01007520772077
 6 -4.39007640044004  0.32652281758176  1.12980033773377
 6 -2.86641173677368  0.10411066776678  1.41109312231223
 6 -1.89635873257326  0.64271922912291  2.23231640124012
 6 -0.66253286358636  0.02217678217822  1.90121079867987
 6 -0.97874206200620 -0.99656271517152  0.96050787018702
 6 -6.30378273437344  1.25641343064306 -0.22202741814181
 6  0.67369597619762  0.24151482798280  2.52878189828983
 6 -6.66700721522152  0.71487073547355 -1.33922965166517
 6 -0.17503375947595 -1.97829656655666  0.25421750325032
 6  1.07359425562556 -1.86219576617662 -0.28832041424142
 6 -5.44143474377438  0.34077229192919 -2.13243055455546
 6  1.95794988018802 -2.96649718811881 -0.96123313261326
 6 -2.07039274017402  1.82365812271227  3.19588397859786
 6 -7.18635612881288  1.79993812301230  0.89557354325433
 6  3.07127346104610 -2.28462841404140 -1.36125737083708
 6  1.22014804210421  1.65782427582758  2.53022665856586
 6  2.96869494479448 -0.85740436603660 -1.05357934613461
 6  1.54311808200820 -4.41495746014601 -1.01353307020702
 6 -7.95632153815382  0.63033467106711 -2.02950133793379
 6  1.59275684128413 -5.05029596419642  0.34240023552355
 6  4.20751636063606 -2.96354482328233 -2.01882111341134
 6  3.91248211881188  0.14316371987199 -1.43380806320632
 6  2.65546616781678  1.83469105730573  2.91158705860586
 6  3.57465184298430  1.45391080258026 -1.07646421372137
 6 -9.17969295269527  0.73119527982798 -1.47671248654865
 6  1.08528359305931 -6.52968961916192  0.28379703870387
 6  4.68317715231523  2.54770152505251 -1.33697078017802
 6  3.89701897029703  3.80797132083208 -0.98805009930993
 6  2.60983255405541  3.30093794489449 -0.34597336003600
 6  5.88943254855486  2.43984882548255 -1.97560951605160
 6  4.39606522632263  5.19621449724973 -0.99526153955396
 6  6.75902596019602  3.43629931473147 -2.43063754065407
 1 -4.37305179127913  2.29669074917492  0.41393443374337
 1 -4.91005566246625 -0.72829430553055  1.02081682588259
 1 -4.85632247214722  0.65232923262326  2.10701761146115
 1 -2.81244028392839 -1.48253564906491  0.05205828402840
 1 -3.37143814111411  0.89730164726473 -1.67924547544754
 1  0.65070950565057  0.28546885888589  3.65703525162516
 1  1.36929093849385 -0.47605227262726  2.15266039883988
 1 -0.74675333623362 -3.06848431343134  0.16614161646165
 1 -3.30780092539254  1.78842010611061  3.43439342904290
 1 -1.42135335043504  1.56142550645065  4.16126451435144
 1 -1.65614199529953  2.75966978677868  2.87569499129913
 1 -6.74564801570157  2.64427323082308  1.36912914591459
 1 -7.51773154015402  1.01921173037304  1.65210222092209
 1 -8.15892182938294  2.34330041314131  0.58263674387439
 1  0.97143985238524  2.14834687128713  1.49311737903790
 1  0.76428954145414  2.60352717471747  3.14371019521952
 1  1.41742606900690  0.28044868986899  0.00495513021302
 1  2.24969276147615 -4.73734756515652 -1.67038164786479
 1  0.54723652115211 -4.65496534403440 -1.35780426382638
 1 -7.88903996579658  0.75834606520652 -3.05609154735474
 1  1.06897908680868 -4.60367154685468  1.12923049964996
 1  2.52437870797080 -5.06171337583758  0.71657947284729
 1  4.12858792109211 -4.20274772697270 -1.97965142624262
 1  5.18657975637564 -2.79319817001700 -1.55341895949595
 1  4.32390382348235 -2.36715894849485 -3.21233030663066
 1  4.91151077057706 -0.29724181868187 -1.86631280698070
 1 -9.56036963746375  0.73999145464546 -0.40117280708071
 1 -10.12217035063506  0.73322473817382 -2.15999209920992
 1  4.11311599809981  3.05612899659966  3.24602936863686
 1  6.06742021022102  1.32728487768777 -2.17433624862486
 1  5.32727342714271  5.36320908510851 -0.33871249114911
 1  4.84720674317432  5.48056482218222 -2.13640618551855
 1  3.61049871947195  6.17246685308531 -0.93891563316332
 1  1.28178548664866 -8.16974813191319  1.49396545144514
 1  7.60925336973697  3.25111065096510 -3.11850912421242
 1  6.73157504500450  4.45214072627263 -2.31626397889789

