%nproc=4
%Mem=3GB
# td=(NStates=1) B3LYP/SVP 

TD

0 1
 8 -3.21689860006001 -1.18537359285929 -2.85312596689669
 8  3.11529198399840  3.02299395789579  2.94585885678568
 8  3.58523283148315  1.33017014531453  4.47619206280628
 8  7.73935253815382 -1.54191030523052 -0.74719548134813
 8  6.54825898229823 -3.05213600850085 -1.89246569466947
 8 -2.64461536803680  1.65037052615262  1.44161422192219
 7 -0.26850259645965 -2.42784909920992  0.92756759755976
 7 -2.69924196219622 -1.06053118811881 -0.49836198079808
 7  1.24049559895990  0.15500641034103 -0.64691962916292
 7 -1.01440058555856  1.42607801570157 -0.16014691259126
 6 -3.43547869756976 -1.29054661706171  0.68681565546555
 6 -2.65771439753975 -2.39277342354235  1.54603991079108
 6 -1.25246088778878 -2.06099391339134  1.74985297389739
 6 -0.66315611791179 -1.22166335803580  2.78162618311831
 6  0.69239035163516 -1.16348134913491  2.51566276087609
 6  0.94836752295230 -1.81635807050705  1.24460926492649
 6 -4.77160210681068 -1.84845049374938  0.20942783008301
 6  1.83397798919892 -0.43384371397140  3.13201535603560
 6 -4.71844820622062 -2.00825953435344 -1.12763310381038
 6  2.05989394579458 -1.92973116531653  0.28199047774777
 6  2.12952897479748 -0.87623953615362 -0.70978487998800
 6 -3.48211288118812 -1.36162812811281 -1.62002928632863
 6  3.01961302450245 -0.64951569986999 -1.74095799469947
 6 -1.31863043524352 -0.45151900890089  4.01130663896390
 6 -5.82931815591559 -2.19859633993399  1.39178018361836
 6  2.53590324722472  0.43855122332233 -2.51459606960696
 6  1.89145857825783  1.00197588958896  2.73000964256426
 6  1.44163753025303  0.90279692829283 -1.82278838483848
 6  4.20396574567457 -1.53935336443644 -2.12350198029803
 6 -5.81509584568457 -2.43475556595660 -1.93532698089809
 6  5.50818636963696 -0.90113185838584 -1.30441385828583
 6  3.19640973637364  1.20718912151215 -3.64198070727073
 6  0.52861528562856  2.02428757565757 -2.06529827492749
 6  2.98287692799280  1.81984156965697  3.54678002320232
 6 -0.65026885848585  2.23193782598260 -1.18812410031003
 6 -6.80300422692269 -3.38067183128313 -1.63417197589759
 6  6.57300687028703 -1.96121437653765 -1.37496818681868
 6 -1.40437909270927  3.44626685988599 -1.25296337103710
 6 -2.28713280268027  3.41175165416542 -0.23931183738374
 6 -2.01496376877688  2.11985291879188  0.41955088708871
 6 -1.27068704710471  4.45477173737374 -2.20570233823382
 6 -3.37126776327633  4.25329581248125  0.21663590329033
 6 -1.94425831703170  5.65160057825783 -2.36222995579558
 1 -3.57401589478948 -0.39292478237824  1.21661586618662
 1 -2.49795142154215 -3.39266439143914  1.01464181328133
 1 -3.34145396519652 -2.60852429682968  2.49128851755176
 1 -0.57481278607861 -2.98972773787379  0.08571558155816
 1 -1.90963935363536 -0.26598290179018 -0.71230533293329
 1  1.86232419381938 -0.64888634243424  4.24357645674567
 1  2.75695302820282 -0.85908780008001  2.74993992339234
 1  2.73226204010401 -2.68628021092109  0.49082213541354
 1 -1.99939256855685 -1.09497877187719  4.60108717051705
 1 -0.42234200220022 -0.11100530413041  4.64182053855386
 1 -1.94868418221822  0.34591703840384  3.46699546484648
 1 -5.68065885308531 -1.56630476167617  2.25394968796880
 1 -5.32412117281728 -3.25315942054205  1.75759860616062
 1 -6.84830220702070 -2.12625826922692  1.07988435013501
 1  2.23038917831783  0.99613955585559  1.57942555385539
 1  0.72316226772677  1.56277852215222  2.56388436213621
 1  0.41324958255826  0.31005537533753 -0.24247627992799
 1  4.35942166136614 -1.39962302130213 -3.17877347924792
 1  4.15272610241024 -2.63486526572657 -1.80780788878888
 1 -5.94838697709771 -1.91240216481648 -2.84197766156616
 1  4.93874179547955 -0.83436391629163 -0.36006278257826
 1  6.00543198449845  0.06013901780178 -1.53107759025903
 1  4.10411032253225  0.76893338543854 -3.93425165466547
 1  3.67304305590559  2.18175925462546 -3.22844517991799
 1  2.41831762106211  1.53578807670767 -4.54136728872887
 1  0.81404531453145  2.83732522902290 -2.74907579957996
 1 -6.69347843394339 -3.98612079597960 -0.52248126932693
 1 -7.52034029892989 -3.52916424692469 -2.39784283778378
 1  3.79575330283028  3.46722608360836  3.38901215541554
 1 -0.30467434623462  4.38183946344634 -2.67161505690569
 1 -4.13465205480548  4.57517409920992 -0.68868001950195
 1 -3.79005775547555  3.72702749634963  0.89910072147215
 1 -3.17138545474547  5.13236352745275  0.56275204510451
 1  8.34384007750775 -2.22806596079608 -0.77964859985999
 1 -1.51086401100110  6.18297875497550 -3.21034588678868
 1 -2.95127748064806  5.74267564336434 -1.71745765326533

