%nproc=4
%Mem=2GB
# td=(NStates=1) B3LYP/SVP 

TD

0 1
 6 -5.13138598909891 -1.91600140614061  0.47439606470647
 6 -4.76966312451245  2.72430265926593  1.39500617671767
 6 -9.34286352995299  3.35284148044805 -0.18893350955096
 6 -9.85832768386839 -1.48923051765177 -1.13961010641064
 7 -5.14036078407841  0.40025648674868  0.79639709770977
 6 -4.43121121872187 -0.75716470007001  0.84181026662666
 6 -3.07252900660066 -0.58006849034903  1.37673092249225
 6 -3.06689084148415  0.90436555415542  1.89843434883488
 6 -4.38558351645164  1.34711175657566  1.38531044244424
 6 -3.09080557845785  0.89477777877788  3.41009086708671
 6 -2.15126046884688 -0.69275428952895  0.22821942964296
 6 -0.61888027612761 -0.64614346914691  0.57158492359236
 6  0.32631713761376 -0.71251816911691 -0.65803166036604
 8  0.01857159305931 -1.29035872577258 -1.66778923352335
 8  1.68463353855386 -0.40092651115112 -0.30159515151515
 7 -7.02272545354535  2.75979072097210  0.48223881788179
 6 -5.94378855985599  3.42659939243924  0.97908203360336
 6 -6.26278755125513  4.76265434923492  1.10043159485949
 6 -7.54345741024102  4.99782110511051  0.66444167426743
 6 -8.06067151755176  3.63787238613861  0.27465880218022
 6 -5.31888104450445  5.87380116251625  1.46953295719572
 6 -8.32541913011301  6.26229594729473  0.37665271957196
 6 -9.29775729852985  6.49264855545555 -0.44613322962296
 7 -9.18798219751975  0.82504097869787 -0.52636961236124
 6 -9.77880965836584  2.00232353405341 -0.48197700840084
 6 -11.17063330133013  1.82975661516152 -1.06974104540454
 6 -11.41498693919392  0.46451049244925 -1.23072313391339
 6 -10.08762547094710 -0.10722777217722 -0.90292377277728
 6 -12.14481867906791  2.98956152525253 -1.35601003010301
 6 -12.63912400980098 -0.23091218961896 -1.66898913391339
 6 -12.50801527112711 -0.51870651705171 -3.19624680908091
 7 -7.60923404910491 -1.32093640814081 -0.22590893599360
 6 -8.66052203770377 -2.08733534773477 -0.64388131653165
 6 -8.12619622682268 -3.43046764826483 -0.71966570507051
 6 -6.81444347254725 -3.44016990129013 -0.28781088638864
 6 -6.51060960056006 -2.08940073917392 -0.01002884878488
 6 -9.13915790089009 -4.60777417741774 -1.03743625042504
 6 -5.69831595309531 -4.29883511041104 -0.00904823522352
 8 -5.55062691879188 -5.50685719441944 -0.12503558315832
 6 -4.52176778137814 -3.39514662736274  0.46175142474247
 6 -3.88653106790679 -3.94594829002900  1.77668955425543
 8 -4.04820743244324 -3.37488844474447  2.86374683868387
 8 -3.14617713341334 -5.05213549484948  1.60922666566657
 6 -2.58438196849685 -5.56675758105811  2.79020549084908
 6  2.70394043744374 -0.71397008760876 -1.18998320362036
 6  3.90741485128513 -0.36981160456046 -0.45452206540654
 6  4.98811111131113  0.25053410101010 -1.03306871147115
 6  4.89081959215922  0.94715855755576 -2.42141468046805
 6  6.26385009710971  0.49641226952695 -0.24175563866387
 6  7.51764599179918 -0.33886321942194 -0.95429278267827
 6  8.85997947494750 -0.15140034693469 -0.07829270917092
 6  10.06226808150815 -0.76467094969497 -0.67894887478748
 6  10.11470526392639 -2.30879604540454 -0.75404951965197
 6  11.21717239183918 -0.29298896949695 -0.04749721772177
 6  12.61061964656466 -0.62705118351835 -0.67660553775378
 6  13.84974138133813 -0.02400510361036  0.02839920252025
 6  15.21567338843884 -0.41348438423842 -0.55015885168517
 6  15.63831115871587 -1.87244140604060 -0.35377511301130
 6  16.23378597579758  0.62371328252825  0.19154241864186
 6  17.79631647034703  0.49747548144814 -0.24118862666267
 6  18.64212406340634  1.45476409540954  0.52589128202820
 6  20.14543443934393  1.53049867516752  0.15912867326733
 6  20.42301323082308  1.98237766896690 -1.30589699869987
 6  20.90861132673268  2.43563729982998  1.14933133383338
 1 -4.12717088468847  3.52143852815282  1.62983522182218
 1 -10.13884146914691  4.19148858535854 -0.16445511941194
 1 -10.87986632653265 -1.95977198719872 -1.43945383928393
 1 -2.89290534203420 -1.21922228632863  2.29040083478348
 1 -2.34059462706271  1.48963891499150  1.74491398979898
 1 -2.42572008790879  0.29580700240024  3.70625735103510
 1 -3.06505980628063  1.88559320292029  3.91334043524352
 1 -4.07076765616562  0.32500320262026  3.74225307100710
 1 -2.36296575047505 -1.62794667236724 -0.31152800910091
 1 -2.38188412701270  0.11873934823482 -0.48923758445845
 1 -0.36210053345335  0.26775090099010  1.06178220872087
 1 -0.18409142204220 -1.31511069106911  1.25982310131013
 1 -4.52259691709171  6.49916805440544  0.62333547154716
 1 -5.86326754555456  6.84258937763776  2.20603620062006
 1 -4.56691846884688  5.39590944034403  2.29179023962396
 1 -7.82572267116712  7.07677471117112  0.94139544584458
 1 -9.94449984278428  5.92706069156916 -0.97148654465447
 1 -9.45098937813781  7.60620590589059 -0.58689839393939
 1 -12.31321586898690  3.56989748824883 -0.40113251185119
 1 -11.77712663496350  3.74530949564957 -2.04410162766277
 1 -13.24581198119812  2.68260387858786 -1.44081712861286
 1 -12.87133195909591 -1.22407253355336 -1.16429100290029
 1 -13.37200794309431  0.25729539093909 -1.39076275357536
 1 -12.64964947994799  0.44924193929393 -3.74833367676768
 1 -11.56759296699670 -1.13017241364136 -3.36440723742374
 1 -13.30196827002700 -1.31046840494049 -3.49909376807681
 1 -9.85589313611361 -4.74089618151815 -0.37143294719472
 1 -9.49905181538154 -4.49747676117612 -2.00302082268227
 1 -8.55767747324733 -5.54776555645565 -0.96141079457946
 1 -3.72771849914992 -3.50233758505851 -0.14524758455846
 1 -2.05439230723072 -6.58568517221722  2.41188689268927
 1 -2.16398296999700 -4.80998073707371  3.43535798609861
 1 -3.34028508390839 -6.07845484548455  3.40096161636164
 1  2.83188498029803 -1.79306604770477 -1.40379751305130
 1  2.54785662856286 -0.31630306830683 -2.26719433873387
 1  4.10902233813381 -0.95429349984998  0.44135317971797
 1  4.97490275477548  1.98558625642564 -2.14711729912991
 1  5.80074703850385  0.64637059225923 -3.19857292439244
 1  4.04661114631463  0.92473527942794 -3.01532688958896
 1  6.73283338043804  1.50153329722972 -0.34962016241624
 1  6.17511533733373  0.06163057775778  0.88259795389539
 1  7.30455110821082 -1.29842388778878 -0.94827967406741
 1  7.62715246634663 -0.05092958835884 -2.05244410211021
 1  9.25825026662666  0.89481733323332 -0.08642738423842
 1  8.79543227312731 -0.48255534253425  0.88669152205221
 1  10.30749761506151 -0.36865666736674 -1.90379110201020
 1  9.22227941554156 -2.82475113791379 -1.30920014551455
 1  10.89331619261926 -2.58025970237024 -1.36812255785579
 1  10.13952239403941 -2.64501637913791  0.19580605910591
 1  11.11737592769277  0.98738636243624  0.06306976957696
 1  11.05857342674267 -0.71582006750675  1.04189471117112
 1  12.84704121212121 -1.76322020102010 -0.88174161696170
 1  12.71709202580258 -0.16007328022802 -1.84068738723872
 1  13.73024405990599  1.10939133493349  0.12804797889789
 1  14.02341717721772 -0.23554650865086  1.36538611481148
 1  15.44234573197320 -0.27131393159316 -1.63959060886089
 1  14.98369376437644 -2.57359564336434 -0.81293531403140
 1  16.66616335263527 -2.06094193369337 -0.65785717831783
 1  15.58828154575458 -2.13554317291729  0.78490119141914
 1  15.81072826442644  1.55001809050905  0.11528537213721
 1  16.17315363806381  0.51733554265427  1.26780877767777
 1  18.17005308260826 -0.58753723232323  0.18848416371637
 1  17.87458018341834  0.64923788688869 -1.26391369596960
 1  18.05521722762276  2.50561928962896  0.65483197819782
 1  18.65635865006501  1.43385222202220  1.74670592619262
 1  20.40940917071707  0.45008574227423  0.34959789688969
 1  19.96831952915292  3.01715384748475 -1.33000797499750
 1  21.53849236643664  1.89322492629263 -1.68744406780678
 1  19.71236947274727  1.35972600920092 -1.97102228342834
 1  20.82892790589059  1.96928647894789  2.26595052285229
 1  21.95699954165416  2.56898501510151  0.68558045784579
 1  20.61396905960596  3.59833950445045  1.08294089848985
 1 -7.06789057155716  1.60840511251125  0.72197545434543
 1 -7.91986335293529 -0.24215909150915 -0.09168248844884

