%nproc=4
%Mem=2GB
# td=(NStates=1) B3LYP/SVP 

TD

0 1
 6 -5.08151100160016 -1.89508931493149  0.40087871297130
 6 -4.81728788698870  2.87380760976098  1.28104478057806
 6 -9.36258550215021  3.25519171547155 -0.18849346554655
 6 -9.93189504060406 -1.59092068666867 -0.88836498189819
 7 -5.18677542554255  0.44363082418242  0.76328378637864
 6 -4.55240333793379 -0.67413639723972  0.73213929952995
 6 -3.06489824352435 -0.57319780328033  1.20086333573357
 6 -3.04190834323432  0.97847296489649  1.77832233763376
 6 -4.45522048014801  1.48326537193719  1.27078899029903
 6 -2.85970246814681  0.90388868986899  3.27500735873587
 6 -2.07496283908391 -0.79622463656366  0.01799840754075
 6 -0.57400578867887 -0.80012886768677  0.59931769686969
 6  0.48257276317632 -1.11314823212321 -0.48341419861986
 8  0.17113684958496 -1.48823851375138 -1.59245169976998
 8  1.69627470267027 -0.75885230373037 -0.17623261526153
 7 -7.03876705770577  2.74114885678568  0.56648724272427
 6 -6.03346752775278  3.53425015751575  0.95416954235424
 6 -6.23435470797080  4.83730181398140  1.02460401210121
 6 -7.58837190169017  5.02018334133413  0.45034026412641
 6 -8.09152460286029  3.67114571347135  0.16020735703570
 6 -5.33283243964396  5.99240302270227  1.57953395729573
 6 -8.30296688488849  6.22568228592859  0.26677173147315
 6 -9.28552607540754  6.61174046464646 -0.53565218151815
 7 -9.27941134043404  0.70651912651265 -0.46142311771177
 6 -9.90033181058106  2.03308661036104 -0.54840365106511
 6 -11.38966520452045  1.77423106260626 -0.92739681098110
 6 -11.50331577207721  0.44114815621562 -1.14758482008201
 6 -10.27113382178218 -0.16892394179418 -0.81130461086109
 6 -12.23556775397540  2.92689525862586 -1.09649407850785
 6 -12.63743384078408 -0.25190428882888 -1.76333856885689
 6 -12.56760122972297 -0.59004365076508 -3.17389457385739
 7 -7.59065219091909 -1.22846716121612 -0.23317966306631
 6 -8.62974896039604 -2.04843145734573 -0.61695862426243
 6 -8.16974058125813 -3.49676427792779 -0.59826356485649
 6 -6.81587361556156 -3.49498538283828 -0.26264837013701
 6 -6.46725526512651 -2.11205300440044 -0.06884473037304
 6 -8.98013199829983 -4.70030343034303 -1.11421392819282
 6 -5.72784890639064 -4.26191141804180  0.07896056565657
 8 -5.68684054015402 -5.47320382908291 -0.01998507810781
 6 -4.56201180578058 -3.26715382808281  0.33063831343134
 6 -3.87423983878388 -3.71014470967097  1.57053893919392
 8 -4.10398301000100 -3.17589854575458  2.72275273927393
 8 -3.13871638733873 -4.75519580088009  1.36424216721672
 6 -2.50219374967497 -5.43741464676468  2.41644811511151
 6  2.83648369176918 -1.07617630823082 -1.02645685098510
 6  4.06722083188319 -0.66238086148615 -0.35704231743174
 6  4.96007830803080  0.24027307490749 -0.73101850645065
 6  4.92484299449945  1.07854169586959 -2.01641418041804
 6  6.24986869896990  0.24752738103810  0.06328486538654
 6  7.53095732293229 -0.16732606570657 -0.70261761516152
 6  8.75497897489749 -0.11000620752075  0.19015413551355
 6  10.09658151285129 -0.63424790739074 -0.52138311821182
 6  9.98502229562956 -2.12894806060606 -1.07720183488349
 6  11.33259393399340 -0.36635630623062  0.34562209420942
 6  12.64119270387039 -0.47984646304630 -0.46133401060106
 6  13.94294070127013 -0.12898560166017  0.39222558515852
 6  15.30690251135113 -0.26653968976898 -0.40261409720972
 6  15.60784811241124 -1.71701586348635 -0.75814555005501
 6  16.30078267546755  0.49454036523652  0.32566583098310
 6  17.63740057875788  0.63233896779678 -0.43578808660866
 6  18.70846069706970  1.46280489948995  0.42538123102310
 6  20.20708060396040  1.50124574987499 -0.13011025062506
 6  20.17544847434744  2.14380381158116 -1.47188359735974
 6  21.07822828842884  2.09579331543154  0.95427182788279
 1 -3.92954112171217  3.53167955225523  1.87236947524752
 1 -9.95912349734973  4.10975041154115 -0.51632030593059
 1 -10.78383672357236 -2.29131514151415 -1.25745563946395
 1 -2.65329138063806 -1.36340670477048  1.95106690139014
 1 -2.33731429902990  1.54319427052705  1.31718121652165
 1 -1.79168668456846  0.55704312601260  3.47280400570057
 1 -2.86059936023602  2.14053869746975  3.70575967716772
 1 -3.72487306670667  0.33629433173317  3.85212405810581
 1 -2.21995144904490 -1.89584346204620 -0.43230008630863
 1 -2.12511845044504 -0.05294782048205 -0.72704136483648
 1 -0.25408973237324  0.17095122102210  1.11309734023402
 1 -0.50338335123512 -1.39485866586659  1.52219933893389
 1 -4.64826948434844  6.53972210981098  0.82725586358636
 1 -6.10325154395440  6.82729784848485  2.16292188918892
 1 -4.57913969096910  5.37744759415942  2.53550461106111
 1 -7.65340543944394  7.23227026072607  0.74709601590159
 1 -10.00397579037904  6.03576156165617 -1.22040143614361
 1 -9.62527680688069  7.62046733203320 -0.36933663776378
 1 -12.60209475687569  3.38516901540154 -0.07591999059906
 1 -11.85072399469947  3.73680864556456 -1.68369558705871
 1 -13.22556995699570  2.57054267246725 -1.38617166406641
 1 -12.84770959685969 -1.21152127842784 -1.13923849764977
 1 -13.56087682998300  0.38096775817582 -1.57708138543854
 1 -12.25120963596360  0.24169118421842 -3.71372021542154
 1 -11.87466367406741 -1.52238163456346 -3.43473427012701
 1 -13.47977605080508 -0.93822118021802 -3.78260211891189
 1 -10.11429897669767 -4.61010310221022 -0.81549735363536
 1 -9.18370028022802 -4.88471548504850 -2.44603512411241
 1 -8.55980768626863 -5.62894367426743 -0.64476913041304
 1 -3.83320904820482 -3.50469782108211 -0.50923398319832
 1 -2.01281814981498 -6.12177878157816  1.93323902790279
 1 -1.74803137483748 -4.96874661366137  3.12145659595960
 1 -3.31830288568857 -5.96140314031403  3.06477799799980
 1  2.77408920072007 -2.06362310341034 -1.41110824412441
 1  2.39538138103811 -0.46461789978998 -1.97323494279428
 1  3.92024346024602 -1.36318438893889  0.50993003740374
 1  5.08982424692469  2.26435413321332 -1.78467105450545
 1  5.58519548334833  0.90433638883888 -2.90238330543054
 1  3.94999148434843  1.21921472737274 -2.37659301620162
 1  6.35768586568657  1.27503064696470  0.41825662526253
 1  6.06716454225423 -0.35172075737574  0.83234292839284
 1  7.33281393449345 -1.24079812521252 -0.97340218631863
 1  7.78755850695070  0.43309881448145 -1.50434929262926
 1  9.01299574117412  0.95704355585558  0.54914617311731
 1  8.71805453535354 -0.64950203720372  1.26143899679968
 1  9.98556542184218 -0.03565336703670 -1.49657037993799
 1  9.10150733833383 -2.31401006380638 -1.70070929642964
 1  10.95350221122112 -2.30606228262826 -1.74446019161916
 1  10.38694713651365 -2.89950182768277 -0.31231475297530
 1  11.06450064016402  0.59296692049205  0.84431789438944
 1  11.35973354275428 -1.09661814731473  1.24714523622362
 1  12.55222173017302 -1.63266714571457 -0.88971241404140
 1  12.49096941354135  0.12094482158216 -1.53974729322932
 1  13.64424546004600  0.78302869866987  0.62404757885789
 1  14.03477831333133 -0.71005395939594  1.49872944914491
 1  15.16141763916392  0.26368956875688 -1.37863451325132
 1  14.84356975197520 -2.10094837863786 -1.38159217971797
 1  16.60895763206321 -1.80297613711371 -1.29041043364336
 1  15.93712643024302 -2.50681029962996  0.10449315061506
 1  15.97057424902490  1.41389447814781  0.57629147274727
 1  16.53358968166817  0.08829263836384  1.25507750455045
 1  18.05924200150015 -0.27099557815782 -0.83558824352435
 1  17.46802952835284  1.28770173327333 -1.37819512411241
 1  18.33867557345735  2.58097682538254  0.74138063306331
 1  18.77380039423943  0.97640647744775  1.45828708430843
 1  20.63697192699270  0.48685941964196 -0.39176623952395
 1  20.01940463766377  3.18331046314631 -1.44014898909891
 1  21.36133465066506  2.00612621642164 -1.76680200360036
 1  19.27018525432543  1.76125616221622 -2.12502768396840
 1  20.89829484258426  1.75502505280528  2.05955988378838
 1  22.23570741244124  1.92101021762176  0.91734363416342
 1  20.74086174887489  3.13706337683768  1.14438704310431
 1 -7.04525830833083  1.70323459545955  0.30142339913991
 1 -7.55274664126413 -0.25290016561656 -0.35868918911891

