%nproc=4
%Mem=2GB
# td=(NStates=1) B3LYP/SVP 

TD

0 1
 6 -5.02108495899590 -1.91273107910791  0.42722134723472
 6 -4.78411456965697  2.84387461646165  1.44004068016802
 6 -9.47887713131313  3.23767996429643 -0.03894851105111
 6 -9.78440029112911 -1.54217581218122 -0.94276042144214
 7 -5.14888163616362  0.54519098019802  0.69008646664666
 6 -4.40379847744775 -0.65456444004400  0.77847393299330
 6 -2.98526027972797 -0.48113859735974  1.28529177857786
 6 -3.05267942034203  1.02107722532253  1.86259076447645
 6 -4.42356731483148  1.49884693009301  1.27710962236224
 6 -3.01050754865487  1.16469477047705  3.33239309730973
 6 -2.01674701750175 -0.71287630173017  0.12254886258626
 6 -0.61930031813181 -0.76753560836084  0.61748951405141
 6  0.36924143004300 -0.99366628392839 -0.49318517571757
 8  0.01645138103810 -1.54521421132113 -1.58318077267727
 8  1.61953702890289 -0.53670008850885 -0.30899589158916
 7 -7.15525870687069  2.76621136303630  0.52320291429143
 6 -6.02653683468347  3.36761349384938  0.93920804620462
 6 -6.39731100360036  4.80588867266727  1.06203775547555
 6 -7.64620768526853  4.92090341334133  0.53036826692669
 6 -8.19086453685369  3.68760735963596  0.26143748004800
 6 -5.41285044144414  5.82347613001300  1.42525852975298
 6 -8.29089567776778  6.33725344304430  0.39039409370937
 6 -9.33119064186419  6.68880817141714 -0.39723834013401
 7 -9.30049344864486  0.74264273887389 -0.42904988038804
 6 -9.94602638003800  1.94180748244824 -0.43399220992099
 6 -11.33127936593659  1.70928456795680 -0.90882495379538
 6 -11.51903734423442  0.43227726912691 -1.09757981958196
 6 -10.16052276067607 -0.12776982638264 -0.77821130153015
 6 -12.44597879507951  2.82573514261426 -0.99349377847785
 6 -12.66990708810881 -0.38970806920692 -1.63639587458746
 6 -12.55738020762076 -0.88348299469947 -3.11803898829883
 7 -7.42863598929893 -1.22873718821882 -0.23314966006601
 6 -8.54252023752375 -2.03759037323732 -0.63393032143214
 6 -8.19341294849485 -3.39212381388139 -0.59814355285529
 6 -6.72926495469547 -3.37831371567157 -0.26510861616162
 6 -6.36975551515151 -1.99356115521552 -0.01334918081808
 6 -8.96622060716072 -4.55971937193719 -1.06747925472547
 6 -5.65909203070307 -4.30078530543054 -0.11550888128813
 8 -5.51133298939894 -5.50272678137814 -0.05581866146615
 6 -4.42040764536454 -3.24638175087509  0.28192344194419
 6 -3.83356577137714 -3.78721241644164  1.53928581388139
 8 -3.94751736343634 -3.34046500240024  2.66115657965797
 8 -3.02648516421642 -4.80545082638264  1.37124286728673
 6 -2.48369189948995 -5.40055096039604  2.51090756105611
 6  2.66508655205521 -0.77569626022602 -1.36567077237724
 6  3.94281839163916 -0.34744936833683 -0.61083769696970
 6  4.97507980818082  0.43383243084308 -1.14761016561656
 6  4.86420693089309  1.18251209290929 -2.43270580958096
 6  6.31339505160516  0.47500012831283 -0.41004246734673
 6  7.46675090229023 -0.38089742284228 -0.89397675107511
 6  8.77047052405241  0.00682547564756 -0.08874375427543
 6  10.05009686438644 -0.74777926052605 -0.67270825072507
 6  9.84254804820482 -2.33993915971597 -0.63196731143114
 6  11.28978965356536 -0.17344701530153  0.01220875287529
 6  12.66529511411141 -0.60306878527853 -0.53925180238024
 6  13.87380378757876 -0.07905060816082  0.24109047164716
 6  15.24381620272027 -0.34104714051405 -0.37189102490249
 6  15.60639796739674 -1.85081924382438 -0.43151288678868
 6  16.37079967716772  0.50073098429843  0.37503076747675
 6  17.79033587228723  0.37949368326833 -0.08505301310131
 6  18.60605045604560  1.63226184518452  0.46040473337334
 6  20.18486838273827  1.36025165046505  0.19056181658166
 6  20.56915784528453  1.62242167336734 -1.34161057005701
 6  20.92069253485349  2.23811754785479  1.17230363106311
 1 -4.15177334493449  3.52378876317632  2.00620285858586
 1 -10.25731331633163  4.09648908540854 -0.10355902980298
 1 -10.50923926382638 -2.31797780778078 -1.35333522742274
 1 -2.81994804630463 -1.21938230233023  2.12073386808681
 1 -2.32618318591859  1.66313626472647  1.32068156655666
 1 -2.15093260916092  0.73545096679668  3.80701742704270
 1 -3.30045334563456  2.07542218581858  3.66335543674367
 1 -3.62641322072207  0.28487919021902  3.81127997369737
 1 -2.29538899279928 -1.73656753445345 -0.15103195949595
 1 -2.26827276587659 -0.19523204890489 -0.72765142584258
 1 -0.31938626202620  0.04035816171617  1.37930396089609
 1 -0.43070608350835 -1.68789796979698  1.30153727272727
 1 -4.53752841024102  5.92623076067607  0.87027016501650
 1 -5.77631885068507  6.73431855055506  1.43722931993199
 1 -5.10792256925693  5.59211906130613  2.48533959455946
 1 -7.73414351325133  7.13553058675868  0.88275958225823
 1 -9.89557495029503  5.91955994149415 -1.11906130213021
 1 -9.81622590179018  7.54736002130213 -0.58305800990099
 1 -12.34675922332233  3.17204770327033  0.06072367376738
 1 -12.12292121442144  3.77750271497150 -1.54487170467047
 1 -13.35428282828283  2.30966658485849 -1.29509255615562
 1 -12.56369119501950 -1.26841696799680 -0.83502807660766
 1 -13.63091383368337  0.05969563096310 -1.72729640694069
 1 -12.67622213721372 -0.08327131203120 -3.82298114151415
 1 -11.31496770447045 -1.33095249164917 -3.28163896059606
 1 -13.30863893709371 -1.79563692179218 -3.31854571327133
 1 -9.76209375617562 -4.81606369826983 -0.15781158505851
 1 -9.29169107930793 -4.08890590409041 -2.00653117371737
 1 -8.53397510301030 -5.50638141804180 -1.34785943944394
 1 -3.80976670397040 -3.40858821012101 -0.41886494629463
 1 -1.68423529152915 -6.19658626232623  2.37157286128613
 1 -2.19697626932693 -4.71753149214921  3.19702415271527
 1 -3.31802285768577 -5.94658165816582  3.04498601880188
 1  2.57409920172017 -1.84849159025903 -1.73167030033003
 1  2.37554939783978 -0.01815325332533 -2.29480710001000
 1  4.17678911481148 -1.04194226472647  0.32724176857686
 1  5.23937920242024  2.09938763656366 -2.34089667706771
 1  5.71751871567157  0.67047300250025 -3.12613568066807
 1  3.93274976017602  1.00142294819482 -3.04907026392639
 1  6.61944204130413  1.63357650155016 -0.70685588598860
 1  5.96605443124312  0.58413282798280  0.76606630073007
 1  7.43544419751975 -1.56126017141714 -0.83772861896190
 1  7.59291904300430 -0.01823631903190 -1.94339319701970
 1  9.10537497909791  1.11528938043804 -0.24150289178918
 1  8.70521325122512 -0.19828691569157  0.98729158205821
 1  10.10529739503950 -0.46620642234223 -1.89669039193919
 1  9.09636682428243 -2.78484714751475 -1.33566279177918
 1  10.71825868686869 -2.60121179757976 -1.05584132973297
 1  9.87774621642164 -2.88573045054505  0.50558703720372
 1  11.55129932003200  0.90117774157416  0.01274473707371
 1  10.99646721612161 -0.52601108660866  1.16396691839184
 1  12.49619612761276 -1.66358023702370 -0.77042048484848
 1  12.57298761536154  0.13914664176418 -1.57029034753475
 1  13.57219825532553  1.07184758055806  0.42570774487449
 1  14.00488532403240 -0.54692764676468  1.18983856005601
 1  15.18183968136814 -0.08928572877288 -1.52645929572957
 1  14.73183857885789 -2.50209849364936 -0.80545456595660
 1  16.50413715001500 -2.17034287378738 -1.22183357595760
 1  15.80890360796080 -2.23958357695770  0.66020872217222
 1  16.11195838743874  1.67615070377038  0.25408925252525
 1  16.29498582128213  0.30136394549455  1.36787878467847
 1  18.14571064836484 -0.66018449704971  0.48002331763176
 1  18.01882460786079  0.31187415051505 -1.24173147774777
 1  18.25568727462747  2.60033876157616 -0.01021452645265
 1  18.31380439463947  1.93358219501950  1.78333958955896
 1  20.65317354715472  0.31721245494549  0.48212114921492
 1  20.03301599879988  2.52414454655466 -1.72696767096710
 1  21.61777029422942  1.65102070587059 -1.68111343474347
 1  19.67617585338534  0.91421145774577 -1.89019420062006
 1  20.54060907400740  2.00480003030303  2.27016094389439
 1  21.97537137883788  2.30904902150215  0.86418831863186
 1  20.65399306200620  3.43028269876988  0.94456706110611
 1 -7.30311409390939  1.78735300730073  0.32193545034503
 1 -7.42108347494749 -0.26680155575558  0.06469314911491

