%nproc=4
%Mem=2GB
# td=(NStates=1) B3LYP/SVP 

TD

0 1
 6 -5.15608845934594 -1.96037584358436  0.38477710281028
 6 -4.79290544874487  2.75164539353935  1.36296297239724
 6 -9.31430067366737  3.41840803710371 -0.32451706790679
 6 -9.80428227932793 -1.49663125772577 -0.94241038643864
 7 -5.08490523852385  0.41533799489949  0.80773823182318
 6 -4.49219731733173 -0.72939192279228  0.82874896049605
 6 -3.04519627332733 -0.66197668116812  1.30169341874187
 6 -3.02341649404941  0.91506662426243  1.73564807020702
 6 -4.33421837993799  1.39968701410141  1.30735264666467
 6 -2.76578307620762  0.98989729072907  3.25386524452445
 6 -2.03713905670567 -0.91772678677868  0.17447405510551
 6 -0.55516390449045 -0.80571942674267  0.52842060716072
 6  0.29511401730173 -0.95865278257826 -0.65480133733373
 8  0.08325806170617 -1.39647933783378 -1.71669412401240
 8  1.56774184938494 -0.85468188668867 -0.21318631063106
 7 -7.11313449444944  2.74839958185819  0.52482307630763
 6 -5.94224840584058  3.34968170067007  0.99177330273027
 6 -6.23264453695370  4.77985606940694  1.06660821252125
 6 -7.54420748524853  4.94642596559656  0.53109833993399
 6 -8.07673312371237  3.69392799169917  0.24859619591959
 6 -5.26924608100810  5.91301508390839  1.54730073397340
 6 -8.13198978717872  6.27921763946395  0.27001205550555
 6 -9.02138966176618  6.67530682128213 -0.55355397169717
 7 -9.29737313661366  0.83070154475448 -0.50073704910491
 6 -9.86612839023902  2.01707500920092 -0.65284409510951
 6 -11.36658289628963  1.85553919341934 -0.87907197849785
 6 -11.49038447894790  0.45848989038904 -1.06703676527653
 6 -10.19177588598860 -0.11408845824582 -0.89016249664966
 6 -12.33768796599660  2.96866943604360 -1.15499992909291
 6 -12.86451654905491 -0.25420451885189 -1.48184041904190
 6 -12.79182365196520 -0.51370601700170 -3.01091827622762
 7 -7.57858098379838 -1.26529084358436 -0.23177952305231
 6 -8.63912989848985 -2.02452906710671 -0.54193112151215
 6 -8.14152775997600 -3.36861146264626 -0.55588932743274
 6 -6.89762179037904 -3.36248213251325 -0.13798590389039
 6 -6.51403994359436 -2.12055385448545  0.03273542764276
 6 -9.20067405250525 -4.57145054505451 -0.89525203200320
 6 -5.72345846734673 -4.29691491839184  0.16240891049105
 8 -5.64041589768977 -5.48150465916592 -0.06238931853185
 6 -4.54235984058406 -3.34861197389739  0.38864411401140
 6 -3.89049146394639 -3.83501719691969  1.75941782708271
 8 -4.02873548524853 -3.34801575747575  2.95385584958496
 8 -3.03327584328433 -4.87705798709871  1.55592133513351
 6 -2.45482901320132 -5.55527643294329  2.67003347364736
 6  2.67017706110611 -0.92529121972197 -1.21371557685769
 6  4.02074618441844 -0.62617724112411 -0.60489710291029
 6  4.91927422762276  0.07988703630363 -1.20432583718372
 6  4.76689719991999  0.76170001170117 -2.47879041804180
 6  6.27972168426843  0.30602323062306 -0.34826628972897
 6  7.45841006820682 -0.20226956005601 -1.13601095449545
 6  8.80360383738374 -0.04297950485048 -0.31455633553355
 6  10.02242409710971 -0.54661914451445 -1.13293427332733
 6  10.12529632303230 -2.01335650145014 -1.48240235493549
 6  11.24675535013501 -0.18719839043904 -0.21384385238524
 6  12.66573515811581 -0.51563004140414 -0.79837771497150
 6  13.83774018121812  0.06578387528753  0.12579894249425
 6  15.23572539363936 -0.14662769856986 -0.42724656045605
 6  15.59882721032103 -1.71388555045505 -0.34537427292729
 6  16.28090068726873  0.64638554975498  0.57118038243824
 6  17.69415625432543  0.70397613151315 -0.06404091189119
 6  18.78991884288429  1.48931755075508  0.88629732263226
 6  20.22400229612961  1.42310793609361  0.43214597499750
 6  20.37935886538654  1.93570300150015 -0.94489089808981
 6  21.01071153675367  2.18465220132013  1.43398979967997
 1 -3.93746191379138  3.41852823712371  1.43154539283928
 1 -10.05966355135514  4.12689212571257 -0.68256693059306
 1 -10.56329466936694 -2.12022803280328 -1.28218811271127
 1 -2.98688473997400 -1.28259862396240  2.12735453015302
 1 -2.11370193779378  1.40011996309631  1.19917941634163
 1 -1.78104562046205  0.33277069876988  3.63715044034403
 1 -2.62176547684768  2.19159380298030  3.54173327452745
 1 -3.83956453585359  0.54873557585759  3.66393523922392
 1 -2.27073652755276 -2.04973885158516 -0.17828468476848
 1 -2.18414435303530 -0.33063558925893 -0.61154981568157
 1 -0.28208253165317  0.06227035293529  1.13233926442644
 1 -0.32601561446145 -1.45145432543254  1.42612973197320
 1 -4.27966262366237  6.03251138873887  0.89738287628763
 1 -5.82303352215221  6.75365048374838  1.64982057905791
 1 -4.93140491749175  5.42109195859586  2.53051411201120
 1 -7.92954305320532  7.06807384108411  0.98947025332533
 1 -9.72447784058406  6.07583556905691 -1.13111250725073
 1 -9.14921920112011  7.77680296559656 -0.75202490659066
 1 -12.68107265466547  3.33354385288529 -0.14667706630663
 1 -11.81650057235724  3.82500746544655 -1.72395961346135
 1 -13.30803820382038  2.46060167836784 -1.58242128902890
 1 -12.75755058095810 -1.25265539183918 -0.92235680948095
 1 -13.79783052535254  0.43511317271727 -1.09547322462246
 1 -12.61551606660666  0.49681669676968 -3.55829467286729
 1 -12.05638184588459 -1.33309270567057 -3.22059285598560
 1 -13.73009108230823 -0.99831718981898 -3.35856971567157
 1 -10.02334988178818 -4.61674376627663 -0.04075987988799
 1 -9.56859877007701 -4.41000801430143 -1.97210773137314
 1 -8.66083778927893 -5.47510829072907 -0.82400705420542
 1 -3.93557928522852 -3.63639099039904 -0.38941200100010
 1 -1.78982585058506 -6.31406801050105  2.28541424542454
 1 -1.91168774047405 -4.89274901390139  3.39889433973397
 1 -3.38437949334934 -6.06142314231423  3.15477699789979
 1  2.77112890469047 -1.87741448254825 -1.61252838613861
 1  2.23599544244424 -0.29784122212221 -2.02587020632063
 1  4.27207864376438 -1.42448051855186  0.13941298569857
 1  4.94302956745675  1.80239793759376 -2.50882346974697
 1  5.80746771057106  0.34332028722872 -2.96583965106511
 1  3.92612909810981  0.66260906680668 -3.00669602650265
 1  6.39145924302430  1.39343248714872  0.00731553115311
 1  6.17559538533853 -0.24350993629363  0.60854054815482
 1  7.42723337643764 -1.33287733313331 -1.33005785188519
 1  7.38477822892289  0.14853035763576 -2.10042890059006
 1  8.98755319691969  1.02273012451245 -0.02482122362236
 1  8.80460319021902 -0.74994208120812  0.62537539043904
 1  10.15808267356736  0.11924212251225 -1.99436015891589
 1  9.28054524212421 -2.52402106490649 -1.98180740624062
 1  11.02248910991099 -2.29756143254325 -1.97583332893289
 1  10.07891633343334 -2.64651652915291 -0.61554507600760
 1  11.14845903600360  0.90006763056306  0.07440090269027
 1  11.15275284468447 -0.96711519701970  0.39171969366937
 1  12.79121562956296 -1.62310618961896 -0.65641908470847
 1  12.92314263086308  0.02462518961896 -1.77607092559256
 1  13.66113714921492  1.11528192399240  0.36433160726073
 1  13.96621145664566 -0.25644859885989  1.06005558175818
 1  15.43226472387239  0.15803900370037 -1.45393204300430
 1  14.78594398939894 -2.52054033783378 -0.70362438293829
 1  16.60035677197720 -2.06443228272827 -0.75628702130213
 1  15.80715343294330 -2.14310392899290  0.64432713401340
 1  15.86574376597660  1.64635772447245  0.75333917751775
 1  16.23796011871187  0.39324313341334  1.62940493729373
 1  17.95940201750175 -0.39730820942094 -0.16710139483948
 1  17.92049477487749  0.94555751885188 -1.08651595619562
 1  18.47972967886789  2.59776850455046  0.71504799979998
 1  18.48792180638064  1.20443928072807  1.98313956955696
 1  20.63248147794780  0.34210494419442  0.29957289438944
 1  20.10888358555856  2.99184131623162 -1.25321029522952
 1  21.45054357155716  1.90039564336434 -1.25488081148115
 1  19.79059729552955  1.24589462606261 -1.61962714391439
 1  20.88360337343735  1.93761331163116  2.51801572937294
 1  22.03503734543454  2.30463858045805  1.19326122592259
 1  20.65320298299830  3.15194486498650  1.29551215561556
 1 -7.34062784528453  1.65295956795680  0.72629588638864
 1 -7.39823118971897 -0.28999387498750 -0.56217953815381

