%nproc=4
%Mem=2GB
# td=(NStates=1) B3LYP/SVP 

TD

0 1
 6 -5.15474832533253 -1.97504731073107  0.46725535063506
 6 -4.71925808400840  2.75666589558956  1.38224490059006
 6 -9.23537278087809  3.37981417771777 -0.29498411461146
 6 -9.81408325942594 -1.39410100470047 -0.83295944134413
 7 -5.18076482448245  0.40942740384038  0.73825128312831
 6 -4.46205430303030 -0.82556153975398  0.98605469106911
 6 -2.98592034573457 -0.59540002350235  1.36268951835184
 6 -3.11570572297230  0.79169428702870  1.97088159355936
 6 -4.36682164026403  1.36950399579958  1.37603951535154
 6 -3.01544804270427  0.76283458445845  3.51717157515752
 6 -1.98938428122812 -0.66988200230023  0.21616822452245
 6 -0.56319470757076 -0.91637049184919  0.70214797989799
 6  0.30356486238624 -1.16096301360136 -0.55652150935094
 8  0.05028476437644 -1.64393408330833 -1.60955340994099
 8  1.64611968716872 -0.94848126662666 -0.21916690869087
 7 -7.03013619461946  2.85787052895290  0.54293488748875
 6 -5.82350653165317  3.37827455995600  0.88370249564956
 6 -6.04582585508551  4.85065314911491  1.04739629132913
 6 -7.35295836033603  5.05509683268327  0.54690992109211
 6 -7.98583403380338  3.71190978987899  0.23670500680068
 6 -5.08548770517052  5.80496427882788  1.51482748664866
 6 -7.95557214541454  6.34142386008601  0.36375142944294
 6 -8.84207172997300  6.66187547814781 -0.50239885618562
 7 -9.09127252655266  0.91556003060306 -0.48281525692569
 6 -9.76281805920592  2.10275357705771 -0.60200901160116
 6 -11.23675991399140  1.88041168066807 -0.93109718101810
 6 -11.45206064656466  0.50891493289329 -1.10467052865287
 6 -10.09103581198120 -0.03598064746475 -0.87270075047505
 6 -12.09650384758476  3.07232980208021 -1.17876230533053
 6 -12.78506860426043 -0.18582768116812 -1.55405764076408
 6 -12.64783925352535 -0.42639728612861 -3.14936212061206
 7 -7.55812893859386 -1.29359367386739 -0.11471781688169
 6 -8.58782476797680 -1.97241385558556 -0.43768069646965
 6 -8.26942054925493 -3.32221682318232 -0.53876761526153
 6 -6.93424545274527 -3.33067895219522 -0.27722982828283
 6 -6.55079361896190 -2.08297009610961  0.08077023112311
 6 -9.01752573767377 -4.53330673067307 -1.10813332013201
 6 -5.73279940144014 -4.29437466436644 -0.04565189558956
 8 -5.64538639473947 -5.49586609530953 -0.08107118671867
 6 -4.51903750835083 -3.32942005470547  0.40345559515952
 6 -3.90374278907891 -3.79070276547655  1.65176706200620
 8 -4.23103571527153 -3.47515847174717  2.77195765976598
 8 -3.02823533923392 -4.86909719101910  1.50319606260626
 6 -2.62070560086009 -5.41398230353035  2.71932840314031
 6  2.65756579998000 -1.23322201280128 -1.21722592789279
 6  3.96519062886289 -0.77681230463046 -0.73039965316532
 6  4.89049134933493  0.07627667526753 -1.26546195079508
 6  4.85886639683968  0.61105494719472 -2.68581112011201
 6  6.19221293339334  0.17961058935894 -0.55129659275928
 6  7.42689691689169 -0.40945027812781 -1.25815316871687
 6  8.67490096709671 -0.16909211611161 -0.42712759265927
 6  10.05838769346935 -0.78039252185219 -0.89025000490049
 6  9.95098889228923 -2.30495566136614 -0.97540165486549
 6  11.32571324592459 -0.18083775437544 -0.26296876487649
 6  12.67075566016602 -0.68532701110111 -0.69740761796180
 6  13.80328673587359  0.10500779767977  0.12180854345435
 6  15.24810663176318 -0.11357439323932 -0.42969680548055
 6  15.58390571817182 -1.57885204710471 -0.31869160466047
 6  16.14108670587059  0.69114002520252  0.43647691209121
 6  17.57145398409841  0.70136587048705  0.00335582778278
 6  18.50245009600960  1.69888850785079  0.69117781068107
 6  20.00140003590359  1.74701032633263  0.30204296469647
 6  20.14418534803480  2.33458288948895 -1.06609301830183
 6  20.82943340894089  2.44908864496450  1.40676707740774
 1 -4.02675084268427  3.55640202450245  1.65517775607561
 1 -9.78317590259026  4.33009244574457 -0.39905857975798
 1 -10.54984332423242 -2.06194220422042 -1.06654654855486
 1 -2.78813486498650 -1.40236060016002  2.24814660936094
 1 -2.24120468806881  1.57286723782378  1.66347584598460
 1 -2.23554107000700  0.45126254795480  3.92355908120812
 1 -3.17088038833883  1.87603224682468  3.85066416761676
 1 -3.91091167056706  0.10434113641364  3.64704355005501
 1 -2.15791524542454 -1.40893477117712 -0.30843770007001
 1 -2.07621355995600  0.32863033733373 -0.49889855055506
 1 -0.10404472787279 -0.01923779787979  1.18352438293829
 1 -0.49663267616762 -1.80299947994799  1.39313643264326
 1 -4.04753941134113  5.65586372397240  1.14154729272927
 1 -5.39947116591659  6.94352947164716  1.30383598059806
 1 -5.11533331033103  5.51929177857786  2.66702776337634
 1 -7.65131523042304  6.92368940264026  1.11901320762076
 1 -9.32714810761076  6.05080306580658 -1.16947634363436
 1 -9.20231451065107  7.59769505480548 -0.75924562866287
 1 -12.52681722912291  3.63754425292529 -0.35884828342834
 1 -11.80153907620762  3.68932389708971 -1.98179539703970
 1 -13.06008340834084  2.70724634283428 -1.60576362326233
 1 -12.95872069796980 -1.09132925922592 -1.11297587138714
 1 -13.61592233453345  0.57399706110611 -1.24977865516552
 1 -12.62220673567357  0.59437645274527 -3.55797464086409
 1 -11.76757296499650 -1.10293969036904 -3.37195799249925
 1 -13.53110118331833 -0.95719307740774 -3.38801265996600
 1 -9.85287283408341 -4.49017110901090 -0.74108991289129
 1 -9.20357226742674 -4.64020103360336 -2.12760328092809
 1 -8.45594730023002 -5.48724950485049 -0.90842549604960
 1 -3.85520124742474 -3.46965431673167 -0.34671773157316
 1 -1.63998086608661 -5.96873347704770  2.54890059405941
 1 -2.11891846354635 -4.69413915291529  3.43873832413241
 1 -3.43796485188519 -5.92976997699770  3.30918243844384
 1  2.62739453125312 -2.27777451855186 -1.60422755605561
 1  2.43689553245325 -0.90279171717172 -2.19925754505451
 1  4.35019645554556 -0.87130520102010  0.31829087348735
 1  5.18966423092309  1.59366706450645 -2.63449603700370
 1  5.50147711151115  0.15673162836284 -3.28762182928293
 1  3.94898138333833  0.65159796569657 -3.22498785568557
 1  6.39291938903890  1.28329147304731 -0.25040024042404
 1  5.94967279307931 -0.29482506780678  0.46964665876588
 1  7.37665831893189 -1.50919496489649 -1.35811065716572
 1  7.62189194029403  0.01114661926193 -2.17416627432743
 1  8.94222866446645  0.93268111961196 -0.21847058855886
 1  8.51281401130113 -0.54590167716772  0.59660251315132
 1  10.09272613791379 -0.31353115481548 -1.92825354825483
 1  8.98739592719272 -2.78664732753275 -1.26751597709771
 1  10.61121798279828 -2.78446012241224 -1.70784653025303
 1  10.28013645544554 -2.79136101360136  0.08943542204220
 1  11.37027121722172  0.97249487328733 -0.31892843024302
 1  11.32214978437844 -0.46481496699670  0.91231175287529
 1  12.75772228022802 -1.81312519151915 -0.78181162396240
 1  12.90834115071507 -0.58852612551255 -1.84912823132313
 1  13.38357939343934  1.34530492629263 -0.04884971087109
 1  13.62106694219422  0.03323036903690  1.22590216641664
 1  15.31172266966697  0.08212141194119 -1.33670031983198
 1  14.83784917991799 -2.15476376017602 -1.06271029152915
 1  16.75003173947395 -1.67581342084208 -0.56846823942394
 1  15.54704742234224 -2.33652327092709  0.67185988728873
 1  15.58434562616262  1.69105219391939  0.47077092069207
 1  16.09607593029303  0.34041785088509  1.45664766156616
 1  17.83786986428643 -0.34960343894389 -0.07542222692269
 1  17.48151087648765  0.99008197129713 -1.16847415201520
 1  18.16539824572457  2.81004973267327  0.44764125912591
 1  18.32043505770577  1.57908674547455  1.83565482108211
 1  20.47203543334334  0.77072780648065  0.14832776987699
 1  19.83750644784478  3.42868500060006 -1.12217719191919
 1  21.18674719191919  2.41732733653365 -1.37702302570257
 1  19.72857109290929  1.54575461206121 -1.82224740594059
 1  20.87171218431843  1.87238678897890  2.27684161196120
 1  22.02557639933993  2.57558567516752  1.12493439323932
 1  20.25898356105611  3.41179084958496  1.75351795619562
 1 -7.03717750025003  1.75425969796980  0.15266852365237
 1 -7.79972133873387 -0.22908778437844 -0.03077639783978

