%nproc=4
%Mem=2GB
# td=(NStates=1) B3LYP/SVP 

TD

0 1
 6 -5.19862271277128 -1.98211801780178  0.44826345144514
 6 -4.66146230443044  2.66248647764776  1.47212388848885
 6 -9.23581282488249  3.53612980928093 -0.15439005520552
 6 -9.84278612971297 -1.29593118771877 -0.76114225962596
 7 -5.22282903090309  0.42250871197120  0.81280873887389
 6 -4.58254635223522 -0.81295027862786  0.77179326492649
 6 -3.09610136383638 -0.71086156965697  1.18292154155416
 6 -2.93972812521252  0.77243236083608  1.69692419781978
 6 -4.33883884198420  1.35420246564656  1.41287319871987
 6 -2.85435193309331  0.75227352835284  3.23288314631463
 6 -2.04459980278028 -0.97545255935594 -0.02819621192119
 6 -0.57995638373837 -0.98035689048905  0.49227699279928
 6  0.41699620552055 -1.34354127142714 -0.60506636383638
 8  0.14012374827483 -1.74751444134413 -1.70869332393239
 8  1.73530860606061 -1.21583800230023 -0.11824681668167
 7 -6.99349253025303  2.78950369226923  0.48304889888989
 6 -5.82818699969997  3.37202393489349  0.99629375477548
 6 -5.99301057355736  4.79928801260126  0.90134168586859
 6 -7.33162622712271  5.05921724472447  0.51032626272627
 6 -7.95313076347635  3.77665626452645  0.16172750905091
 6 -5.01737089348935  5.80086386878688  1.37135313921392
 6 -7.85153174137414  6.30167988568857  0.33978903320332
 6 -8.76463398619862  6.75032432303230 -0.60207882418242
 7 -9.14890829012901  1.01708018261826 -0.49246622202220
 6 -9.79959173657366  2.20654395609561 -0.56594540524052
 6 -11.23417965596560  2.03024666416642 -0.83956802810281
 6 -11.36280172067207  0.70437447884788 -1.03663372497250
 6 -10.09520622902290  0.14155710631063 -0.74953843424342
 6 -12.20773497069707  3.15304787388739 -1.03896832593259
 6 -12.54561465886589 -0.11800089848985 -1.58185042004200
 6 -12.64021849144915 -0.34152879927993 -3.02779996439644
 7 -7.49057218291829 -1.24386870137014 -0.35239158425843
 6 -8.64816080158016 -1.93023963816382 -0.55404233263326
 6 -8.34005761296130 -3.41943654515452 -0.49614335283528
 6 -7.00582261046105 -3.40827671197120 -0.24410651595160
 6 -6.50764930453045 -2.06106790589059 -0.05270311621162
 6 -9.32903688878888 -4.48355175517552 -0.88613111991199
 6 -5.90464658615862 -4.35529075597560  0.04117678727873
 8 -5.95589744584458 -5.50407691639164 -0.05436851645165
 6 -4.62504810941094 -3.38645575827583  0.37738298789879
 6 -3.98049046384638 -3.78526222142214  1.69270115541554
 8 -4.18380099179918 -3.39687064296430  2.86369683368337
 8 -3.16810932663266 -4.83010329162916  1.49688543154315
 6 -2.79397292759276 -5.60945185048505  2.68059452975297
 6  2.71354139753975 -1.56157484808481 -1.01191539683968
 6  4.02750686048605 -1.03142776617662 -0.50141675487549
 6  4.92924522472247 -0.21126207860786 -1.03003840844084
 6  4.70519102930293  0.50171401310131 -2.42417495649565
 6  6.31377508960896  0.02507513581358 -0.33959542264226
 6  7.51605583278328 -0.52965229832983 -1.21624897829783
 6  8.76428990599060 -0.22910811771177 -0.37242212211221
 6  10.10944279897990 -0.74922940554055 -0.97148812871287
 6  10.10017381078108 -2.24830999679968 -1.18565267996800
 6  11.26229690429043 -0.24844451505150 -0.09093156115612
 6  12.60851943654365 -0.28655713411341 -0.66931480868087
 6  13.79157556475647  0.12368966586659  0.18363472607261
 6  15.23432525362536  0.02183914811481 -0.39140297609761
 6  15.52142947054706 -1.43481764366437 -0.57528726422642
 6  16.27858045524552  0.82733364456446  0.42021528592859
 6  17.67025386408641  0.91933766766677 -0.09595410321032
 6  18.55340519151915  1.75008362736274  0.89548824172417
 6  20.02415231113111  1.89214483978398  0.32665542594259
 6  20.10255118461846  2.44181361256126 -1.01857826682668
 6  20.89186965256526  2.69209294539454  1.35355175587559
 1 -3.89018718631863  3.26154253855386  1.79607184548455
 1 -10.10658824382438  4.33337277377738 -0.28175684958496
 1 -10.83635197509751 -2.04542055205521 -0.80345023892389
 1 -2.89838589008901 -1.40256062016202  1.90232202690269
 1 -2.09847041464146  1.23329328042804  1.15131462986299
 1 -1.70636815271527  0.42928034973497  3.54328105340534
 1 -2.92834613491349  1.83318796239624  3.51803090429043
 1 -3.58589916931693  0.31227192949295  3.70895974167417
 1 -2.10352980688069 -1.88960283798380 -0.51233809010901
 1 -2.15111104970497 -0.20844337003700 -0.84783344404440
 1 -0.18832315571557 -0.15887176127613  1.07691372187219
 1 -0.46507952085208 -1.71730091009101  1.33303042204220
 1 -3.92940759815982  5.73362149974998  0.81731486948695
 1 -5.14841606040604  6.96449156785679  1.30355595259526
 1 -4.77911968896890  5.44488433783378  2.34762582318232
 1 -7.30437053595360  6.97603463716372  1.06875818211821
 1 -9.18264365716572  6.05481346684668 -1.29034843084308
 1 -9.04195847504750  7.83150843614361 -0.74336404050405
 1 -12.39803435083508  3.86003650215022 -0.12998539713971
 1 -11.80891981428143  3.96126109080908 -1.83017023452345
 1 -13.16840424042404  2.79794541274128 -1.46360940784078
 1 -12.82257708360836 -1.09270939723972 -1.11600617441744
 1 -13.47467821012101  0.45428508990899 -1.07851152845285
 1 -12.83846836183618  0.56336335143514 -3.43240208360836
 1 -11.71842805050505 -0.87404680108011 -3.43821461816182
 1 -13.55710378357836 -1.15097245534553 -3.16163002170217
 1 -10.03302084888489 -4.40289238113811 -0.20409621352135
 1 -9.89930184038404 -4.36778379187919 -1.83637415801580
 1 -8.82078378387839 -5.56199697959796 -1.14336899039904
 1 -3.83301902920292 -3.67796514781478 -0.61348440824082
 1 -2.10870773877388 -6.39807641134113  2.28628433243324
 1 -2.18122469416942 -5.05924566356636  3.30100455075508
 1 -3.62906396179618 -5.89027602760276  3.42783430363036
 1  2.57555934773477 -2.57624436553655 -1.48563569686969
 1  2.47072891579158 -1.01612305030503 -2.00977859715972
 1  4.27688912481248 -1.48465653615362  0.58903794819482
 1  5.01897716221622  1.63739143694369 -2.18406099349935
 1  5.15434239803980  0.11764771997200 -3.23575664276428
 1  3.67830431563156  0.53535634153415 -2.89629498639864
 1  6.43976407350735  1.19046219011901 -0.26549174957496
 1  6.02928075387539 -0.39122470777078  0.65015470957096
 1  7.45017567066707 -1.53133717911791 -1.37217206330633
 1  7.47008675977598  0.07597310191019 -2.19935879357936
 1  8.67637207880788  0.74235208670867 -0.07251599309931
 1  8.86047877777778 -0.81549863686369  0.60143299619962
 1  10.30106697199720 -0.33237303900390 -1.96455717861786
 1  9.30176736433643 -2.49199786258626 -1.97840706620662
 1  11.23306016701670 -2.36979865626563 -1.58945469106911
 1  10.04810325212521 -2.97554943244324 -0.35775929742974
 1  11.08812300240024  0.87763538733873  0.10808427102710
 1  11.23367093649365 -0.63982246774677  1.03597411911191
 1  12.87512402040204 -1.45386926592659 -1.08738218101810
 1  12.50148046464646  0.40895362246225 -1.68086140464046
 1  13.74712574807481  1.26345674147415  0.46538171227123
 1  13.78693352885289 -0.42275522952295  1.12430200640064
 1  15.07842934033403  0.39718291809181 -1.45846249604961
 1  14.98839423442344 -1.82662094589459 -1.36782080258026
 1  16.60566730303031 -1.59191503100310 -1.09887127972797
 1  15.60183290089009 -2.07922754135413  0.29034173547355
 1  15.59784697629763  1.79958304700470  0.53210705430543
 1  16.27584390709071  0.53792760186019  1.37527952475248
 1  18.06840291759176 -0.11157963656366 -0.11413609830983
 1  17.64579730513051  1.17742070517052 -1.07170447504750
 1  17.95052675857586  2.76083481118112  0.99662615761576
 1  18.37299031323132  1.20304914171417  1.82262351795179
 1  20.45965419521952  0.73227396109611  0.28496143324333
 1  19.55213791099110  3.38798093019302 -0.99462443664366
 1  21.27400591779178  2.29214481828183 -1.27800312371237
 1  19.55294353015302  1.94504454105410 -1.92742792399240
 1  20.63703871697170  2.11425097539754  2.39903383118312
 1  21.96751059275928  2.48304642124212  0.90376227602760
 1  20.58966662936294  3.70337000750075  1.51628423282328
 1 -6.97207098959896  1.81397566956696  0.50790404720472
 1 -7.43374474107411 -0.20113498909891 -0.55480880108011

