%nproc=4
%Mem=2GB
# td=(NStates=1) B3LYP/SVP 

TD

0 1
 6 -5.14411726222622 -1.92983278927893  0.46645527062706
 6 -4.68541469966997  2.72890311931193  1.56341301740174
 6 -9.24993423702370  3.43991018731873 -0.28168278447845
 6 -9.82574442554255 -1.38830042464246 -0.95382152755276
 7 -5.15081182918292  0.45572203330333  0.68412587058706
 6 -4.42380047764776 -0.71671065466547  0.67573365896590
 6 -3.02438419211921 -0.73285376887689  1.21768501790179
 6 -3.07534168656866  0.72560767836784  1.84114862026203
 6 -4.34295925402540  1.37791483688369  1.27255916731673
 6 -3.04720121802180  0.88736703770377  3.35845570357036
 6 -2.02112745554555 -0.92063707780778  0.14175078277828
 6 -0.60743913201320 -0.81286014081408  0.53456122122212
 6  0.47418192409241 -0.95399231653165 -0.62460831803180
 8  0.12482221812181 -1.36362605250525 -1.69435188978898
 8  1.66976205140514 -0.76682310081008 -0.19559455145515
 7 -7.09524270527053  2.79026376827683  0.55331592559256
 6 -5.88938311931193  3.37492422492249  1.11298542394239
 6 -6.10619189168917  4.74656274007401  1.06123767546755
 6 -7.40655371987199  5.06272759575958  0.44932016211621
 6 -7.97622307270727  3.70027862676268  0.19340067636764
 6 -5.30534969136914  5.77221100350035  1.63540954485449
 6 -8.06215280348035  6.38954867256726  0.34018907320732
 6 -9.00896841964197  6.81737102770277 -0.38680729702970
 7 -9.14333773307331  0.91112958755876 -0.57424439983998
 6 -9.79467124452445  2.11576487818782 -0.64753356405641
 6 -11.21835807380738  1.93887752725273 -1.05849992129213
 6 -11.37681312181218  0.62258630003000 -1.24577463906391
 6 -10.01506821522152 -0.04129117851785 -0.89316279667967
 6 -12.21106530373037  3.09437200630063 -1.10391482058206
 6 -12.60650074747475 -0.15364446284628 -1.64874710971097
 6 -12.66451092069207 -0.53864851125113 -3.11460864526453
 7 -7.55502862856286 -1.25147946244624 -0.23527987308731
 6 -8.60721670717072 -1.97807442164216 -0.67333426182618
 6 -8.20645425262526 -3.40239484098410 -0.68041177967797
 6 -6.91440346854685 -3.40712659695970 -0.22404450975098
 6 -6.47590613021302 -2.04111591069107  0.02182433653365
 6 -9.00220420552055 -4.65533893389339 -1.05348785558556
 6 -5.79888601010101 -4.33793902080208  0.04115678527853
 8 -5.77104896099610 -5.52105861456146  0.10660758115812
 6 -4.55010061466147 -3.41571868456846  0.46581183078308
 6 -4.06931934673467 -3.87790148534853  1.82939482478248
 8 -4.42917552925293 -3.35432638853885  2.91678214221422
 8 -3.14259677537754 -4.76529681098110  1.59453519651965
 6 -2.65421895219522 -5.55471637693769  2.77852432273227
 6  2.64008405180518 -1.14551324192419 -1.16309051435144
 6  3.92229633943394 -0.77414203760376 -0.55129174237424
 6  4.94034633483348  0.00614966256626 -1.11671707630763
 6  4.94560507070707  0.72622646434643 -2.45065760476048
 6  6.33626733883388  0.06666929522952 -0.40009147224722
 6  7.55375960316032 -0.61698103120312 -1.06733408680868
 6  8.77398087508751 -0.31834704160416 -0.30238511841184
 6  10.07356921162116 -0.81049553215322 -0.81031201110111
 6  10.12785657905791 -2.36134129992999 -0.78067218191819
 6  11.38060873547355 -0.31893156375638  0.01092862486249
 6  12.68106669126913 -0.53239171757176 -0.57895577277728
 6  13.87875428262826 -0.18812151525153  0.27024338693869
 6  15.17228905000500 -0.20764380018002 -0.45820965676568
 6  15.63043037063706 -1.65072923482348 -0.73740347584758
 6  16.24279687688769  0.64668557975798  0.44570783518352
 6  17.61858869756976  0.69929566346635 -0.11973648144814
 6  18.52905275627563  1.59655827482748  0.70905959885989
 6  20.06318621452145  1.88634425972597  0.14430719111911
 6  20.05691662116212  2.52325175637564 -1.20426683568357
 6  20.87378784438444  2.61584532063206  1.08402480318032
 1 -3.83328149574957  3.47250363466347  1.81944418271827
 1 -9.91573915891589  4.22538197469747 -0.12615128902890
 1 -10.67030537043704 -2.04547055705571 -1.60624051795180
 1 -2.85188123962396 -1.33373373747375  2.16903869856986
 1 -2.29264983258326  1.20227017811781  1.48380787918792
 1 -2.16324384028403  0.62643006470647  3.65510223552355
 1 -3.22085538583858  1.91047569116912  3.71292039323932
 1 -3.88144872427243  0.31532223452345  3.84288313401340
 1 -2.15110456435644 -1.78452232993299 -0.46606346264626
 1 -2.20186612521252  0.00176765106511 -0.57226588728873
 1 -0.40179450285028  0.15471959785979  0.81108713921392
 1 -0.23176618951895 -1.66628580858086  1.18256537553755
 1 -4.45762041944194  6.19760789838984  0.92523566156616
 1 -5.79538075687569  6.67460257895790  2.06040163716372
 1 -4.75630740774077  5.12004185358536  2.42033309390939
 1 -7.65680577947795  7.23360039373937  1.01745305160516
 1 -9.63954934773477  6.19134712021202 -1.03472286828683
 1 -9.52496677587759  7.82443772907291 -0.26688639273927
 1 -12.29757430483048  3.56963746224622 -0.25043744234423
 1 -11.79725864816482  3.94744970967097 -1.77930514801480
 1 -13.22086948694870  2.86337195539554 -1.41512455935594
 1 -12.66034085998600 -1.09130925722572 -0.86944151795179
 1 -13.31981272357236  0.37147680908091 -1.41232490979098
 1 -12.28926344134413  0.30367738283828 -3.68937778117812
 1 -11.74894110181018 -1.45539493589359 -3.12859365606561
 1 -13.70279835303530 -1.19071642974297 -3.21406526522652
 1 -9.90542808960896 -4.77080917281728 -0.48271407530753
 1 -9.29007091729173 -4.57216422992299 -2.14486500710071
 1 -8.34683638913891 -5.37315809570957 -1.03382803630363
 1 -3.85103083038304 -3.69910726202620 -0.46438949874987
 1 -1.85156202420242 -6.25145174887489  2.45908161216122
 1 -2.20519709140914 -4.86266600560056  3.46488093839384
 1 -3.53463451885189 -6.27042404240424  3.19439095929593
 1  2.59570136193619 -2.20894763586359 -1.44207134043404
 1  2.46643848674867 -0.67867930593059 -2.31102872217222
 1  4.18324976087609 -1.30706877737774  0.29489853425343
 1  5.15952121662166  1.86132383018302 -2.20069265666567
 1  5.72721968576858  0.31508746394639 -3.00938400550055
 1  3.94627111231123  0.68838164406441 -3.13314867176718
 1  6.53350344744474  1.15803894779478 -0.15835103550355
 1  6.09992781858186 -0.48436402170217  0.69118881298130
 1  7.26281693479348 -1.67557160256026 -1.36958180428043
 1  7.70634038513851 -0.05928042344234 -2.19489834753475
 1  8.69158359995999  0.88516636813681  0.02318357685769
 1  8.42773550345035 -0.93033012001200  0.54827768066807
 1  10.32067893319332 -0.62135193689369 -1.94665538843884
 1  9.41586877447745 -2.66081474427443 -1.47573679917992
 1  11.16612347334734 -2.59605128152815 -1.21001674727473
 1  10.01696013781378 -2.79778165566557  0.18184466296630
 1  11.15170936103610  0.64023164696470  0.34475793839384
 1  11.27531510091009 -1.05571405690569  1.02203272497250
 1  12.78513502150215 -1.54659853885389 -0.79393283608361
 1  12.64211452805280  0.04668739583958 -1.45843916241624
 1  13.72509354485448  0.86419681548155  0.46467164126413
 1  13.96793162866287 -0.81888484248425  1.26323589978998
 1  15.34825632303230  0.56802000180018 -1.42068871867187
 1  14.79574496949695 -1.94047233103310 -1.40685470597060
 1  16.80835757205721 -1.84862070157016 -1.03742513511351
 1  15.43516623422342 -2.28090770937094  0.14346704800480
 1  15.93492068366837  1.64131722042204  0.66063990759076
 1  16.31723804650465 -0.06487267816782  1.37452944974497
 1  18.12504858215821 -0.18448692729273 -0.37526221092109
 1  17.81446417181718  1.12837580068007 -1.24347165176518
 1  18.17002870877088  2.68399712741274  0.66902339733973
 1  18.54237725192519  1.25302413921392  1.71398265386539
 1  20.50095832563256  0.78737947164716 -0.13389045194519
 1  19.50118281548155  3.48191032313231 -1.08951392559256
 1  21.04107262446244  2.78552415621562 -1.47803312671267
 1  19.48032626842684  1.72025206180618 -1.80442562376238
 1  20.77951296439644  2.24028357865787  2.22700662846285
 1  21.98843268496849  2.56490460706071  0.71263316311631
 1  20.46807447014702  3.60027969846985  1.49755235963596
 1 -7.13422720522052  1.74571884388439  0.40159341614161
 1 -7.66058742534253 -0.19181405700570 -0.06091941214121

