%nproc=4
%Mem=2GB
# td=(NStates=1) B3LYP/SVP 

TD

0 1
 6 -5.11104395489549 -2.02405221122112  0.40987961306131
 6 -4.65578173637364  2.67906813581358  1.36968364446445
 6 -9.20841008460846  3.48877507380738 -0.25036965316532
 6 -9.88175002610261 -1.36396799139914 -0.91956810221022
 7 -5.12609935793579  0.35137159825983  0.88972643064306
 6 -4.51389948754875 -0.85023400700070  0.82721880748075
 6 -3.02867462116212 -0.61258174167417  1.33399664906491
 6 -2.97912206460646  0.78841395899590  1.92367687308731
 6 -4.30487544564456  1.27730477587759  1.33180509190919
 6 -2.93930042794279  0.74680298129813  3.44626448444844
 6 -2.04084942774277 -1.01201621572157  0.24378098579858
 6 -0.59244763286329 -0.96553540834083  0.56741450655065
 6  0.36348085398540 -1.20881779907991 -0.54354021122112
 8  0.11995173107311 -1.60696038593859 -1.64568702330233
 8  1.68374344954495 -0.93788020652065 -0.20264525652565
 7 -6.89564274527453  2.66054079597960  0.43571416541654
 6 -5.77196137713771  3.31197793029303  0.95391951735173
 6 -6.03841511401140  4.80320840464046  1.04501605330533
 6 -7.26586965146515  5.00283160616062  0.49963519361936
 6 -7.85833128352835  3.67556615551555  0.14126546284628
 6 -4.99427858425843  5.74857864026403  1.46673267716772
 6 -7.89225581378138  6.23727344504450  0.35470052435244
 6 -8.80823834663466  6.79524881548155 -0.58456707300730
 7 -9.11601500080008  1.00793926852685 -0.50194717011701
 6 -9.74997677507751  2.12386568826883 -0.62690150085009
 6 -11.23874011201120  2.01187482698270 -0.94770884218422
 6 -11.40931637213721  0.70084412581258 -1.13331339293929
 6 -10.10575728412841 -0.00722777217722 -0.86145962636264
 6 -12.10621481868187  3.12414498359836 -1.10861529062906
 6 -12.65185528292829 -0.04723382178218 -1.53852608760876
 6 -12.73601807140714 -0.32125677207721 -3.07270445484548
 7 -7.48459158485849 -1.27336165066507 -0.22417876297630
 6 -8.64747073257326 -1.95832244644464 -0.67548447684768
 6 -8.22540614781478 -3.47112171367137 -0.64235797429743
 6 -6.94632666086609 -3.44265014931493 -0.20156226152615
 6 -6.42915145474547 -2.07041884098410 -0.04313215911591
 6 -9.10133411851185 -4.68872227222722 -1.01108361516152
 6 -5.88226434793479 -4.31179640654065  0.16057872747275
 8 -5.94412626872687 -5.51886839553955 -0.02342542214221
 6 -4.59142474707471 -3.44411152385238  0.47124237383738
 6 -3.98175058985899 -3.90211390659066  1.72194407970797
 8 -4.23887649934994 -3.49958091399140  2.89179964396440
 8 -3.16161867756776 -4.89678996029603  1.39117486048605
 6 -2.65643917421742 -5.64973587888789  2.50933740404040
 6  2.64409445284528 -1.16096478707871 -1.14698890419042
 6  3.92891700150015 -0.67630225362536 -0.48585519871987
 6  4.84983728392839 -0.00234118651865 -1.18284368896890
 6  4.81862237243724  0.55819966166617 -2.66793933293329
 6  6.14484819691969  0.26498912721272 -0.51176263936394
 6  7.47613184038404 -0.31294062716272 -1.08487584098410
 6  8.73000647764777  0.03479827292729 -0.33682856275628
 6  10.01798365306531 -0.61439592219222 -0.83277425732573
 6  10.12979677307731 -2.17047221302130 -0.80852496719672
 6  11.22321299589959  0.02213254265427 -0.12832530053005
 6  12.56805539013901 -0.55787426582658 -0.50880875807581
 6  13.71896830403040  0.19576687358736  0.14905126772677
 6  15.18817063816382 -0.02532556835684 -0.34753858965897
 6  15.55758308590859 -1.55311947384738 -0.25955569106911
 6  16.07170976817682  0.97301821302130  0.41493475787579
 6  17.51185802450245  0.81312704660466 -0.12577708550855
 6  18.49715956695669  1.72723134213421  0.61005969886989
 6  19.95883577947795  1.64514013931393  0.22376513691369
 6  20.18315924542454  2.05021445264526 -1.29104551355136
 6  20.89019948554856  2.33462719881988  1.22256865756576
 1 -3.91415958355836  3.43569995429543  1.66939917821782
 1 -10.04346193119312  4.13556299279928 -0.13492216611661
 1 -10.62028036793679 -1.86846285628563 -1.32447234113411
 1 -2.91618767026703 -1.33957432153215  2.29404119881988
 1 -2.09060962856286  1.41882183328333  1.62398189658966
 1 -2.04833234913491  0.28550597229723  3.79550627592759
 1 -3.09176247654766  1.71619626322632  3.93694279547955
 1 -3.77289786918692  0.08015871817182  3.97994684038404
 1 -2.16340579447945 -1.99204308200820  0.01992513621362
 1 -2.15887182578258 -0.57621014671467 -0.85806446714671
 1 -0.18574289768977  0.05543966986699  0.95748177867787
 1 -0.33549656255626 -1.46359553955396  1.55277239623962
 1 -4.03826848424842  5.56159429702970  0.93555669366937
 1 -5.27615883468347  6.87772289098910  0.99226482348235
 1 -4.66446822382238  5.64986483588359  2.59118017861786
 1 -7.55925602450245  6.99963699739974  1.08635994229423
 1 -9.29010440324032  6.22048003350335 -1.32592198819882
 1 -8.92712699189919  7.97546283158316 -0.39650935503550
 1 -11.99348389578958  3.72813331183118 -0.19811220982098
 1 -11.87567648994900  3.68797376207621 -1.98337555505551
 1 -13.17703510351035  3.12441806000600 -1.38370141704170
 1 -13.12346717261726 -1.01239136543654 -0.93795836963696
 1 -13.51921266356636  0.74001366276628 -1.46266994429443
 1 -12.90389490449045  0.78191520662066 -3.40643948734873
 1 -11.83191939963996 -0.76707610401040 -3.52055285198520
 1 -13.51307938113811 -0.73915127322732 -3.35062892159216
 1 -9.86683423022302 -4.74797688958896 -0.34285008890889
 1 -9.71712362256226 -4.80842785628563 -1.89398991959196
 1 -8.34925663116312 -5.59011979187919 -0.96296094959496
 1 -3.80550627792779 -3.62572992429243 -0.29424248404840
 1 -1.81340820882088 -6.35595219891989  2.15690139413941
 1 -2.00344691639164 -4.84704444344434  2.93539799009901
 1 -3.42913396879688 -6.17956495649565  3.01100262046205
 1  2.46512830463046 -2.10530727182718 -1.52168930223022
 1  2.52904474737474 -0.43659509750975 -2.04368198749875
 1  4.17686912281228 -1.12361043154315  0.63596264066407
 1  5.32867813231323  1.52173987178718 -2.82412499989999
 1  5.30891785558556 -0.27490153495350 -3.41701476857686
 1  3.74797128232823  0.73314612051205 -2.94205956285629
 1  6.20367046414641  1.23943708760876 -0.19337453785378
 1  6.02937076287629 -0.14434001930193  0.43322301640164
 1  7.23173382648265 -1.50284432983298 -1.19341418751875
 1  7.61680143124312  0.23730923552355 -2.12837169486949
 1  8.98548298989899  1.07571542304230 -0.15008374987499
 1  8.63602633253325 -0.32121920892089  0.75620847374738
 1  10.20598746404640 -0.28050785248525 -1.91133185608561
 1  9.24261144874488 -2.60008867166717 -1.30796002150215
 1  10.86964382538254 -2.68788046444645 -1.35891163676368
 1  10.08311675347535 -2.46425830333033  0.17478395689569
 1  11.14581877197720  1.23312093589359 -0.31382792019202
 1  11.14489205860586 -0.22244072957296  0.98864938663866
 1  12.95413192119212 -1.56638051705171 -0.25019846264627
 1  13.00852116871687 -0.39845711861186 -1.48931224972497
 1  13.61348238373837  1.18901929772977 -0.08914374027403
 1  13.75907074257426  0.10011705770577  1.36004558075808
 1  15.25446694409441  0.08174137393739 -1.44812146194619
 1  15.14350974597460 -2.21457974177418 -0.99140316081608
 1  16.55749248554856 -1.90945678517852 -0.45161655425543
 1  15.46810952855285 -1.97830744934493  0.73386608790879
 1  15.72604979657966  1.98236132483248  0.19254309790979
 1  16.00547687038704  0.75860967006701  1.53355535233523
 1  17.89033511081108 -0.29380785938594 -0.01233591829183
 1  17.26200892629263  1.06214917801780 -1.16972427702770
 1  18.12807451335134  2.81713044074407  0.64422091709171
 1  18.35223823802380  1.59064790159016  1.91704295989599
 1  20.27538576837684  0.45424615831583  0.21245418251825
 1  20.15584828202821  3.26441857395740 -1.42376735093509
 1  21.28558707590759  1.72391799559956 -1.62322764616462
 1  19.45209344514451  1.51028106470647 -2.03304848604860
 1  20.82308732183218  1.76407595789579  2.16203013081308
 1  21.99663350505050  2.28922703930393  0.90612251205121
 1  20.67374503720372  3.21331100160016  1.57299990439044
 1 -6.99396317881788  1.62701697369737  0.47614087088709
 1 -7.46102746934694 -0.18569344494449 -0.10815413561356

