%nproc=4
%Mem=2GB
# td=(NStates=1) B3LYP/SVP 

TD

0 1
 6 -5.10143299379938 -1.92178198419842  0.56204482958296
 6 -4.81372753095309  2.78244847384738  1.33012968906891
 6 -9.47953719731973  3.28127432373237 -0.17361197739774
 6 -9.88016986808681 -1.56392798739874 -0.92336848224822
 7 -5.25782253025303  0.44606106720672  0.89365682368237
 6 -4.52154025162516 -0.71948093169317  0.81986807240724
 6 -3.09007076077608 -0.48614909840984  1.24923817321732
 6 -3.16686083848385  0.97192230983098  1.94354886028603
 6 -4.45305026312631  1.40719776517652  1.33586549794980
 6 -3.13834033193319  0.89279758075808  3.42167202520252
 6 -2.09424476727673 -0.61567658175818  0.06528313601360
 6 -0.67179556765677 -0.58888774357436  0.49458722382238
 6  0.37457196309631 -0.88928584588459 -0.56253211041104
 8  0.16251598749875 -1.42403209310931 -1.61717417201720
 8  1.54122919811981 -0.60668708720872 -0.25373036503650
 7 -7.14718789978998  2.78802354425443  0.63962455645565
 6 -6.01724590559056  3.42258899139914  1.04992911831183
 6 -6.36291756425643  4.79500758455846  1.08698024972497
 6 -7.56581964646465  4.99165048804880  0.51202643274327
 6 -8.14939038943895  3.64645324422442  0.25238657495750
 6 -5.34102325872587  5.92222600500050  1.34902090599060
 6 -8.31542813101310  6.15995571327133  0.25477053135314
 6 -9.21163868666867  6.48146743734373 -0.69248786508651
 7 -9.30424382368237  0.80517899249925 -0.35588256365637
 6 -9.92740451785179  1.99477277897790 -0.51585039573957
 6 -11.40962720072007  1.78617225672567 -0.79494356565657
 6 -11.48190363086309  0.46485052645265 -1.16319638123812
 6 -10.15501220962096 -0.13448049744975 -0.78136161656166
 6 -12.38699289648965  2.86922949204920 -0.98905333443344
 6 -12.78735883328333 -0.25486458485849 -1.64834706970697
 6 -12.89152362196220 -0.59111375777578 -3.23177036143614
 7 -7.55341846754675 -1.22626694119412 -0.13166951205121
 6 -8.62834882038204 -2.13013962816282 -0.57203413181318
 6 -8.09246285348535 -3.51992659415942 -0.72005574407441
 6 -6.77305933413341 -3.48599448374837 -0.24776688198820
 6 -6.42194073367337 -2.03347514661466  0.06071822592259
 6 -8.90254423952395 -4.65062846284628 -1.09038154495450
 6 -5.60215633713371 -4.25407063396340 -0.05726305670567
 8 -5.43345520162016 -5.53832034073407 -0.05916899649965
 6 -4.51933753835383 -3.27508462116212  0.40063531313131
 6 -3.86005842064206 -3.78446214141414  1.66616850215021
 8 -4.10994360606061 -3.51311226712671  2.76655711971197
 8 -2.83380589628963 -4.64975525682568  1.36351209420942
 6 -2.18051158145815 -5.26824773007301  2.41517798809881
 6  2.63456349974997 -0.89927861846185 -1.26178038333833
 6  3.97891200100010 -0.50080470387039 -0.61697831103110
 6  4.96769907010701  0.18203725132513 -1.12590799539954
 6  4.90468097829783  0.85026886858686 -2.45807834683468
 6  6.19359307140714  0.42558518681868 -0.35621708480848
 6  7.42835706290629 -0.31925125822582 -0.96814416781678
 6  8.77421089808981 -0.15211041794179 -0.09202408230823
 6  10.06425828052805 -0.61176565916592 -0.71204218411841
 6  10.06779057245725 -2.14825999179918 -1.03355747044704
 6  11.31837251185118 -0.11086075667567  0.10804833683368
 6  12.70103868846885 -0.50639911831183 -0.56900477767777
 6  13.88341474867487  0.17983528042804  0.25318168076808
 6  15.31831365246525 -0.21349438523852 -0.27949178497850
 6  15.54553188078808 -1.72225638753875 -0.39643937943794
 6  16.43158575577558  0.53296420762076  0.53601686608661
 6  17.82863970267027  0.62820855475548 -0.15607011481148
 6  18.81496134713471  1.42812143114311  0.59690838373837
 6  20.24074397029703  1.25709133443344  0.15846860726073
 6  20.36208713821382  1.72637206840684 -1.36724313331333
 6  21.20843130873087  1.89377311341134  1.13565996669667
 1 -4.26234440204020  3.32188857315732  1.61122336063606
 1 -10.26504408940894  4.02263169966997 -0.08951762566257
 1 -10.62975131503150 -2.43344935493549 -1.25155504940494
 1 -2.87767381888189 -1.24300466456646  2.06205800050005
 1 -2.43998456605661  1.70311026212621  1.59755925432543
 1 -2.16142365826583  0.57726514821482  3.64526125142514
 1 -3.18035133543354  1.74305894949495  3.87423652485248
 1 -3.87672825222522  0.15958666096610  3.76208505420542
 1 -2.37188664256426 -1.19782366006601 -0.87607446374637
 1 -2.30637657625763  0.20248772307231 -0.63155181588159
 1 -0.35642996639664  0.24177830373037  1.07364339483948
 1 -0.39455246814681 -1.29304848484849  1.30401752075208
 1 -4.58430308770877  5.88342648024802  0.64933807180718
 1 -5.87227844664466  7.11136625532553  1.24435003200320
 1 -5.05329710671067  5.78542839223922  2.45318637923792
 1 -7.99122922182218  7.05720275397540  0.84300560686069
 1 -9.55444083688369  5.75526351185118 -1.25805520152015
 1 -9.59259353855386  7.59223450875087 -0.88099780388039
 1 -12.37825237263726  3.28767926642664  0.13063066446645
 1 -11.99365828812881  3.83325829052905 -1.58786600410041
 1 -13.33318071807181  2.45265088328833 -1.18491153805381
 1 -12.86424125002500 -1.19493962026203 -1.11296587038704
 1 -13.58947969026903  0.29046870827083 -1.45107878517852
 1 -12.59381389638964  0.28632564766477 -3.80585942934293
 1 -12.11391759945995 -1.46156555295530 -3.52881367806781
 1 -13.97771584478448 -0.79189654775478 -3.68996285498550
 1 -10.12990053685369 -4.58599069096910 -0.71604740864086
 1 -9.03415532573257 -4.48783579707971 -2.26238675927593
 1 -8.47011871737174 -5.66039681958196 -0.72622727622762
 1 -3.78388411571157 -3.42198955025503 -0.58746180598060
 1 -1.55422229022902 -6.10713731743174  2.12005770977098
 1 -1.47721429312931 -4.59004874387439  3.00667511781178
 1 -2.91888294369437 -5.67988498849885  3.12069358955896
 1  2.60771256305630 -2.08558529962996 -1.22523965726573
 1  2.44206604950495 -0.60371180918092 -2.22118973827383
 1  4.01641307720772 -0.88386645714571  0.38069711411141
 1  4.75195045954595  1.92557025482548 -2.37266985438544
 1  5.74544150795079  0.58453440864086 -3.27230029712971
 1  3.94157064226423  1.03195600150015 -3.04095945284528
 1  6.39677977507751  1.50763390729073 -0.30753595399540
 1  6.27323514931493  0.06323073777378  0.68706840094009
 1  7.19646029912991 -1.38120216561656 -0.98676352245225
 1  7.68948869997000 -0.04210870627063 -1.96733559125913
 1  8.77188162976297  0.91392924442444  0.23857511601160
 1  8.77124985488549 -0.62809989698970  0.95105795869587
 1  10.13525039033903  0.03764396269627 -1.72842356525653
 1  9.23972115971597 -2.35753441624162 -1.81426065156516
 1  11.00102696369637 -2.55491716811681 -1.62798854445444
 1  10.05063350515051 -2.83711558905891 -0.07012053355336
 1  11.20571476157616  1.03714133793379  0.33607707030703
 1  11.19658722812281 -0.52151063656366  1.15376589828983
 1  12.89248575657566 -1.63130700970097 -0.70170361316132
 1  12.86939725632563 -0.05000227312731 -1.54765808430843
 1  13.92363339883988  1.33773416921692  0.17965313941394
 1  13.69469430493049 -0.07994094809481  1.34803437963796
 1  15.44808630603060  0.09009220902090 -1.31376802660266
 1  14.74986038103810 -2.18171645544555 -1.12560658115812
 1  16.55344208050805 -1.86280211971197 -0.88084947754775
 1  15.56765948354836 -2.51721133973397  0.56997969926993
 1  16.19357654925492  1.55142823152315  0.72993683728373
 1  16.57907423012301  0.21215502460246  1.50597259405941
 1  18.02918899619962 -0.28164664326433 -0.36951163586359
 1  17.76513923932393  0.88510147324733 -1.21569887448745
 1  18.53319502540254  2.51461018871887  0.90189668466847
 1  18.86052906710671  1.07504634143414  1.56101735733573
 1  20.50169839963997  0.09935066876688  0.08833177027703
 1  20.16832953015302  2.79974210631063 -1.33766874107411
 1  21.25761427862786  1.59035463926393 -1.95965128852885
 1  19.88717695349535  1.29745978257826 -2.17265244644464
 1  21.25779079217922  1.56156570687069  2.23195712351235
 1  22.31723556525652  1.78075619221922  0.88646054585459
 1  20.96110377307731  3.02899256975698  1.09005160956096
 1 -7.17847162966296  1.90957522952295  0.15882913971397
 1 -7.66871823842384 -0.25386026162616  0.07592427222722

