%nproc=4
%Mem=2GB
# td=(NStates=1) B3LYP/SVP 

TD

0 1
 6 -5.08215106560656 -1.98618842484248  0.32857148224822
 6 -4.83200935913591  2.76321655065507  1.54085076117612
 6 -9.36383562716272  3.38815501180118 -0.29634425062506
 6 -9.81857370847085 -1.43179477407741 -1.05186133153315
 7 -5.17302405040504  0.43940040114011  0.66056351435144
 6 -4.51431952955296 -0.82233121672167  0.80353643924392
 6 -3.11532328602860 -0.60376085958596  1.40073332273227
 6 -3.10483463586359  0.88673379097910  1.85674017941794
 6 -4.40487544564456  1.42494954035404  1.33709562096210
 6 -2.88630512841284  0.90272857385739  3.39095895389539
 6 -1.99840518331833 -0.89332434653465  0.29888649634963
 6 -0.61249963806381 -0.76678553335334  0.81078884398440
 6  0.29804431033103 -1.05969288658866 -0.34174003120312
 8  0.02314205010501 -1.41224091399140 -1.46668912351235
 8  1.50551562676268 -0.77739415791579 -0.06752174417442
 7 -7.03813699469947  2.70365510741074  0.47556815081508
 6 -6.02547672867287  3.31766849934994  1.09543366876688
 6 -6.26068734123412  4.70154823862386  1.06418797049705
 6 -7.55143820832083  4.95777710071007  0.48663389348935
 6 -8.01081653205321  3.65104370327033  0.09261059735974
 6 -5.42467162356236  5.84466824922492  1.56914291819182
 6 -8.20350693889389  6.18897861556156  0.29551460576058
 6 -9.04514203700370  6.61769105970597 -0.65019363566357
 7 -9.12117551685169  0.84080255485549 -0.53936091149115
 6 -9.79291106850685  2.05651895359536 -0.69000781148115
 6 -11.20653689168917  1.89627326682668 -0.97958202950295
 6 -11.39330477097710  0.52748679007901 -1.21624168576858
 6 -10.06930363876388 -0.08711576097610 -0.97641112151215
 6 -12.19161335853585  2.96894946404640 -1.12897732683268
 6 -12.66159625702570 -0.17061616001600 -1.63343557855786
 6 -12.58588305790579 -0.36177082348235 -3.09503668806881
 7 -7.50596372207221 -1.23683799829983 -0.20812715781578
 6 -8.61226721222122 -1.97245385958596 -0.67353428182818
 6 -8.24195780298030 -3.40966556805681 -0.71355509400940
 6 -6.93865589378938 -3.33545943024302 -0.23231533683368
 6 -6.46650519011901 -2.02066386548655  0.05319747384738
 6 -9.16050003510351 -4.42172557255726 -1.15639814661466
 6 -5.82024814631463 -4.32567779467947 -0.04975230563056
 8 -5.70833268936894 -5.53978048674867 -0.17623070267027
 6 -4.59025463006301 -3.32595970867087  0.34028927852785
 6 -4.02426484128413 -3.86125982118212  1.65671755705571
 8 -4.29588219991999 -3.44225518141814  2.72977344134413
 8 -3.15308782448245 -4.80801108240824  1.48683442644264
 6 -2.42148567886789 -5.35542644794479  2.57873434373437
 6  2.68528857225723 -1.06889558015802 -0.95967017231723
 6  4.01806591639164 -0.61579620302030 -0.30817743094309
 6  5.02091439163916  0.02599164676468 -0.90984638923892
 6  4.87681819201920  0.71493533523352 -2.28057059605961
 6  6.34363807590759  0.24880750905090 -0.23274473757376
 6  7.56937116431643 -0.41853118621862 -0.83652100550055
 6  8.79184266126613 -0.23379858675868  0.00563568366837
 6  10.08265011971197 -0.73747823042304 -0.67334831473147
 6  9.98978277167717 -2.29510467626763 -0.94006812151215
 6  11.31922259685969 -0.33778344894489  0.16243377537754
 6  12.56717530213021 -0.67454593299330 -0.56240411761176
 6  13.84278068526853  0.08849614651465  0.19743610621062
 6  15.17082890399040 -0.06233926972697 -0.44872870867087
 6  15.65986331393139 -1.48037219911991 -0.65147488298830
 6  16.29970256745675  0.76529744094409  0.18556182058206
 6  17.72358919761976  0.81103683758376 -0.30613512131213
 6  18.64824467546755  1.64636325532553  0.47518621152115
 6  20.15281517741774  1.58189381468147  0.06099886028603
 6  20.40203113261326  2.19298873007301 -1.45282169116912
 6  21.19890035563557  2.15390912701270  1.05362176287629
 1 -4.10982915051505  3.42348873317332  2.07359959825983
 1 -10.29864744974497  4.17022645914591 -0.18667734163416
 1 -10.45089342924292 -2.19531554155416 -1.16350624452445
 1 -3.11929798129813 -1.63117348144814  2.13055485018502
 1 -2.12104267186719  1.33656360746075  1.39897939633963
 1 -1.89606712261226  0.39176659835984  3.85620234553455
 1 -3.02343564386439  1.87721236483648  4.03414251545154
 1 -3.50428100750075  0.21859256155616  3.79147799349935
 1 -2.02927238113811 -1.88143202090209 -0.05542239853985
 1 -2.16898283688369 -0.07208973467347 -0.44883354405441
 1 -0.31687601100110  0.24035816171617  1.28777480798080
 1 -0.54514752765276 -1.42762194219422  1.69633675267527
 1 -4.73810846824682  6.26694483208321  0.64243738173817
 1 -6.06220743954395  6.75352047074708  1.63918951595160
 1 -4.57083886088609  5.25386523592359  2.38878993959396
 1 -8.00404050295029  6.94696172987299  0.98434974127413
 1 -9.38250364316432  6.00318830433043 -1.39471886788679
 1 -9.46678095729573  7.68129341464146 -0.66881658575858
 1 -12.29070361776178  3.64985548404841 -0.14927732633263
 1 -11.94703362566257  3.70301526622662 -1.85409262676268
 1 -13.09955735573558  2.51499711791179 -1.44749779667967
 1 -12.80583540944094 -1.19230935723572 -0.96694126792679
 1 -13.66375711801180  0.17315697709771 -1.33248692599260
 1 -12.45462997799780  0.53872088718872 -3.77976682008201
 1 -11.59757596529653 -0.94713410981098 -3.37324812151215
 1 -13.60945901910191 -0.83375073317332 -3.52931679037904
 1 -10.11594914171417 -4.46423851575158 -0.52478828272827
 1 -9.41222313251325 -4.18958597209721 -2.18072859345935
 1 -8.66284799029903 -5.40886166606661 -1.18131278477848
 1 -3.83690941824182 -3.82957030833083 -0.45802886268627
 1 -1.98181504950495 -6.08004460816082  2.01360706470647
 1 -1.71213778547855 -4.62014175317532  3.05219967026703
 1 -3.22036309170917 -5.49351635163516  3.39070059025903
 1  2.78821061286129 -2.11768850995100 -1.10472760606061
 1  2.45565740864086 -0.57496893489349 -1.88882650195020
 1  4.10819225512551 -1.17305537603760  0.68445749014901
 1  4.97958322282228  1.88780647844784 -2.34597718511851
 1  5.77299426322632  0.45973192839284 -2.95952902000200
 1  3.93288977417742  0.41845465136514 -2.68621397829783
 1  6.62861295839584  1.31465460936094 -0.34614981538154
 1  5.88155598139814 -0.11659724502450  0.83013270737074
 1  7.40947160026003 -1.56950099549955 -1.09039388548855
 1  7.76765651675168 -0.01665616101610 -2.01180003770377
 1  8.89403384498450  0.78839669116912  0.20664192269227
 1  8.74011674157416 -0.88152523952395  0.96137899079908
 1  10.21196806210621 -0.20559036073607 -1.63643436633663
 1  9.19129631723172 -2.58656731953195 -1.71024024952495
 1  10.87144400540054 -2.96625830223022 -1.34352009760976
 1  10.04432287408741 -2.93215509300930  0.16009248774878
 1  11.49294348444844  0.61050867466747  0.17350081268127
 1  11.25407297669767 -0.81425991149115  1.17928845054505
 1  12.84413092109211 -1.80134401340134 -0.55991943474347
 1  12.36934725132513 -0.27420469336934 -1.61558487698770
 1  13.69237027252725  1.31946234203420  0.36074124822482
 1  13.88068290379038 -0.45703865786579  1.18831840804080
 1  14.99225072247225  0.37170036983698 -1.47903455325533
 1  15.09815521052105 -1.91624990879088 -1.45017903840384
 1  16.67151388768877 -1.56067190669067 -1.27949934253425
 1  15.47907062466247 -2.07916753535354  0.36609931123112
 1  16.02993018461846  1.66271936063606  0.62583642724272
 1  16.34571089378938  0.26549035813581  1.21875387218722
 1  18.00101617891789 -0.17517599619962 -0.28005268996900
 1  17.65027775317532  1.14201716481648 -1.40927823242324
 1  18.27997970387039  2.71685041274127  0.30991748674868
 1  18.66699971417142  1.57932676947695  1.68121937753775
 1  20.23435166496650  0.40526125982598 -0.11863892679268
 1  20.22409510671067  3.32929506160616 -1.54042901710171
 1  21.51209972717271  2.09464506830683 -1.49026434983498
 1  19.82486072187219  1.71846188278828 -2.38636381758176
 1  20.71294630773077  1.59028857915792  2.10275420322032
 1  22.14738858055805  1.71575969256926  0.90942284208421
 1  21.15491315401540  3.46373604410441  1.16926953135313
 1 -6.91535531803180  1.82898717071707  0.04313757055706
 1 -7.67248861546155 -0.20038491409141 -0.05348866906691

