%nproc=4
%Mem=2GB
# td=(NStates=1) B3LYP/SVP 

TD

0 1
 6 -5.11569441994199 -1.88649845584558  0.39229785488549
 6 -4.71647780598060  2.80267049604960  1.31375805190519
 6 -9.21429067266727  3.41498769506951 -0.15860047624762
 6 -9.93835568666867 -1.32943453805381 -0.97454359975998
 7 -5.19856660466047  0.45332179327933  0.72726018401840
 6 -4.51400949854986 -0.76787577117712  0.82496858245825
 6 -3.03877563126313 -0.57353783728373  1.23649689908991
 6 -3.10225437783778  0.87527264486449  1.80213471887189
 6 -4.35175013311331  1.40226727212721  1.24247615901590
 6 -2.98714521242124  0.79120742174217  3.41040089808981
 6 -2.04178952175217 -0.78284329842984 -0.01046443874387
 6 -0.61529991809181 -0.69666852165217  0.53349111421142
 6  0.43130763666367 -1.11678859615962 -0.62674853205321
 8  0.09176891279128 -1.55720541044104 -1.68543099769977
 8  1.65701077627763 -0.85989240774077 -0.19989498149815
 7 -7.04502768376838  2.76163090499050  0.48587918191819
 6 -5.89792397339734  3.42028876137614  1.03965809120912
 6 -6.21576284878488  4.85726381018102  1.16575812751275
 6 -7.39442250675067  4.98153947694769  0.58343357345735
 6 -8.05221067146715  3.73254185308531  0.21630296659666
 6 -5.26517567396740  5.80761454385439  1.57021302520252
 6 -8.09303589178918  6.31942165986599  0.47040209450945
 6 -9.10424794759476  6.78521781238124 -0.38155677197720
 7 -9.22245564486449  0.94515298989899 -0.44032100750075
 6 -9.86951872927293  2.17711101280128 -0.51512032273227
 6 -11.31060729872987  1.94692833233323 -0.98885295659566
 6 -11.40623606410641  0.59843388478848 -1.18752881448145
 6 -10.19503621202120  0.04919787038704 -0.84590807120712
 6 -12.24201839903990  3.02219478857886 -1.21598602770277
 6 -12.64966506390639 -0.08197729612961 -1.71276351135114
 6 -12.58302277187719 -0.50688533493349 -3.19435662006201
 7 -7.53569669536954 -1.19051336583658 -0.20582692779278
 6 -8.66546253175317 -2.01636825102510 -0.60910783918392
 6 -8.24629823702370 -3.47852245374537 -0.60014375287529
 6 -6.90485251345135 -3.41605749004901 -0.20434253955396
 6 -6.49634817441744 -2.10825262436244 -0.04749259515952
 6 -9.22647663276328 -4.59072247224722 -0.93884639143914
 6 -5.71587770927093 -4.31202642954296 -0.09661699209921
 8 -5.67757961406141 -5.51522803150315  0.00964788518852
 6 -4.54351995659566 -3.36899401210121  0.34316956655666
 6 -3.94497691249125 -3.71243493869387  1.66622850815082
 8 -4.13669628132813 -3.26660761666167  2.74928539253925
 8 -3.39070158585859 -5.00730101140114  1.48784452745274
 6 -2.61053458375838 -5.48357926322632  2.61387785808581
 6  2.68731877527753 -1.31426011661166 -1.15110931623162
 6  4.02268637843784 -0.95155977937794 -0.52245885908591
 6  4.99916221642164 -0.19011996439644 -1.09106451105111
 6  4.91239174937494  0.37286112781278 -2.39980251925193
 6  6.29805351745175  0.02164479277928 -0.24857632073207
 6  7.53891811901190 -0.57977731083108 -0.92916026942694
 6  8.77593107010701 -0.30933614051405 -0.08624350425042
 6  10.14079593429343 -0.76677115971597 -0.68915989588959
 6  10.01820561396140 -2.33411857765777 -0.75151926662666
 6  11.29654032863286 -0.34141381198120  0.15325285728573
 6  12.74741332593259 -0.58142662106211 -0.59035691289129
 6  13.93572998019802 -0.08354105720572  0.27133349594959
 6  15.27923974507451 -0.12428546434643 -0.39390322612261
 6  15.85554288188819 -1.53050721262126 -0.79036877237724
 6  16.25731832903291  0.73786469766977  0.40101336573657
 6  17.70681752045205  0.91177691159116 -0.13881838963896
 6  18.61818166916692  1.77864648364836  0.61466015891589
 6  20.11189108500850  1.82067769306931  0.09431219161916
 6  20.18473940344035  2.32917234843484 -1.31496790579058
 6  20.98103856945695  2.60918465456546  1.07031343204320
 1 -3.81524969256926  3.39892627692769  1.87779001730173
 1 -9.88524610961096  4.13618305480548 -0.34753342724272
 1 -10.72187052695270 -2.14104011401140 -1.32804269816982
 1 -2.90518657015702 -1.39974033813381  2.17402919761976
 1 -2.15924649224922  1.36374632573257  1.33568306670667
 1 -2.04939245514551  0.41278870057006  3.72571929722972
 1 -3.11679497979798  1.78879352295230  3.78201730293029
 1 -3.95833641304130  0.13807450975098  3.76290513621362
 1 -2.20301975587559 -1.83824770247025 -0.35593244954495
 1 -2.24066000460046 -0.07617014271427 -0.84071273197320
 1 -0.33652797619762  0.33971809770977  0.82871890239024
 1 -0.36059907280728 -1.31023020302030  1.41656877587759
 1 -4.34826948434843  6.09537767536754  0.68511164916492
 1 -5.55564678347835  7.02697781648165  1.64422001900190
 1 -4.60394217121712  5.48637848724873  2.55899696029603
 1 -7.56630672957296  6.86292332603260  1.18525983228323
 1 -9.51899729252925  6.21290927642764 -1.11498089408941
 1 -9.62608688788879  7.78200348564856 -0.02089179327933
 1 -12.47310185758576  3.60348084658466 -0.37692009060906
 1 -12.13242216451645  3.65802076677668 -1.90849806730673
 1 -13.24380178017802  2.65600121832183 -1.20910395729573
 1 -12.71859668556856 -0.96247637393739 -1.22379695349535
 1 -13.49884062636264  0.46627628902890 -1.73873755105511
 1 -12.12093660866087  0.47171418651865 -3.78176702010201
 1 -11.70540674837484 -1.43925332173217 -3.28863966066607
 1 -13.58516658985899 -0.76787414551455 -3.66544040274027
 1 -10.32017956475648 -4.19209130103010 -0.48211401530153
 1 -9.13800571077108 -4.46667368086809 -2.22048256885689
 1 -9.09578128362836 -5.65655643554355 -0.49955460896090
 1 -3.64666039333933 -3.42494984628463 -0.46356941674167
 1 -1.78716558455846 -6.09109571327133  2.15270097409741
 1 -2.28153472517252 -4.50061980098010  3.21631608190819
 1 -3.12957401280128 -6.34445144514451  3.36209772997300
 1  2.54863665546555 -2.42735947704770 -1.27104423772377
 1  2.47832967586759 -0.95602704070407 -2.11295891519152
 1  4.20833226912691 -1.28043611411141  0.36724576897690
 1  4.70879614411441  1.52591028882888 -2.02244483188319
 1  5.87755471927193  0.13813976917692 -3.19247231433143
 1  3.99507599279928  0.42043484938494 -2.84747010391039
 1  6.33923402050205  1.28951209510951 -0.04761996239624
 1  5.95638346414642 -0.67780336563656  0.70164985908591
 1  7.19474012711271 -1.72929697509751 -0.80269511561156
 1  7.55381513261326 -0.23749824522452 -1.88999785748575
 1  8.92706714831483  0.72623047454745  0.05389664816482
 1  8.60078280818082 -0.61081816881688  0.97375022792279
 1  10.30421728702870 -0.62146194789479 -1.85839656255626
 1  9.27445463306331 -2.62874153695370 -1.34993421892189
 1  10.89951681268127 -2.66445812221222 -1.19236498209821
 1  10.02661110291029 -2.85917779527953  0.27336381488149
 1  11.40171436153615  0.68259588338834  0.62719618221822
 1  11.48856642604260 -1.10061854735474  0.95442596429643
 1  12.54777128512851 -1.55182906190619 -0.96450989378938
 1  12.75600591719172 -0.10002727562756 -1.52134545304530
 1  13.61020205570557  1.01573196899690  0.59589476357636
 1  13.92191702720272 -0.78115106910691  1.17928750495049
 1  15.40567206460646  0.43632683248325 -1.35305195499550
 1  14.87126252125213 -2.27067535133513 -1.19669368986899
 1  16.75866260256026 -1.41669750925092 -1.41821321392139
 1  16.01372409000900 -2.06407602620262  0.27063976527653
 1  15.63942113371337  1.70570365906591  0.49605344894489
 1  16.16827315001500  0.27042085118512  1.39298129492949
 1  18.14009008630863 -0.12663114171417 -0.25898058275828
 1  17.81848457385739  1.12017498059806 -1.02711001560156
 1  18.17719942584258  2.88118684638464  0.47822431743174
 1  18.57302031623162  1.74645348214822  1.64327558315832
 1  20.38494672447245  0.74897563126313 -0.08164522742274
 1  19.68657135433543  3.28559069116912 -1.33669864406441
 1  21.21319983718372  2.43026863066307 -1.72653797719772
 1  19.63107134293429  1.73356339293929 -2.07756293749375
 1  20.83409842294229  2.37940749104910  2.18466239403940
 1  21.96548038973897  2.57188530513051  0.93029492929293
 1  20.69256691939194  3.66198586908691  1.05718832323232
 1 -7.07349113161316  1.78195246724672  0.26383964076408
 1 -7.47935930253025 -0.17587246284629 -0.03085640584058

