%nproc=4
%Mem=2GB
# td=(NStates=1) B3LYP/SVP 

TD

0 1
 6 -4.98756160666067 -1.90558036403640  0.44115274037404
 6 -4.75140129832983  2.81375160416042  1.35502217831783
 6 -9.44522376597660  3.29812600890089 -0.20035465166517
 6 -9.74176602770277 -1.50194178877888 -0.91601774717472
 7 -5.18812556055606  0.45621208230823  0.84426188418842
 6 -4.48698679627963 -0.66144512811281  0.85291137673767
 6 -3.05355710941094 -0.49822030553055  1.21159440884088
 6 -3.04838899129913  1.04652977057706  1.79014351975198
 6 -4.38492345044504  1.49596664206421  1.31130304170417
 6 -2.89175567346735  1.00148844984498  3.26821667966797
 6 -2.02340768356836 -0.66364137823782 -0.00008340064006
 6 -0.61791017911791 -0.63410226502650  0.50366813191319
 6  0.29451395729573 -0.81293821112111 -0.78822467966797
 8 -0.09805006910691 -1.18543823372337 -1.87316977157716
 8  1.61391646684668 -0.74106052455246 -0.42436742874287
 7 -7.11297447844784  2.72084682658266  0.58134872887289
 6 -5.96373055405541  3.43091982448245  0.99030315571557
 6 -6.36106737923792  4.77389547334734  1.22494404610461
 6 -7.61567463196320  4.97060838383838  0.73214844494449
 6 -8.20980643104311  3.58485708460846  0.32310364666467
 6 -5.42645180158016  5.80863464586459  1.60729673357336
 6 -8.20930751895190  6.31744146184618  0.34096915121512
 6 -8.99825734853485  6.52114140474047 -0.75631424772477
 7 -9.23523692299230  0.85601407600760 -0.49938691409141
 6 -9.94677645504551  2.04814811651165 -0.54241305200520
 6 -11.29563580158016  1.77982162166217 -0.94303837513751
 6 -11.33280872137214  0.43106714811481 -1.12566262786279
 6 -10.04414112251225 -0.11090814021402 -0.89308278867887
 6 -12.32180637783778  2.80076264536454 -1.06855128422842
 6 -12.62089218661866 -0.36513561196120 -1.56697893289329
 6 -12.58621309090909 -0.75677032343234 -2.94701188558856
 7 -7.53280640634063 -1.27695200970097 -0.08109445454545
 6 -8.54546053155316 -2.06367298149815 -0.52626955535554
 6 -8.07558116531653 -3.43051765326533 -0.61542528102810
 6 -6.74731675987599 -3.42940882518252 -0.22440454575458
 6 -6.41091963156316 -2.05720751985199  0.12178433253325
 6 -9.02235622072207 -4.51163456345635 -1.07497000380038
 6 -5.60074619611961 -4.28844407130713 -0.03040037043704
 8 -5.41171302740274 -5.41492800150015 -0.18813189278928
 6 -4.44083968856886 -3.30316742944294  0.41944719431943
 6 -3.78805121992199 -3.72776647184718  1.74191607690769
 8 -4.10204281598160 -3.24929588548855  2.83130359435944
 8 -3.05277779347935 -4.82936321762176  1.57461320432043
 6 -2.45398892919292 -5.52556346164616  2.69730620092009
 6  2.62122216561656 -0.83462215281528 -1.47901210651065
 6  3.93153726352635 -0.65523014641464 -0.86771338453845
 6  4.97237953815381  0.20203925152515 -1.24256966156616
 6  4.92577308750875  1.00187402910291 -2.42021456045605
 6  6.18468218031803  0.18584121242124 -0.31455291839184
 6  7.54038826602660 -0.41573090619062 -1.09346670007001
 6  8.78717219421942 -0.11950715761576 -0.24501938183818
 6  10.05323717841784 -0.74919940254025 -0.73069404930493
 6  9.94209800320032 -2.19792495829583 -0.77356147084708
 6  11.22764343894389 -0.29974964556456  0.14986251825183
 6  12.65391397599760 -0.51189966836684 -0.55271314851485
 6  13.82203861106110 -0.06310901400140  0.28659502210221
 6  15.24615643674367 -0.39927296309631 -0.29909374517452
 6  15.60728805640564 -1.82737689958996 -0.34013374887489
 6  16.24799739693970  0.42789370057006  0.58753201760176
 6  17.63151999069907  0.46940267416742 -0.00068457625763
 6  18.63202305330533  1.41433005200520  0.62800149304930
 6  20.13498339423942  1.46948257355736  0.07640040044004
 6  20.09766069556956  2.25423485468547 -1.34531094009401
 6  20.95827629322932  2.23646738283828  1.11130753145315
 1 -4.12717088468847  3.35170155445544  1.81813405170517
 1 -9.86015360036004  4.30852028852885 -0.27286596049605
 1 -10.72202054195420 -2.03793980398040 -0.88667856175617
 1 -3.13794984648465 -1.05685604970497  2.21785358005801
 1 -2.15355592319232  1.47959791089109  1.29528902730273
 1 -2.01379889578958  0.54352177387739  3.66002272757276
 1 -2.84383768406841  2.07872251585159  3.73235233643364
 1 -3.75609618901890  0.23987468976898  3.82167101280128
 1 -2.25868532243224 -1.76161003870387 -0.54131098739874
 1 -2.18401434003400 -0.00434295999600 -0.70499916061606
 1 -0.39770409380938  0.29293341924192  1.25221125162516
 1 -0.50577359025903 -1.71344052405240  1.11577869686969
 1 -4.58214287168717  5.89437757535754  0.83441657965797
 1 -5.74092531133113  6.80243536223622  1.74546014301430
 1 -4.82554433143314  5.54226407580758  2.54501556215622
 1 -8.02901300020002  7.18395542924292  0.93647495379538
 1 -9.16786217901790  5.74289227472747 -1.27389678567857
 1 -9.22502678187819  7.61542682798280 -0.95596530063006
 1 -12.18463301070107  3.62942344084408 -0.15530792939294
 1 -12.02379130143014  3.36195115981598 -2.06558377587759
 1 -13.40809820982098  2.63241886008601 -1.20228327522752
 1 -12.79163398929893 -1.28923905020502 -1.03945851965197
 1 -13.46885762806281  0.30567022842284 -1.42120579787979
 1 -12.71592610761076  0.06336335143514 -3.83853269666967
 1 -11.58154436213621 -1.22654205060506 -3.11361215791579
 1 -13.34875294849485 -1.35914327242724 -3.28286214491449
 1 -9.97947549434944 -4.47175926782678 -0.57712351625163
 1 -8.95531744194419 -4.48172518601860 -2.55212573317332
 1 -8.51737344284428 -5.56885766566657 -0.85663031653165
 1 -3.77794352165217 -3.36079343064306 -0.49517257705771
 1 -1.98938580658066 -6.37629423312331  2.18089379337934
 1 -1.72395896759676 -4.94469420842084  3.22955740604060
 1 -3.41198225362536 -5.74719171917192  3.55380690089009
 1  2.38650044184418 -1.86693343444344 -1.97480461376138
 1  2.58648049094910  0.24542310431043 -2.11845946524652
 1  4.04366580248025 -1.25249331983198 -0.01800275587559
 1  5.40202546704670  2.02793049084908 -2.12093468086809
 1  5.45913287708771  0.69347530273027 -3.23273634073407
 1  3.89162564776478  1.36924973087309 -2.85550090699070
 1  6.39476957405741  1.13483662756276 -0.06294149454946
 1  6.16010383618362 -0.48252383768377  0.66300599469947
 1  7.38614926802680 -1.47725177057706 -1.25489033513351
 1  7.72575232633263 -0.00075457085709 -2.02669152685269
 1  9.06946138773877  1.02322017351735 -0.09731847334733
 1  8.59538226812681 -0.46414350135013  0.92534538743874
 1  10.20596746204620 -0.42291209290929 -1.65585630853085
 1  9.13992117971797 -2.71577023982398 -1.52919214471447
 1  10.90577743874388 -2.72949462586259 -1.21527727332733
 1  9.76073451525153 -2.73517539503950  0.32621910041004
 1  11.18790298039804  0.74357198099810  0.34162762536254
 1  10.99993756315632 -0.91703018851885  1.23815433713371
 1  12.51037754575458 -1.45391927092709 -0.89547299009901
 1  12.56078639523952  0.09105183228323 -1.41875519401940
 1  13.70238127362736  0.93299369516952  0.67195236933693
 1  13.71431626712671 -0.54121707570757  1.17493706990699
 1  15.25417691509151  0.03658685848585 -1.38415506530653
 1  15.08545394039404 -2.26198448224822 -1.31475549604960
 1  16.74851158745875 -2.00246608610861 -0.57250864346435
 1  15.42204492209221 -2.26483610221022  0.67316001730173
 1  15.92380957255726  1.39231231993199  0.73341718531853
 1  16.66194251695170 -0.01354754565457  1.67046904370437
 1  18.14571064836484 -0.43814229282928 -0.15518020272027
 1  17.61253397879788  0.96043900700070 -1.07706501110111
 1  18.10226193209321  2.46828555625563  0.58167466246625
 1  18.72552556675668  1.28121695849585  1.83141439703970
 1  20.61520975077508  0.45848658235824 -0.13410047294729
 1  19.81004370157016  3.23372550465047 -1.10713568776878
 1  21.10934945214521  2.38874447824782 -1.71441676507651
 1  19.59041727752775  1.68823886048605 -2.08954413561356
 1  20.90898591169117  1.75695524582458  2.04131805960596
 1  21.89778362006200  2.36846496309631  0.70672257205721
 1  20.53543120582058  3.21559122962296  1.41001360576058
 1 -7.19857363986399  1.56687095909591  0.13863712051205
 1 -7.59163052965297 -0.26366124172417  0.00443712351235

