%nproc=4
%Mem=2GB
# td=(NStates=1) B3LYP/SVP 

TD

0 1
 6 -5.20384323482348 -2.02740254625463  0.43416204130413
 6 -4.67295345354535  2.64850507950795  1.45732240834083
 6 -9.30589983358336  3.43503970027003 -0.19504412061206
 6 -9.85881773287329 -1.39032062666267 -0.96488263366337
 7 -5.11629837783778  0.45802226332633  0.71120857885789
 6 -4.50379847744775 -0.75761474507451  0.62957904350435
 6 -3.07832958665867 -0.73385386888689  1.20741399079908
 6 -3.04818897129713  0.81979709730973  1.84688919431943
 6 -4.32806776487649  1.29217626302630  1.27959987138714
 6 -2.86857335523552  0.85417371837184  3.32034189218922
 6 -2.02494783758376 -0.98957397149715  0.07454406210621
 6 -0.53263165126513 -1.07199605440544  0.62099986508651
 6  0.43773827972797 -1.24237115441544 -0.55338119531953
 8  0.08849858575858 -1.47926761666167 -1.77891034563456
 8  1.64863993919392 -0.88250466896690 -0.19414440644064
 7 -7.04740792179218  2.78258300020002  0.50919151315132
 6 -5.95493967496750  3.30689742224222  1.00954507990799
 6 -6.10148142064206  4.74178226202620  1.12102365406541
 6 -7.41136420092009  5.03311463446345  0.56635186528653
 6 -8.03786923732373  3.83898249714972  0.25475681198120
 6 -5.17221637803780  5.77673145554555  1.52668867276728
 6 -7.97685427362736  6.33899361706171  0.43415847014701
 6 -8.87283480628063  6.78024731533153 -0.43920253655366
 7 -9.10394379367937  0.92331080568057 -0.63533050845085
 6 -9.80781255865586  2.12093539523952 -0.59021783248325
 6 -11.17997423542354  1.92786642614261 -0.97677174847485
 6 -11.44479992049205  0.64151819321932 -1.22375243684368
 6 -10.10088679707971 -0.05153220262026 -0.96302978337834
 6 -12.12490668786879  3.04813738283828 -1.08691312041204
 6 -12.70955105250525 -0.13284238263826 -1.58938117311731
 6 -12.83000747034704 -0.25387003340334 -3.15773295769577
 7 -7.53566669236924 -1.28028234273427 -0.30815716081608
 6 -8.60325631113111 -1.95238185238524 -0.69819674807481
 6 -8.26326993419342 -3.29717431893189 -0.71940567906791
 6 -6.95684771297130 -3.35093097739774 -0.20827293259326
 6 -6.49018755835584 -2.07651945104510 -0.02379022492249
 6 -9.06563054815481 -4.44196759675968 -1.02268477527753
 6 -5.85494161566157 -4.32410763766377  0.01423409300930
 8 -5.75642749884989 -5.51358786748675  0.02249917031703
 6 -4.54522012661266 -3.38232534523452  0.35923117271727
 6 -3.94319673447345 -3.84503819901990  1.60266215151515
 8 -4.23742635433543 -3.48375933183318  2.71628209220922
 8 -3.07176969266927 -4.82396267756776  1.49129487248725
 6 -2.78482201250125 -5.68916982228223  2.61270774107411
 6  2.70279032243224 -0.96533522412241 -1.20486469176918
 6  3.96221033083308 -0.67565218861886 -0.47099371257126
 6  5.03251555175517 -0.05449640204020 -0.96838224282428
 6  4.98661917211721  0.75812965466547 -2.30182272127213
 6  6.24796850895090  0.21830445874587 -0.23070453355336
 6  7.50143437063706 -0.30890022312231 -0.84270162356236
 6  8.76343982098210 -0.22315752265227 -0.01280616051605
 6  9.95646750145015 -0.95676015861586 -0.46359733963396
 6  9.93854764816482 -2.47779294509451 -0.54176829152915
 6  11.20107078167817 -0.35107477807781  0.16636416841684
 6  12.65628421302130 -0.82671114951495 -0.46153403060306
 6  13.83056946414641 -0.04581728482848  0.24333069566957
 6  15.17679950105010 -0.18369140494049 -0.24941877767777
 6  15.74784211181118 -1.62018618051805 -0.07040677617762
 6  16.21978457565757  0.84368527972797  0.28933219761976
 6  17.69810664936493  0.75075080898090 -0.30822533033303
 6  18.51959181018102  1.91558017701770  0.33402209510951
 6  20.05080497639764  1.89132475777578 -0.13509074867487
 6  20.21471240074008  2.23162259345935 -1.55347175617562
 6  20.92030249584959  2.77276101220122  0.75792219291929
 1 -3.84862302990299  3.41159754405441  1.55001724002400
 1 -9.91170875587559  4.28783822032203 -0.32199087298730
 1 -10.55565390529053 -2.24582059205921 -1.16877677157716
 1 -2.93951000250025 -1.36818718281828  2.01548334303430
 1 -2.23908447604760  1.33660361146115  1.46329582798280
 1 -1.94630214611461  0.49608703040304  3.71973869916992
 1 -3.14150745104511  1.78983362696270  3.68199730093009
 1 -3.71824240364036  0.35865656795680  3.80953979967997
 1 -2.23323277717772 -1.73724760246025 -0.56900375667567
 1 -2.16045198379838 -0.24754728042804 -0.77362602330233
 1 -0.33597792119212 -0.12471834593459  1.06613264376438
 1 -0.45175818871887 -1.91970115011501  1.17076419541954
 1 -4.00796545394539  5.63387152475247  1.21225436343634
 1 -5.61206242504250  6.94325944464446  1.32024762176218
 1 -4.82754453145315  5.81737158655866  2.60363142374237
 1 -7.70962106100610  6.96528356205620  1.28642994929493
 1 -9.35302069486949  6.10034802030203 -1.25651504750475
 1 -9.34472875207521  7.75103038833883 -0.32482218631863
 1 -12.34197874527453  3.49066956545655 -0.08641103970397
 1 -11.51746066836684  4.00409537423742 -1.57132434993499
 1 -13.08915631563156  2.83847946614661 -1.78784183108311
 1 -12.76032085798580 -1.25308543484348 -1.05967054085409
 1 -13.64420516281628  0.22985264666467 -1.26942061936194
 1 -13.09190370537054  0.82695971107111 -3.54529337273727
 1 -11.93615982368237 -0.62435183158316 -3.44317511421142
 1 -13.69055712891289 -0.81878923702370 -3.43105696439644
 1 -9.95599314611461 -4.63596568846885 -0.45196100000000
 1 -9.49012092229223 -4.57377439093909 -2.11445196579658
 1 -8.58913061856186 -5.49772055195520 -0.79089374287429
 1 -3.89653538083808 -3.74390174147415 -0.24896795659566
 1 -2.06947381538154 -6.61466807050705  2.32495819981998
 1 -2.25773234493449 -4.89031877087709  3.27374182448245
 1 -3.69640069546955 -5.99785678567857  3.11187270747075
 1  2.70757254905491 -2.09811655275528 -1.63010014331433
 1  2.36668851175118 -0.24109554755476 -1.96362398169817
 1  3.99883131903190 -1.11576964746475  0.59448849324933
 1  4.91566683118312  1.96180387818782 -1.97182977037704
 1  6.03004996879688  0.51003695889589 -2.85923899099910
 1  4.06159264446445  0.60504331023102 -2.82908826572657
 1  6.34513461056106  1.36118926282628 -0.14006920732073
 1  6.05063288908891 -0.43811939723972  0.61435112921292
 1  7.31324197729773 -1.34336838223822 -1.07045189128913
 1  7.77154690579058  0.05835133973397 -1.83710256795680
 1  8.96630107170717  0.78636648814882  0.34715597409741
 1  8.44537726762676 -0.62467955495550  0.91203405630563
 1  10.14448131343134 -0.50559036073607 -1.66637736063606
 1  9.20063725132513 -2.94423308610861 -1.17663688918892
 1  10.99124598559856 -2.88227990439044 -0.87615336093609
 1  9.94609305110511 -2.72052392989299  0.40665714421442
 1  11.28848303840384  0.69734735853585  0.06831029362936
 1  11.15010257965797 -0.77309579507951  1.34674519621962
 1  12.78182469046905 -1.89836371537154 -0.32552599539954
 1  12.53555387198720 -0.67161443434344 -1.54353767226723
 1  13.54128516401640  1.15591598739874  0.39138431253125
 1  13.71017585308531 -0.68429138313831  1.12714229042904
 1  15.10114161156116 -0.03870067026703 -1.43708035783578
 1  14.91344673967397 -2.36691497529753 -0.33864788528853
 1  16.57204394069407 -1.98727456695670 -0.39645103770377
 1  15.57195991359136 -1.94728434703470  0.97751045234523
 1  16.08275546714671  2.02842593129313  0.24359820342034
 1  16.15685200790079  0.70371418051805  1.52793479027903
 1  18.13777985528553 -0.23957243584358 -0.11081576627663
 1  17.59040176557656  0.91565452855285 -1.54901220582058
 1  18.19281098699870  2.85479420712071  0.11281777677768
 1  18.37378039223923  1.94344318111811  1.40322157775778
 1  20.30808903870387  0.67541827552755  0.31709464656466
 1  20.01760445764577  3.32542467456746 -1.44020899509951
 1  21.36779529672967  2.09291489528953 -1.84775009840984
 1  19.96642487828783  1.60255029162916 -2.16021120232023
 1  21.00212522562256  2.70531008130813  1.85703963176318
 1  21.97504134583458  2.75018313491349  0.30143204300430
 1  20.48456611931193  3.89944961546155  0.47922052645264
 1 -7.25288907140714  1.77041131313131  0.56544980178018
 1 -7.55516688328833 -0.24161903750375 -0.27901122132213

