%nproc=4
%Mem=2GB
# td=(NStates=1) B3LYP/SVP 

TD

0 1
 6 -5.15896874737474 -1.94787459345935  0.41037966306631
 6 -4.74755091329133  2.77637786678668  1.38033470957096
 6 -9.34812405600560  3.36265246154615 -0.18371298749875
 6 -9.95684753585359 -1.43859545414541 -0.70461660706071
 7 -5.13036978497850  0.34644110521052  0.78577603560356
 6 -4.45051314891489 -0.72886186978698  0.70954704030403
 6 -3.04453620732073 -0.59221970547055  1.18622187158716
 6 -3.06245039743974  0.83346846444644  1.78789329472947
 6 -4.38274323242324  1.42353939933993  1.29521143254325
 6 -2.91699819771977  0.84935323632363  3.35830568856886
 6 -2.00528587138714 -0.63779879397940 -0.01983537583758
 6 -0.50455884398440 -0.75483433823382  0.38866663176318
 6  0.40187469336934 -0.97865478277828 -0.79316517371737
 8  0.07243697959796 -1.29263895379538 -1.86759921452145
 8  1.66313138833883 -0.69918633713371 -0.41196618861886
 7 -7.04612779377938  2.77052179407941  0.43369396339634
 6 -5.93532771377138  3.39417615011501  0.93877800320032
 6 -6.21900317281728  4.85404348814882  0.97236878857886
 6 -7.44809787428743  5.01013233623362  0.42356758685869
 6 -8.08549399979998  3.64303290219022  0.12244358065807
 6 -5.29204836123612  5.86292007440744  1.43646965086509
 6 -8.15594218241824  6.29839955765576  0.13443849814982
 6 -8.99225674847485  6.56550584118412 -0.76179479577958
 7 -9.21488488778878  0.89566804140414 -0.24945192059206
 6 -9.91779355675568  2.00781408310831 -0.40512932363236
 6 -11.34263050105010  1.79601324082408 -0.79463353465347
 6 -11.36937237773777  0.47683172457246 -0.96508657025703
 6 -10.11867857625763 -0.06995404480448 -0.56234971537154
 6 -12.38032222942294  2.94341691079108 -0.99137356645665
 6 -12.66228632603260 -0.32073117151715 -1.30762299729973
 6 -12.78613308290829 -0.39172381878188 -2.80880806520652
 7 -7.56254938063806 -1.27384169866987 -0.19361570667067
 6 -8.61762774827483 -2.04335094929493 -0.51401833023302
 6 -8.14484809200920 -3.44350895239524 -0.56725046354635
 6 -6.85348737693769 -3.40308619291929 -0.18404050935093
 6 -6.50389892949295 -2.11676347544754  0.12191434553455
 6 -9.02263624872487 -4.63355675567557 -1.06522902970297
 6 -5.76203232473247 -4.29988521542154  0.10171284088409
 8 -5.70336219231923 -5.47195370407041 -0.01975505510551
 6 -4.49710531513151 -3.28540565326533  0.35167041664166
 6 -3.73487590239024 -3.72028572377238  1.64317620292029
 8 -3.92709532123212 -3.18449940584058  2.71423188718872
 8 -3.09642215791579 -4.87253753505351  1.34014975797580
 6 -2.36827035733573 -5.54252515781578  2.45376184648465
 6  2.64393443684368 -0.97970666126613 -1.47170137543754
 6  3.98236234603460 -0.65166979037904 -0.69892650585059
 6  4.98335063526353  0.10805985358536 -1.09025443004300
 6  4.96030654085409  0.77208104980498 -2.41620415941594
 6  6.24924863696370  0.25310793909391 -0.28589005210521
 6  7.52537676487649 -0.32845217831783 -1.08344569796980
 6  8.74635811281128 -0.25335054195420 -0.29053393329333
 6  10.09239109380938 -0.70874535713571 -0.88453943384338
 6  10.14208800220022 -2.26613177897790 -0.91887600230023
 6  11.26223689828983 -0.29367903850385  0.01735926792679
 6  12.66415500010001 -0.59864834323432 -0.54986286348635
 6  13.81998840604060 -0.05825852895290  0.25793215581558
 6  15.21813363446345 -0.32029506530653 -0.36790062586259
 6  15.44981230883088 -1.79763392529253 -0.39439917541754
 6  16.09826242344235  0.48472938413841  0.54232749714971
 6  17.61283812251225  0.59922565646565 -0.04257876567657
 6  18.58568841984198  1.54005262426243  0.80323901680168
 6  19.99736963286329  1.64555018031803  0.27773053345335
 6  20.25064599409941  2.25259469066907 -1.13561997099710
 6  20.93233369896990  2.46619035513551  1.32061846254625
 1 -3.91545971357136  3.38387477177718  1.77272951125112
 1 -10.05027261226123  4.28655809230923 -0.17007568146815
 1 -10.70403874377438 -2.36078208820882 -0.84351424532453
 1 -2.59357540904090 -1.29199956405641  1.86195799049905
 1 -2.24623519111911  1.51184113521352  1.37364686308631
 1 -1.97461497739774  0.46970439213921  3.62076880218022
 1 -3.13059635993599  1.89721436503650  3.84760386158616
 1 -3.68111869126913  0.27751845414541  3.85903474917492
 1 -2.17241669556956 -1.35608948664866 -0.68271512781278
 1 -2.18188412701270  0.38184565886589 -0.64531319201920
 1 -0.16435075847585  0.24946907280728  0.98338436893689
 1 -0.55304831773177 -1.63129230923092  1.11132825182518
 1 -4.36616127352735  5.74695283288329  0.98313145114511
 1 -5.67909912871287  6.79845496419642  1.26960255725573
 1 -5.14440621762176  5.91534138353835  2.43172423302330
 1 -7.87372747164717  7.18471550525052  0.73607491379138
 1 -9.41447684048405  5.97649563506351 -1.48598799479948
 1 -9.45303958315832  7.61466675197520 -0.77596730083008
 1 -12.16325087248725  3.56874737323732 -0.11645404400440
 1 -12.00040896319632  3.69221418611861 -1.79521673917392
 1 -13.39277667766777  2.69652527072707 -1.12863591049105
 1 -12.66222104800480 -1.33532365866587 -0.87200177397740
 1 -13.34220496279628  0.47853751515152 -1.02355603290329
 1 -12.64972948794879  0.61289830493049 -3.18733757715772
 1 -12.01106731443144 -1.07589698609861 -3.04894569126913
 1 -13.70236831003100 -0.87519487758776 -3.14183804250425
 1 -9.95387293409341 -4.67662975487549 -0.41797760166017
 1 -9.39913182338234 -4.50149716321632 -2.08346886748675
 1 -8.68783048854886 -5.83125390529053 -0.93792844634463
 1 -3.90752647994799 -3.46810416171617 -0.47606066586659
 1 -1.88700556855686 -6.37755435913591  1.68035373937394
 1 -1.61979855155516 -4.77370710971097  2.83720817111711
 1 -3.11688274367437 -6.23406040604060  2.99873139333933
 1  2.58851064286429 -2.11217795889589 -1.72084921822182
 1  2.80636247914792 -0.25202664066407 -2.42077969726973
 1  4.11424286018602 -1.33466153665367  0.17531657605761
 1  5.47994325882588  1.80863856165617 -2.46550913831383
 1  5.60276724052405  0.11680763596360 -2.96965003210321
 1  4.15856234143414  0.67204000990099 -3.14895025192519
 1  6.43766386348635  1.39296244014401 -0.01816701710171
 1  6.01933975977598 -0.44053963926393  0.57745743984398
 1  7.13735438853885 -1.27162120752075 -1.45110995709571
 1  7.72407215831583  0.13962946754675 -2.02337119481948
 1  8.84980942254225  0.89235708720872 -0.08086682818282
 1  8.54211694159416 -0.86175326232623  0.67288014091409
 1  10.36123298859886 -0.14363416511651 -1.79407012991299
 1  9.19866705430543 -2.68647731053105 -1.46615584108411
 1  10.92020888188819 -2.58085976237624 -1.50015576117612
 1  10.17171561336134 -2.85578745624562  0.01386786528653
 1  11.23912810291029  0.94818244204420  0.17094055665567
 1  11.12203977337734 -0.85778426392639  0.96037655935594
 1  13.00209671767177 -1.76696057505751 -0.73587703050305
 1  12.81672198879888 -0.06082335523552 -1.57419073757376
 1  13.67256829232923  1.05203559935994  0.28606378047805
 1  13.83210804630463 -0.67043999799980  1.17724730093009
 1  15.21877337473747  0.18573177297730 -1.32082873267327
 1  14.47864325932593 -2.44006229002900 -0.71786580708071
 1  16.40285702200220 -2.07593343284328 -0.87260865346535
 1  15.62276499409941 -1.90106972557256  0.73572627392739
 1  15.69730692229223  1.44588767746775  0.53551739533953
 1  16.32459878257826  0.21331514061406  1.55680767756776
 1  18.03708978627863 -0.42369084768477  0.05443075837584
 1  17.70517324272427  1.02245520862086 -1.01992929752975
 1  18.23188489438944  2.74124285198520  0.85098159315932
 1  18.52752576677668  1.17051588838884  1.86288754435443
 1  20.34288251805181  0.49493022672267  0.24386732383238
 1  19.92371506870687  3.30457258935894 -1.19100407460746
 1  21.39312782998300  2.16009161296130 -1.23425874927493
 1  19.78324656045605  1.67528756535654 -1.83970915211521
 1  20.67614262736274  2.00107965826583  2.30764469226923
 1  21.95391923362336  2.43124124072407  1.09104100390039
 1  20.61244890759076  3.53236290679068  1.31918452285229
 1 -7.09110289278928  1.69888416041604  0.51695495229523
 1 -7.51238260486049 -0.29938481408141  0.14840151995200

