%nproc=4
%Mem=2GB
# td=(NStates=1) B3LYP/SVP 

TD

0 1
 6 -5.19243209370937 -1.97498730473047  0.42201082618262
 6 -4.66157231543154  2.79010923992399  1.29477615371537
 6 -9.38681792539254  3.31871806810681 -0.10109472567257
 6 -9.86603845494549 -1.33537513211321 -0.96511265666567
 7 -5.22827957595760  0.42400886198620  0.69352681068107
 6 -4.53764186178618 -0.72795177877788  0.75427151275128
 6 -3.09133088678868 -0.58008849234924  1.12963621302130
 6 -3.04083823622362  0.85779089668967  1.75766027142714
 6 -4.38853381148115  1.40345739113911  1.26149806120612
 6 -2.65186168406841  0.81432973397340  3.26020587858786
 6 -1.98636397919792 -0.74320933503350  0.10385699339934
 6 -0.56510489858986 -0.89213806860686  0.54369213431343
 6  0.41623612951295 -1.07405432273227 -0.60540639783978
 8  0.13474321022102 -1.39822951285129 -1.69903235783578
 8  1.58877395259526 -0.83293971247125 -0.22605759775978
 7 -7.04681786278628  2.78590333223322  0.46118671267127
 6 -5.83689787078708  3.39266599909991  0.86740086548655
 6 -6.16790806330633  4.77735581938194  0.92371392309231
 6 -7.57407047154715  5.00971229422942  0.54154938503850
 6 -8.14533998439844  3.71284988388839  0.28020935723572
 6 -5.25876503290329  5.91528531093109  1.36654265816582
 6 -8.21476806500650  6.32472218991899  0.34991004530453
 6 -9.13242076487649  6.59187847844784 -0.54356297259726
 7 -9.19088248754876  0.92516099069907 -0.34098107350735
 6 -9.89163094049405  2.07714101580158 -0.42297110781078
 6 -11.31667790579058  1.88763240274027 -0.81276534783478
 6 -11.41296673717372  0.55865990739074 -0.99187924952495
 6 -10.13389009740974 -0.00166721612161 -0.75874935533553
 6 -12.26883108030803  3.01445401450145 -0.93523795289529
 6 -12.65928602600260 -0.26251534993499 -1.49056129112911
 6 -12.67929239883988 -0.38059270567057 -3.13265044944494
 7 -7.61144427012701 -1.29776409090909 -0.11187753285329
 6 -8.67584356985699 -2.01702831703170 -0.50799772817282
 6 -8.18418202540254 -3.40768537003700 -0.64593833233323
 6 -6.91256328452845 -3.38108399269927 -0.25676778207821
 6 -6.52521106070607 -2.03489528862886  0.00595274937494
 6 -9.02414639973997 -4.54219761976198 -1.21510401720172
 6 -5.71378750025002 -4.27289251615162 -0.13143047344734
 8 -5.67249910601060 -5.54526103480348 -0.11034411401140
 6 -4.59002460706071 -3.35766287898790  0.29266451605161
 6 -3.99141155595560 -3.82615631083108  1.63249513481348
 8 -4.13470608230823 -3.31166212211221  2.76866733073307
 8 -3.17137965366537 -4.90739102040204  1.51972771577158
 6 -2.74748827912791 -5.45660656595660  2.69921639193919
 6  2.71667171057106 -1.12444113471347 -1.19856406170617
 6  4.10166427622762 -0.71880650405041 -0.45940255345535
 6  5.00900320052005 -0.01897284968497 -1.06282168676868
 6  4.95210572077208  0.68778261996200 -2.46253879287929
 6  6.35142885498550  0.16633926222622 -0.30897236033603
 6  7.57913214041404 -0.47198653175318 -0.94243159655966
 6  8.75587906490649 -0.32457766466647 -0.06291117101710
 6  10.04580643534353 -0.81234571717172 -0.67181816171617
 6  10.13758755215522 -2.30309547534754 -1.01059517421742
 6  11.31149182378238 -0.42708237883788  0.15667319931993
 6  12.65609419401940 -0.75612409080908 -0.43233111031103
 6  13.75389179637964  0.21402869976998  0.18441480408041
 6  15.21484330543054 -0.15671870767077 -0.30722455825583
 6  15.60920824842484 -1.62026618851885 -0.12190192569257
 6  16.26562916011601  0.87940885208521  0.42235549994999
 6  17.61370820952095  0.95241097499750 -0.13229773757376
 6  18.60671052205220  1.70029864886489  0.61413010591059
 6  20.09037893379338  1.62109773507351 -0.01850909050905
 6  20.16961789128913  2.36593602480248 -1.41351776077608
 6  21.16240670627063  2.14640837693769  1.04880128082808
 1 -3.92723089068907  3.56238262256226  1.44791703000300
 1 -10.22744032903290  4.28040747724773 -0.27098577247725
 1 -10.62390072997300 -2.09290530053005 -1.45221511541154
 1 -2.86422247374737 -1.63690405450545  1.74132592729273
 1 -2.31677224482448  1.40623057415742  1.27934743314332
 1 -1.62919043494349  0.33603102480248  3.30436716201620
 1 -3.01224452475248  1.78772341594159  3.70498960016002
 1 -3.38164874427443  0.24550525282528  3.70602944864486
 1 -1.99320877477748 -1.73722760046005 -0.58627548384838
 1 -2.06982292089209  0.08396587088709 -0.82775143584358
 1 -0.10253457685769 -0.01073694779478  1.18387441794179
 1 -0.60405341824182 -1.82836201620162  1.17556467546755
 1 -4.50896555395540  6.17869600720072  0.32901603960396
 1 -5.73616483528353  6.88292341104110  1.41002659965997
 1 -4.53564534153415  5.44381423082308  2.26587764836484
 1 -7.99291939083908  7.06478351205120  1.04538584488449
 1 -9.54731012381238  6.12979096459646 -1.33866326232623
 1 -9.62672695189519  7.55772105740574 -0.47097680178018
 1 -12.21062560996100  3.86052655115512 -0.10649304790479
 1 -11.96611553385339  3.62452741744174 -1.92100931843184
 1 -13.31422882288229  2.73921954015402 -0.91677472437244
 1 -12.72809763566357 -1.18176830313031 -1.10648522232223
 1 -13.65214595689569  0.20347000840084 -1.08752242954295
 1 -12.39655417041704  0.77311432653265 -3.39336818021802
 1 -11.83515972367237 -0.90284968136814 -3.40195099179918
 1 -13.70219829302930 -0.81492885098510 -3.43862772147215
 1 -9.79215676247625 -4.77075916781678 -0.18178398229823
 1 -9.71656356655665 -4.36525353885389 -2.19370989158916
 1 -8.25589729522952 -5.54153493339334 -1.63608826232623
 1 -3.73964969226923 -3.59245659695970 -0.39623268306831
 1 -2.08332520052005 -6.27953455715572  2.32257796179618
 1 -2.23653022472247 -4.61334107310731  3.52002645294529
 1 -3.65326638203820 -5.97196419641964  3.26630815101510
 1  2.78200999279928 -2.27182392349235 -1.40728786208621
 1  2.57793963686369 -0.52564400240024 -2.14861248054806
 1  4.29232066796680 -1.06977504800480  0.70198924332433
 1  5.55039030353035  1.55283298109811 -2.34972756015602
 1  5.18286525032503  0.00531648684869 -3.24048711581158
 1  3.94205069026903  0.84175698159816 -2.74269962686269
 1  6.52981307840784  1.23228637253725 -0.35044024442444
 1  6.39026685248525 -0.00621620692069  0.67966766086609
 1  7.53904455755576 -1.54941898729873 -1.04391923802380
 1  7.85693544464447 -0.03374787018702 -1.84421327902790
 1  8.92585702730273  0.79711756325633  0.25751701020102
 1  8.84522725262526 -0.84808189518952  0.83462631553155
 1  10.15603246854685 -0.08311811351135 -1.65443616651665
 1  9.51633882148215 -2.38993765656566 -1.90906013151315
 1  10.95702256325633 -2.58543021942194 -1.63752949854985
 1  9.95229367116712 -2.91232310981098 -0.18570209170917
 1  11.23023721382138  0.57820544434443  0.08341180378038
 1  11.41303887328733 -0.80600908640864  1.31761228292829
 1  12.99162567056706 -1.78641252025203 -0.40004344714471
 1  12.63602391899190 -0.51175844874488 -1.57620093859386
 1  13.38225926142614  1.41395179097910  0.12079725382538
 1  13.80062489798980 -0.08751170517052  1.22319189538954
 1  15.34665616301630  0.16435963576358 -1.39131578137814
 1  14.94842023702370 -2.49036732053205 -0.67245126562656
 1  16.76787352365237 -1.78551439093909 -0.58584997759776
 1  15.74926764436444 -1.89093871247125  0.94997769906991
 1  15.82794998659866  1.93519660836084  0.38345218881888
 1  16.36015233793379  0.52022583168317  1.48955095189519
 1  17.96640271757176 -0.15850432903290 -0.16414109880988
 1  17.49304202960296  1.14577754085409 -1.05517282188219
 1  18.20393209910991  2.65963469116912  0.75639213421342
 1  18.87637065126513  1.30050888768877  1.49703095869587
 1  20.28975720552056  0.58933966766677 -0.04937200010001
 1  19.88364106130613  3.40968310041004 -1.21622659685969
 1  21.14539305650565  2.19071467526753 -1.78413373677368
 1  19.35298353415342  1.90843087968797 -2.11673685488549
 1  21.00868588168817  1.67995754605461  2.08087201500150
 1  22.19481332303230  2.22492060866087  0.73247514731473
 1  20.98589625232523  3.28774844534453  1.26966957135714
 1 -7.13676745924592  1.78803307530753  0.70238349514952
 1 -7.54668603520352 -0.31078595419542 -0.13943726392639

