%nproc=4
%Mem=2GB
# td=(NStates=1) B3LYP/SVP 

TD

0 1
 6 -5.18476132663266 -1.94074388038804  0.59143776887689
 6 -4.79110526872687  2.63640386938694  1.51123779987999
 6 -9.27063630723072  3.28354455075508 -0.22467708390839
 6 -9.79587143824382 -1.44366596119612 -0.95746189158916
 7 -5.27499424742474  0.45191165226523  0.91569902790279
 6 -4.46110420802080 -0.68556754035404  0.79645573117312
 6 -3.12154390809081 -0.52242272577258  1.18418166756676
 6 -3.10802495489549  0.89559467706771  1.87690219561956
 6 -4.43010796889689  1.33578062346235  1.27292920432043
 6 -3.17685418331833  0.85791409240924  3.41418127612761
 6 -2.14035937873787 -0.76192120622062 -0.00384377667767
 6 -0.62446083418342 -1.05302415721572  0.50810857595760
 6  0.43711821772177 -1.06242315961596 -0.56129198639864
 8  0.24860459635964 -1.44188387828783 -1.76841929652965
 8  1.64319939513951 -0.85425184368437 -0.12944793679368
 7 -7.08048122912291  2.74648939083908  0.43898449244924
 6 -5.96447062806281  3.37680441294129  1.05292941834183
 6 -6.16800807330733  4.83601168496850  1.10601215291529
 6 -7.45495856035604  5.01766308930893  0.55460069016902
 6 -8.04291974237424  3.60690928982898  0.21843317961796
 6 -5.23539269566957  5.85665944834483  1.51801780568057
 6 -8.11534812301230  6.29524924262426  0.41776683098310
 6 -9.13597111991199  6.70416970757076 -0.35697431373137
 7 -9.09954335363536  0.91398987358736 -0.54006098149815
 6 -9.81455323272327  2.06379968166817 -0.43642245294529
 6 -11.14502074007401  1.97977161666167 -0.99688375967597
 6 -11.31259670017002  0.63050709210921 -1.16040610221022
 6 -10.01900860926093 -0.06805385478548 -0.97092057245725
 6 -12.21708590579058  2.97507007610761 -1.17167159625963
 6 -12.45129522692269 -0.13216231463146 -1.84336657165717
 6 -12.41899636923693 -0.42467711411141 -3.37654483888389
 7 -7.53993711941194 -1.25034934943494 -0.03340968606861
 6 -8.60212619811981 -1.97855446964696 -0.64738166656666
 6 -8.17267087428743 -3.32044664616462 -0.73998773727373
 6 -6.98833086128613 -3.43598948324833 -0.15913801910191
 6 -6.51879041864186 -2.13245504460446  0.24032618671867
 6 -9.02362634773477 -4.44893829382938 -1.27476998379838
 6 -5.72812893439344 -4.30796602350235  0.05618828842884
 8 -5.70314217031703 -5.50194670337034 -0.10921400100010
 6 -4.63579918451845 -3.37056416911691  0.47967321692169
 6 -3.97855026982698 -3.85462915811581  1.75141702700270
 8 -4.16028864056406 -3.59301025692569  2.83769423342334
 8 -3.15868838453845 -4.93130341164116  1.43754949794979
 6 -2.59414294459446 -5.56513741904190  2.61081755205521
 6  2.75028507190719 -1.15464415501550 -1.08669287458746
 6  4.05860997079708 -0.61102572597260 -0.50611722492249
 6  5.00972327252725  0.15364441204120 -1.19025443004300
 6  4.92845335553555  0.70862470417042 -2.44245678467847
 6  6.26496020812081  0.51759438773877 -0.47699916301630
 6  7.47353158035804 -0.30010934403440 -0.96805415881588
 6  8.76750022702270 -0.03222842974297 -0.20958583848385
 6  10.05883773847385 -0.79977446004600 -0.61863284318432
 6  9.95477927132713 -2.44929009480948 -0.37646176087609
 6  11.32145281988199 -0.17625729632963  0.15660319231923
 6  12.60114869946995 -0.54757323572357 -0.50586846404640
 6  13.73229963716372  0.01326862376238  0.37468383098310
 6  15.23189501060106 -0.13857689348935 -0.19729356515652
 6  15.61010833843384 -1.66927108900890 -0.26881661716172
 6  16.27377997519752  0.69200011121112  0.49802306670667
 6  17.57840467916792  0.74114984888489 -0.16037054485449
 6  18.66712656365636  1.59784840384038  0.48130682358236
 6  20.07137703360336  1.62367799309931 -0.14513175277528
 6  20.20042097159716  2.06463589478948 -1.64268067706771
 6  21.11015148074808  2.37565130123012  0.75456185688569
 1 -3.92912107970797  3.25414179847985  1.88797103540354
 1 -10.05713329832983  4.11004044054405 -0.16769544344434
 1 -10.61449978987899 -2.07604361436144 -1.24689458335834
 1 -2.99473552505251 -1.25322568666867  1.86865866056606
 1 -2.35720628822882  1.62794274537454  1.38749824822482
 1 -2.42359987588759  0.19038646034603  3.86590331563156
 1 -2.68350165046505  2.02373701730173  3.86735583678368
 1 -4.30020059945995  0.67728843114311  3.80581942764276
 1 -2.45779523342334 -1.56613049074907 -0.79422627892789
 1 -2.11438737733773  0.16872434673467 -0.48546720742074
 1 -0.36814113751375 -0.14235010911091  1.02427845834583
 1 -0.52005501840184 -1.71813099309931  1.34643176217622
 1 -4.29455411281128  5.77028516611661  1.10643378137814
 1 -5.46881810061006  6.92266738543854  1.39633523052305
 1 -5.25680745774577  5.81030087948795  2.68220928152815
 1 -7.76495659455946  7.12366940064006  1.11994330063006
 1 -9.62472786558656  5.81748973447345 -1.04304370037004
 1 -9.34848912811281  7.76877216251625 -0.51140084418442
 1 -12.33827837523752  3.52473297179718 -0.11347374597460
 1 -12.16558548084809  3.87691265596560 -1.90066728422842
 1 -13.01001840184018  2.66737235543554 -1.54156720362036
 1 -12.18212303820382 -1.08843897019702 -1.30862543634363
 1 -13.44090483278328  0.15577523892389 -1.47843152045205
 1 -12.60375489048905  0.49970698579858 -3.84818366176618
 1 -11.36785299299930 -1.06450584698470 -3.66704750145015
 1 -13.34965303850385 -1.12081944004400 -3.59923378207821
 1 -10.25691323812381 -4.46243833573357 -0.85868167206721
 1 -9.42805471567157 -4.42760977447745 -2.23503402400240
 1 -8.58184989048905 -5.40164094399440 -1.21413606710671
 1 -3.87824355165516 -3.46481383268327 -0.30154321412141
 1 -1.65899276727673 -6.25623222692269  2.19014471847185
 1 -2.20064663636364 -5.06937667666767  3.48163261356136
 1 -3.41954300970097 -6.18710571057106  2.97433895409541
 1  2.80104189598960 -2.37930467156716 -1.28147528082808
 1  2.31557340024002 -0.71383282128213 -2.02818043734373
 1  4.05644708060806 -1.21540961146115  0.49054809920992
 1  4.93643890839084  1.94401209900990 -2.22245483288329
 1  5.83732069586959  0.19629558475848 -2.96705977307731
 1  3.92574906010601  0.64928773467347 -3.09012436933693
 1  6.45536563366337  1.61422456635664 -0.62128732913291
 1  6.09903772957296  0.46124053875388  0.71804149824983
 1  7.34727538063806 -1.36676072147215 -0.79099394549455
 1  7.67849760086009  0.03196870147015 -2.02634149184918
 1  9.22759720132013  1.11345919741974 -0.41956069756976
 1  8.39105183508351 -0.37358444544454  0.91421427432743
 1  10.17841470677068 -0.43281308300830 -1.73870459335934
 1  9.17971515911591 -2.92443110591059 -0.94141336683668
 1  10.76626348734874 -3.06932860926093 -0.95755150075008
 1  9.91723016481648 -2.58111998949895  0.79765624412441
 1  11.12496668676868  0.94796242004200  0.16874033663366
 1  11.26808437783778 -0.65190367586759  1.21688220992099
 1  12.56894340234023 -1.66256013501350 -0.79447289008901
 1  12.65658597519752 -0.09586685958596 -1.52617593609361
 1  13.55835687118712  1.21490188598860  0.42224739883988
 1  13.68737357285729 -0.16515946994699  1.52301187738774
 1  15.13132462986299  0.14889808960896 -1.27379402920292
 1  14.90373576857686 -2.08426671047105 -1.07394141464146
 1  16.41117785408541 -1.73795963546355 -0.83492488508851
 1  15.63250596819682 -2.21543116171617  0.79369207050705
 1  15.91425861746175  1.80986407510751  0.52712655625563
 1  16.02070839353935  0.43898770787079  1.52309430623062
 1  18.16991306860686 -0.26279475807581 -0.42479716441644
 1  17.36348907430743  0.95453841694169 -1.34873217781778
 1  18.20782248814881  2.77330605830583  0.37164365936594
 1  18.72145515971597  1.32690152695269  1.51234248984899
 1  20.51153938373838  0.49040977467747 -0.08127519041904
 1  19.80340303750375  3.02681481358136 -1.77075204940494
 1  21.09881839903990  1.88025362916292 -2.06640196359636
 1  19.45882411821182  1.47220725732573 -2.32934811601160
 1  21.23655866896690  1.98134768506851  1.79884381218122
 1  22.01778562026202  2.61523964056406  0.27561946174618
 1  20.83963162586259  3.48644831533153  0.88949155355536
 1 -7.08362214471447  1.82019629162916  0.30781403820382
 1 -7.64797616421642 -0.17035191079108  0.07427410721072

