%nproc=4
%Mem=2GB
# td=(NStates=1) B3LYP/SVP 

TD

0 1
 6 -5.11746459695970 -2.06486629262926  0.50656928202820
 6 -4.66629278747875  2.68445867486749  1.49513618971897
 6 -9.15517476107611  3.47505370167017 -0.27709232543254
 6 -9.74072592369237 -1.33069466406641 -1.14643078847885
 7 -5.11056780478048  0.34391085218522  0.97799525752575
 6 -4.47967606520652 -0.84029301290129  0.99789587518752
 6 -2.97555930963096 -0.76568705220522  1.35646889628963
 6 -2.96471062346235  0.76975209280928  1.91272577797780
 6 -4.28257321542154  1.38193523892389  1.46164807620762
 6 -2.94661115901590  0.78834713571357  3.41662152015202
 6 -2.01949729252925 -0.99832484658466  0.21376798449845
 6 -0.52872126022602 -1.06480533533353  0.68292605770577
 6  0.37626213211321 -1.34827174447445 -0.46515237243724
 8  0.13647338323832 -1.99730942084208 -1.45285774037404
 8  1.65094016921692 -0.85420183868387 -0.22858785078508
 7 -6.98625180618062  2.74483922582258  0.51690228422842
 6 -5.79560374137414  3.33281001350135  1.17490161556156
 6 -6.05503677617762  4.72016009980998  1.05841739343934
 6 -7.25375844034403  5.02347367036704  0.46656188628863
 6 -7.89476492689269  3.71007960686069  0.15410674697470
 6 -5.11516067246725  5.80517429982998  1.50756676057606
 6 -7.90090667886789  6.31134085178518  0.29571462576258
 6 -8.80326784958496  6.67447673827383 -0.58891750805081
 7 -9.19724312361236  0.98716719131913 -0.48895587098710
 6 -9.78935071247125  2.16547984968497 -0.60192900360036
 6 -11.23371960996100  2.03000664016402 -1.01878594989499
 6 -11.44624006450645  0.68268230963096 -1.20246030763076
 6 -10.12605931433143  0.04827777837784 -0.95794927532753
 6 -12.14779897709771  3.19292186128613 -1.17253168226823
 6 -12.63160325772577  0.02464336593659 -1.79161139613961
 6 -12.43756822642264 -0.09328397479748 -3.32733991839184
 7 -7.48558168386839 -1.27655196969697 -0.27060340544054
 6 -8.53073905940594 -1.95502211641164 -0.66457338573857
 6 -8.21065467266727 -3.37502210371037 -0.77404114261426
 6 -6.88558058625863 -3.45521140544054 -0.25547765306531
 6 -6.46860540014001 -2.08256005510551  0.04635678977898
 6 -9.12897688278828 -4.47263066306631 -1.10719322612261
 6 -5.82900902240224 -4.29519474637464  0.11711438103810
 8 -5.92065392149215 -5.50178668736874 -0.13574665426543
 6 -4.64716032063206 -3.44669178187819  0.55534078367837
 6 -4.06592900770077 -3.96911060626063  1.93894577987799
 8 -4.28534114581458 -3.51575253115312  2.98012847684768
 8 -3.22802531823182 -4.98578886018602  1.61617736073607
 6 -2.67420095039504 -5.62977388268827  2.71668813911391
 6  2.69533957735774 -1.17756644724472 -1.19859406470647
 6  3.98568267806781 -0.78622324572457 -0.62921953515352
 6  4.87028932913291  0.01543059065907 -1.17926333093309
 6  4.86257676787679  0.60932477417742 -2.58574111311131
 6  6.19846355845585  0.27238986728673 -0.47309877297730
 6  7.54029825702570 -0.18993832693269 -1.23315066846685
 6  8.72291576857686 -0.03249845674567 -0.30467534743474
 6  10.05945780048005 -0.62305678827883 -0.87795877577758
 6  9.93193698709871 -2.21552671847185 -0.94062817751775
 6  11.22225289988999 -0.14381405200520  0.06947447944794
 6  12.60148873347335 -0.50312879127913 -0.47405528272827
 6  13.68595500270027  0.06555385228523  0.32201856445645
 6  15.08712053315331 -0.04811784758476 -0.37562139793979
 6  15.52048937653765 -1.54011817371737 -0.56762649814981
 6  16.09787238443845  0.79130004120412  0.38223148754875
 6  17.50005684438444  0.80620635453545 -0.15980048784878
 6  18.58825867686769  1.61333995299530  0.67885657855786
 6  19.99843973987399  1.75041066636664  0.14343710411041
 6  20.12423335283528  2.24403383458346 -1.35430183918392
 6  20.81206167176718  2.58371210731073  1.09959636033603
 1 -3.86655482308231  3.19336572087209  1.76326856515652
 1 -9.85050263526353  4.23070250675068 -0.32945161906191
 1 -10.52749108900890 -2.10918692869287 -1.40185007890789
 1 -2.71619767126713 -1.37689805390539  2.23754554925493
 1 -2.04524509210921  1.33032298339834  1.51908140654065
 1 -2.06268378427843  0.19269669136914  3.59820654595460
 1 -2.80830413071307  1.69098374197420  3.83650275147515
 1 -3.61131171057106  0.25850655295530  3.98994784048405
 1 -2.34929438333833 -1.97800167786779 -0.22646950325033
 1 -2.20848678727873 -0.21705423112311 -0.60586924762476
 1 -0.34724904830483 -0.03103897799780  1.12845887638764
 1 -0.24791780468047 -1.87615679567957  1.41116823582358
 1 -4.10918557595760  5.92543068066807  0.95822896089609
 1 -5.59817103590359  6.80559567826783  1.53006860386039
 1 -4.76419819681968  5.65288513791379  2.46715777637764
 1 -7.49760985988599  6.95094212791279  0.93182448874888
 1 -9.26384177697770  5.98545653115311 -1.30599999599960
 1 -9.10941522072207  7.73479876517652 -0.50183988808881
 1 -12.12499704710471  3.82658315681568 -0.23758615721572
 1 -11.77877679998000  3.81257622232223 -2.07165438293829
 1 -13.34416181618162  2.66668228642864 -1.28722176907691
 1 -12.80994582048205 -1.08057818411841 -1.48658323212321
 1 -13.49384012631263  0.54156381778178 -1.50512418971897
 1 -12.47430194519452  0.76210322542254 -3.81570041344134
 1 -11.41937814551455 -0.66173556995700 -3.53889468616862
 1 -13.33254132733273 -0.55463282138214 -3.82002586128613
 1 -10.04647219401940 -4.43374546644664 -0.42870867476748
 1 -9.38871078127813 -4.46390340384038 -2.01424194479448
 1 -8.66231793729373 -5.69406018591859 -0.98383303680368
 1 -3.81664739203920 -3.63240059135914 -0.27024008380838
 1 -1.92239910791079 -6.29620622432243  2.26273197719772
 1 -2.00303687538754 -4.96393613261326  3.40435488578858
 1 -3.33236429182918 -6.15480248024802  3.39063058325833
 1  2.62114390619062 -2.20678741984198 -1.24465159845985
 1  2.49066090899090 -0.51819325732573 -2.02467008630863
 1  4.21842327822782 -1.28011608210821  0.47465651005101
 1  5.27266253075308  1.54464216201620 -2.54163675107511
 1  5.53103006680668 -0.20982502730273 -3.21972503960396
 1  3.98325481068107  0.51346415231523 -2.95542089898990
 1  6.23459355645565  1.34070721462146 -0.49696489688969
 1  6.21739956575658 -0.12136772207221  0.51724141824182
 1  7.43987464056406 -1.34588863426343 -1.24580942704270
 1  7.70809056015602  0.26142164676468 -2.13878273597360
 1  8.81133557515751  1.01628948044805 -0.22144088558856
 1  8.43969669956996 -0.52518960596060  0.73597645054506
 1  10.37870473577358 -0.27549735143514 -1.95274599749975
 1  9.19857704530453 -2.53253191599160 -1.56161538703870
 1  10.98940580158016 -2.58145982238224 -1.17299304490449
 1  9.98276671847185 -2.43537541504150  0.16609308780878
 1  11.17831202130213  0.91851947574757 -0.00476701410141
 1  11.02825039443944 -0.30883936943694  1.07212773447345
 1  12.73881038903890 -1.68200207920792 -0.43262670547055
 1  12.57964828142814 -0.31448872177218 -1.61059437793779
 1  13.39285032053205  1.09042943874387  0.75057023112311
 1  13.80736557205721 -0.35532848684869  1.30764034023402
 1  14.94112560996100  0.24342754255426 -1.40389703950395
 1  14.77914330933093 -2.05438372217222 -0.92363638413841
 1  16.38546528282829 -1.66475231473147 -1.35428682128213
 1  15.75497821542154 -1.94946456505651  0.40124282558256
 1  15.64412160376038  1.77456054475448  0.31072491609161
 1  16.19457578027803  0.58084189328933  1.46648864566457
 1  17.89546562386239 -0.19269774837484 -0.27718240294029
 1  17.48421114651465  1.23591655475548 -1.26605390999100
 1  18.34618632453245  2.59867859555956  0.58507500250025
 1  18.48495150935094  1.38465730253025  1.70734198979898
 1  20.39586781658166  0.72145287898790  0.16302924002400
 1  19.87820051725173  3.22935506760676 -1.45776075027503
 1  21.20724924212421  2.09117472127213 -1.60885620902090
 1  19.53664189999000  1.67755779237924 -1.98060324152415
 1  20.76728174127413  2.10475002530253  2.13819774757476
 1  21.96698053975397  2.51202931953195  0.71610351015102
 1  20.38531619431943  3.78206787728773  1.17119972437244
 1 -7.11560534303430  1.88044231623162  0.49618287508751
 1 -7.75304667126713 -0.34411928752875  0.02756943674367

