%nproc=4
%Mem=2GB
# td=(NStates=1) B3LYP/SVP 

TD

0 1
 6 -5.08559140964096 -1.91271107710771  0.51994061916192
 6 -4.68393455165516  2.73465369436944  1.53879055515552
 6 -9.20767001060106  3.49511570787079 -0.14860947714771
 6 -9.77350920202020 -1.26461805640564 -0.95019116451645
 7 -5.23509025702570  0.40344680578058  0.91077853585359
 6 -4.58550664826483 -0.76008499209921  0.91278736433643
 6 -3.10911266496650 -0.68813929742974  1.37371062046205
 6 -3.07843199559956  0.77887300490049  1.95381988738874
 6 -4.45701065916592  1.37234427982798  1.46532844424442
 6 -3.10664716261626  0.71773007400740  3.59837969596960
 6 -1.99213455625563 -0.82147716181618  0.19711631933193
 6 -0.59232762086209 -0.75540439523952  0.64082184728473
 6  0.29507401330133 -1.18651556885689 -0.48995485268527
 8 -0.07142740684068 -1.63824351425143 -1.52769522412241
 8  1.66527160236024 -1.22319873837384 -0.04332932493249
 7 -7.07349053005301  2.81670641254125  0.62663325732573
 6 -5.89704388538854  3.38272500500050  1.11155528092809
 6 -6.06601787428743  4.82769085288529  1.09771132283228
 6 -7.31840490499050  4.99108043104310  0.35380061016102
 6 -7.97700315071507  3.81757035593559  0.21550288658866
 6 -5.02349150555056  5.79359314171417  1.66351235513551
 6 -7.95102169036904  6.34171388908891  0.42624767906791
 6 -8.79864738753875  6.70069936053605 -0.51974059035904
 7 -9.17077047634763  1.06908538313831 -0.54851182658266
 6 -9.77906968436844  2.27350065176518 -0.47248605930593
 6 -11.16386262426243  2.07366100560056 -1.05863993529353
 6 -11.27438287878788  0.69541358275828 -1.26662672427243
 6 -10.01752846124613  0.17023997459746 -0.92786626702670
 6 -12.19178337553755  3.22207477657766 -1.37946237533753
 6 -12.56871696909691 -0.01571066946695 -1.83959619461946
 6 -12.44555902550255 -0.33485813221322 -3.27919510391039
 7 -7.52549567526753 -1.27686200070007 -0.11895824092409
 6 -8.61575756125612 -1.94587120132013 -0.56710363876388
 6 -8.26100970817082 -3.31705630713071 -0.72734647314731
 6 -6.95621764996500 -3.37869375367537 -0.29470157545755
 6 -6.49062760236024 -2.08119991909191  0.08986114021402
 6 -9.15095908100810 -4.41129452945295 -1.13124563136314
 6 -5.80690681218122 -4.36045127202720  0.00362303190319
 8 -5.76672852895290 -5.49412592129213 -0.22328540814081
 6 -4.57603320792079 -3.39964707740774  0.56347159675968
 6 -4.08018043284328 -3.91560525572557  1.84149603490349
 8 -4.25509812151215 -3.39245020092009  2.87878834283428
 8 -3.25519803550355 -4.93521380268027  1.60292603560356
 6 -2.75521905220522 -5.52360326562656  2.86849331963196
 6  2.68920896429643 -1.57215590619062 -1.04335854115412
 6  4.05574968476848 -1.22222684608461 -0.57369398259826
 6  4.94203650385038 -0.44268522092209 -1.32697810241024
 6  4.90393090329033  0.15991983368337 -2.62042458145815
 6  6.18527223932393 -0.05391276297630 -0.57078854195420
 6  7.51627585478548 -0.67044637773777 -1.13337069046905
 6  8.72081555855586 -0.31632683958396 -0.21270615051505
 6  9.99414126882688 -0.81700618321832 -0.98242922282228
 6  10.05634942834283 -2.31497666346635 -1.25946006070607
 6  11.26568724332433 -0.30029970057006 -0.07908037603760
 6  12.69123770837084 -0.62670114851485 -0.67191506870687
 6  13.80740714791479  0.05965326222622  0.18610497309731
 6  15.22692451355135 -0.09522255805581 -0.45916975277528
 6  15.75426275387539 -1.42402656455646 -0.75662539803980
 6  16.23645624282429  0.82474338553855  0.41253451785179
 6  17.63545038373837  1.04949068296830 -0.13486799459946
 6  18.50786063706370  1.88856747574757  0.74906359925993
 6  20.05288518441844  2.04001962726273  0.35547830823082
 6  20.27335826532653  2.35380481168117 -1.14250065906591
 6  20.78774924052405  3.12257599369937  1.19578597929793
 1 -4.02445061266127  3.33291967626763  1.86814905320532
 1 -9.70510809580958  4.29309874637464 -0.52611128502850
 1 -10.61304964486449 -2.05484149414942 -1.57508740264026
 1 -2.84914096559656 -1.33272363646365  2.16743853855386
 1 -2.17294786238624  1.42283223432343  1.64036353475348
 1 -2.12508002390239  0.13482090379038  3.95623234853485
 1 -3.09044234453445  1.86030067366737  3.87257635883588
 1 -3.82191277067707  0.03459416171617  3.91117996369637
 1 -2.17869732363236 -1.91708558625863 -0.38773562986299
 1 -2.50636657525753 -0.07610013571357 -0.43844250495050
 1 -0.06660098349835  0.21597572347235  0.78814484498450
 1 -0.24046705960596 -1.65074425442544  1.30319743874387
 1 -4.18820347774778  5.80576871447145  1.08133127112711
 1 -5.18929014781478  6.92149726842684  1.68570416741674
 1 -4.87349912691269  5.54817466686669  2.93769483008301
 1 -7.60198029692969  7.02138917261726  1.11135244154415
 1 -9.12362775557556  5.85870385588559 -1.35520491649165
 1 -9.26746102530253  7.63836912221222 -0.61017072117212
 1 -12.25014956235623  3.77996849534953 -0.49795219381938
 1 -11.49940886318632  3.72634759945995 -2.25706292379238
 1 -13.01852925292529  2.64292991119112 -1.97741078797880
 1 -12.63123794969497 -1.00318044434443 -1.30096467026703
 1 -13.32218296059606  0.56322598399840 -1.34364804210421
 1 -12.40492500750075  0.52948996409641 -3.91036988038804
 1 -11.61581778947895 -0.80551994839484 -3.62622341904190
 1 -13.26554462766277 -0.94688204630463 -3.54549840854085
 1 -9.95096264306431 -4.34505659755976 -0.42190799469947
 1 -9.62772468266827 -4.33032004550455 -2.24913543414341
 1 -8.85010671617162 -5.52181296119612 -0.75423007650765
 1 -3.81619734703470 -3.53700105140514 -0.35037809760976
 1 -1.99469633763376 -6.28323492719272  2.26688239223922
 1 -2.23599017071707 -4.79351909090909  3.48691314161416
 1 -3.56831788718872 -6.10078707870787  3.20234175437544
 1  2.55268706050605 -2.70184692579258 -1.15226235953595
 1  2.35418726162616 -1.16793823182318 -1.94589220852085
 1  4.35905734163416 -1.72763083358336  0.28559760416042
 1  5.09027429192919  1.22950064786479 -2.35938852625263
 1  5.61066803060306 -0.28571261606161 -3.25803887098710
 1  3.96668315351535  0.01229403530353 -3.09223458035804
 1  6.25774587168717  1.03586673057306 -0.49891509190919
 1  6.00750857665767 -0.43182876817682  0.52179187328733
 1  7.42398305140514 -1.66704074947495 -1.60046489258926
 1  7.76847659875988  0.02740824542454 -2.19804866256626
 1  8.62183662526253  0.58157600910091  0.02529378787879
 1  8.81061379127913 -0.74566165316532  0.90813366626663
 1  10.23306017131713 -0.23740354205421 -1.91665238813881
 1  9.12543973157316 -2.84837350015001 -1.78524775027503
 1  10.92550941194119 -2.63819549594959 -1.88771451705171
 1  10.09956839863986 -3.08773065056506 -0.33902742424242
 1  11.16061025112511  0.99021664546455 -0.07203374077408
 1  11.13635120452045 -0.59382786828683  0.91250177187719
 1  12.92674918291829 -1.78422230123012 -1.01159460226023
 1  12.68561887848785 -0.31733900680068 -1.54798811731173
 1  13.61439247474747  1.09107950375038  0.44998017211721
 1  13.78208304380438 -0.55053800780078  1.24413398959896
 1  15.08355985338534  0.41706490629063 -1.45804245404540
 1  14.97222261726173 -1.81849013281328 -1.65278929942994
 1  16.74715145144514 -1.47486332583258 -1.24520591319132
 1  15.75268798639864 -2.15698531713171  0.04392709400940
 1  15.56078326992699  1.74315740444044  0.69828367196720
 1  16.25776209890989  0.22595640474047  1.39986198299830
 1  18.00317639493949 -0.00698917751775 -0.25757044174417
 1  17.56321904730473  1.05787875097510 -1.24087139173917
 1  18.16614832073207  2.85810453815382  0.95811230623062
 1  18.31671468566857  1.35263410021002  1.86555781138114
 1  20.50246847664767  1.03745447914792  0.60818375547555
 1  19.49737243444345  3.25582771487149 -1.64556953115311
 1  21.37206572377238  2.65300090389039 -1.34687001040104
 1  20.34907314311431  1.28135817241724 -1.73048823002300
 1  20.61205621872187  2.90640019031903  2.23726765456546
 1  21.87037087878788  3.17398551515152  1.09580147994799
 1  20.35869353205321  4.25278494899490  1.07999060346035
 1 -7.06655043754375  1.94565883788379  0.46835009180918
 1 -7.33028439503950 -0.30543541914191 -0.04847816801680

