%nproc=4
%Mem=2GB
# td=(NStates=1) B3LYP/SVP 

TD

0 1
 6 -5.21642449294930 -1.89645945194519  0.45430405550555
 6 -4.64530068826883  2.76210643964396  1.38384506060606
 6 -9.21630087368737  3.28825502180218 -0.14217883408341
 6 -9.86489834093409 -1.44634622922292 -0.95928207360736
 7 -5.13465021302130  0.52405886698670  0.60548800680068
 6 -4.51434953255325 -0.74120310391039  0.74479056465647
 6 -3.10225197889789 -0.64487497099710  1.26569981938194
 6 -3.01567571997200  0.81125624322432  1.71246575197520
 6 -4.34414937303730  1.37034407980798  1.15225713711371
 6 -2.79375587348735  1.06873517451745  3.28406826482648
 6 -2.02859820262026 -0.96152116621662  0.16718332603260
 6 -0.56063445154515 -0.83956281108111  0.50506827192719
 6  0.36519102500250 -1.20850776807681 -0.56316217341734
 8  0.08877861376138 -1.59502919281928 -1.63315577017702
 8  1.64145922112211 -0.98572499099910 -0.22246723872387
 7 -6.90625380638064  2.85051979387939  0.53599419341934
 6 -5.84308848984899  3.43571030353035  1.02362648804880
 6 -6.08354962746275  4.78577666146615  1.02673422512251
 6 -7.34270733523352  4.96518784178418  0.53260849094909
 6 -7.94608005840584  3.67634623352335  0.27077841414141
 6 -5.25888504490449  5.98039182158216  1.43333933783378
 6 -8.02862945114511  6.25042476017602  0.27909296359636
 6 -9.04324184698470  6.66027531813181 -0.51207982428243
 7 -9.14924832413241  0.77414588918892 -0.49154613001300
 6 -9.82654443184318  2.05863916561656 -0.48219703040304
 6 -11.32900913891389  1.88590222972297 -0.81326539783978
 6 -11.46966240674067  0.57199124052405 -1.15193525512551
 6 -10.14926163456346 -0.02768981838184 -0.90002348274827
 6 -12.20134433163316  3.06524909400940 -0.96219064816482
 6 -12.68487858525853 -0.18175727412741 -1.53551578657866
 6 -12.68807327692769 -0.35767041344134 -3.12219940434043
 7 -7.52835596129613 -1.17639195369537 -0.10494683978398
 6 -8.59507549304930 -1.96749336353635 -0.67612454085409
 6 -8.28218182538254 -3.45268987048705 -0.70309404790479
 6 -6.88044007220722 -3.41020690499050 -0.33298540384038
 6 -6.44975351495150 -2.05296709580958  0.04450660476048
 6 -9.04788877397740 -4.62479587958796 -1.11282378917892
 6 -5.72353847534753 -4.27158238513851  0.01250391999200
 8 -5.65346720282028 -5.46111261996200 -0.26897997759776
 6 -4.60595620022002 -3.34711182388239  0.55872112171217
 6 -4.00099251405141 -3.87737143234323  1.82159404470447
 8 -4.34468708040804 -3.39797075297530  2.85625608960896
 8 -3.22849536523652 -4.94288456975698  1.64050979397940
 6 -2.69807333763376 -5.55897680298030  2.86653312361236
 6  2.60624066746675 -1.03401209180918 -1.17707191249125
 6  3.91794590439044 -0.81167579097910 -0.56529314251425
 6  4.99993229342934  0.01607065466547 -1.14020942554255
 6  5.02300281048105  0.56172001370137 -2.52132467146715
 6  6.27131084318432  0.24931756005601 -0.32430389348935
 6  7.48738296549655 -0.39383871697170 -0.98988634203420
 6  8.80010348734874 -0.21237644454445 -0.22132701260126
 6  10.03036489118912 -0.76234071667167 -0.88848982888289
 6  9.96022981638164 -2.28372353815382 -0.99404351905191
 6  11.25016569116912 -0.29009868046805 -0.00959342734273
 6  12.67071565616562 -0.56410488888889 -0.68519639683968
 6  13.78443485068507 -0.11575427852785  0.30197656025603
 6  15.20750257135714 -0.08630166596660 -0.33660749654966
 6  15.69107643524352 -1.55725988788879 -0.74861459695970
 6  16.29024162136214  0.60225113631363  0.53340660506051
 6  17.60140697939794  0.78807454135414 -0.10273478127813
 6  18.55926577757776  1.59340795979598  0.73463215611561
 6  20.00974086998700  1.81145677097710  0.18328108850885
 6  20.08493942344235  2.35099453065307 -1.13005941494149
 6  20.94477494309431  2.45375911201120  1.19589599029903
 1 -3.92064023162316  3.32447883218322  1.82869510781078
 1 -10.01173875887589  4.01643107960796 -0.30207888178818
 1 -10.66726506640664 -2.25729173917392 -1.33863375727573
 1 -3.06997304880488 -1.36107647174718  2.05224701940194
 1 -2.13460402800280  1.47811776287629  1.19682918131813
 1 -1.52627014291429  0.89387680938094  3.60493721902190
 1 -3.04891819211921  2.11266591019102  3.65193429462946
 1 -3.42803338273827  0.53335403770377  3.67146599229923
 1 -2.27022647654765 -1.90680455815582 -0.26286314261426
 1 -2.20321626022602 -0.37734025972597 -0.83625228592859
 1 -0.32267659105911  0.13431755765577  0.91643767426743
 1 -0.21199421232123 -1.49595877587759  1.27271439043904
 1 -4.38202285968597  5.97491562916292  0.85048818681868
 1 -5.71151237003700  6.95164028272827  1.42781837883788
 1 -4.88467024402440  5.84482433183318  2.46571763236324
 1 -7.43964406330633  6.96456349004900  0.61786309260926
 1 -9.86445183798380  6.11429941544154 -1.13432282828283
 1 -9.53270754995500  7.68758404370437 -0.36391609570957
 1 -11.88503305070507  3.85520601910191 -0.02408480708071
 1 -12.16929585188519  3.50054501920192 -2.05599281678168
 1 -13.24222162216222  2.68487410561056 -0.58418146504651
 1 -12.73172799869987 -1.29385951225123 -1.12926750055006
 1 -13.46635737803780  0.29276893829383 -1.14252793009301
 1 -12.89180369536954  0.76881389648965 -3.51483032643264
 1 -11.81608781648165 -0.84510390679068 -3.53972476917692
 1 -13.37673574677468 -0.90107746584658 -3.40279413811381
 1 -10.19687723452345 -4.49881197309731 -0.77674347824783
 1 -8.98579048924892 -4.77581459495950 -2.42722324292429
 1 -8.50916262176218 -5.50461124102410 -0.70406506000600
 1 -3.70462618991899 -3.40828818011801 -0.27515057485749
 1 -2.24704157215722 -6.43749035273527  2.51423712771277
 1 -2.35883245494549 -4.81576131513151  3.50790524082408
 1 -3.48387944334434 -6.05184218421842  3.34609612981298
 1  2.56434822662266 -2.02989973107311 -1.47908504180418
 1  2.42423426632663 -0.38826026402640 -1.99799741904190
 1  4.10984242014201 -1.19166723722372  0.43346239063906
 1  5.32521778627863  1.67115481328133 -2.84902749014902
 1  5.62069903370337  0.00904685988599 -3.14141720882088
 1  4.08469495469547  0.43913671957196 -2.95775113201320
 1  6.28045814291429  1.44637778167817  0.08127292689269
 1  6.21002882868287 -0.21907749304930  0.60690038413841
 1  7.18000865396540 -1.46038008340834 -0.94225907200720
 1  7.86442619371937 -0.05650014541454 -2.06575543324332
 1  8.90998544014401  0.97083493499350 -0.14159290079008
 1  8.55024775467547 -0.50782786978698  0.87973082598260
 1  9.92309917521752 -0.17942774447445 -1.79892061496150
 1  9.10598778637864 -2.38878754155416 -1.44745397089709
 1  10.71380824182418 -2.60345202160216 -1.73028877447745
 1  10.18004644644464 -2.80510238773877 -0.20105362686269
 1  11.20643483358336  0.83262088588859  0.27606106870687
 1  11.23250081948195 -0.72222070757076  1.20436095779578
 1  12.79758626662666 -1.56315019401940 -1.10854429722972
 1  12.75295561216122  0.13372609970997 -1.57663098159816
 1  13.56026706220622  0.99684007980798  0.71599677377738
 1  13.75035987148715 -0.84643759775978  1.36887646384638
 1  15.18114961236124  0.57133033283328 -1.42473912371237
 1  14.80734612961296 -2.18860714451445 -1.13702772327233
 1  16.64955169146915 -1.48850468996900 -1.40746213881388
 1  16.07180989858986 -2.06695631423142  0.21582428372837
 1  15.92336952855285  1.51710479917992  0.69854369796980
 1  16.38597492019202  0.07414122322232  1.47114911171117
 1  18.06508258555856 -0.23982246084608 -0.38298298299830
 1  17.42741546694669  1.32104506760676 -1.09903720832083
 1  17.95814752065207  2.61630035773577  1.03386988198820
 1  18.60170318451845  1.18490732753275  1.67307856345635
 1  20.51529975977598  0.81377211091109  0.16855979307931
 1  19.79807250445045  3.44275640774077 -1.14543951815182
 1  21.05986450365036  2.41936754055406 -1.57804312771277
 1  19.47293552935293  1.90326036263626 -1.79521470267027
 1  21.17860287338734  1.96316586688669  2.09849377717772
 1  22.03009685138514  2.66037415401540  0.65940784058406
 1  20.67919558225823  3.46355602610261  1.56536914131413
 1 -6.78316209870987  1.80947521952195  0.45561881868187
 1 -7.49716108270827 -0.09915479107911 -0.26719003920392

