%nproc=4
%Mem=2GB
# td=(NStates=1) B3LYP/SVP 

TD

0 1
 6 -5.12074492499250 -1.94163396939694  0.41699032413241
 6 -4.77211336953695  2.75434566356636  1.36403307940794
 6 -9.34006324992499  3.32478867516752 -0.17159177537754
 6 -9.84248609970997 -1.48542013661366 -0.82261840724072
 7 -5.15398214621462  0.48947540864086  0.76618407640764
 6 -4.50322842044204 -0.75740472407241  0.78541462706271
 6 -3.12027378107811 -0.61343182668267  1.29177242664266
 6 -3.04773892629263  0.86741185878588  1.92316682208221
 6 -4.42007696579658  1.47504454985499  1.28217012841284
 6 -3.15424192209221  0.80954925592559  3.46608646664666
 6 -2.08324366716672 -0.78311332543254  0.08450505820582
 6 -0.59405779387939 -0.79741859665967  0.55962372747275
 6  0.25803030893089 -0.92925984328433 -0.67727358455846
 8 -0.03785404950495 -1.33318300820082 -1.73547600220022
 8  1.59813488868887 -0.54378079657966 -0.25444043604360
 7 -6.98554173517352  2.81369611151115  0.32445303930393
 6 -5.88723290429043  3.42778951145115  0.94333845924592
 6 -6.18826009850985  4.82658074187419  1.11204275597560
 6 -7.48610167466747  4.95104642764276  0.58189341944194
 6 -8.04939038943894  3.68842744164416  0.18311964826483
 6 -5.19997915431543  5.91235501790179  1.64526052995300
 6 -8.18016460466047  6.24502422012201  0.40133518781878
 6 -9.20950847364736  6.60677996859686 -0.37630624692469
 7 -9.22224562386239  0.80963943854385 -0.36438341374137
 6 -9.82581435883588  2.03701700340034 -0.50070888158816
 6 -11.17543378137814  1.84991863136314 -1.03450752205221
 6 -11.34477991849185  0.48943298469847 -1.08576863846385
 6 -10.10946765516552 -0.15625267466747 -0.80965444584458
 6 -12.18977317451745  2.94756732583258 -1.29886431553155
 6 -12.50254035143514 -0.22348144654465 -1.75985822082208
 6 -12.63586805640564 -0.45417006340634 -3.34979216361636
 7 -7.46996012171217 -1.28462277677768 -0.13740008510851
 6 -8.56548253375338 -2.11817843204320 -0.54540146854685
 6 -8.16425003220322 -3.39283388488849 -0.53787752625263
 6 -6.80592262046205 -3.39929581388139 -0.16046815211521
 6 -6.42000053965396 -2.09282108120812 -0.02061990789079
 6 -9.01157514261426 -4.60499389938994 -0.88243074987499
 6 -5.67243336483648 -4.30943617051705 -0.01595892629263
 8 -5.50203205930593 -5.43675018371837 -0.05955903550355
 6 -4.43452905750575 -3.31336844954495  0.33557880748075
 6 -3.81197361216122 -3.77760145534553  1.69168105340534
 8 -4.07436004770477 -3.37527848374837  2.78280874487449
 8 -2.81339385508551 -4.79905018631863  1.54906064906491
 6 -2.62294582488249 -5.48703960926093  2.73954042434243
 6  2.58897894129413 -0.80606929752975 -1.22069627492749
 6  4.02848695849585 -0.48838346174617 -0.67646425962596
 6  5.02900520072007  0.14980402800280 -1.25079048364836
 6  5.03196370657066  0.88216205790579 -2.56726926592659
 6  6.26251996409641  0.31949457775778 -0.35581704480448
 6  7.49901412861286 -0.44948428152815 -0.95832318571857
 6  8.77084056105611 -0.12380758765877 -0.19326420632063
 6  10.05794764946495 -0.80538502110211 -0.73627460736074
 6  9.98247204060406 -2.42970813661366 -0.90948506320632
 6  11.28284895949595 -0.43368303890389  0.07109464146415
 6  12.63364194879488 -0.78300677907791 -0.51065894309431
 6  13.77587399459946 -0.06203890699070  0.22800916351635
 6  15.22710453155315 -0.32604564036404 -0.33685752155216
 6  15.54181150875088 -1.83301746364636 -0.31598133363336
 6  16.29260185738574  0.42739365056506  0.39925318971897
 6  17.60012685138514  0.67091282518252 -0.27765227302730
 6  18.49365921692169  1.55389400840084  0.58652734563456
 6  19.95503539943994  1.60567619291929  0.09434219461946
 6  20.08303923342334  2.30783021422142 -1.24918132713271
 6  20.84877534313431  2.39378311441144  1.18405480618062
 1 -4.08670683828383  3.33179956425643  1.91278351665167
 1 -10.02350993599360  4.31040047654766 -0.49643831773177
 1 -10.61826016591659 -2.13941995199520 -1.13269316321632
 1 -2.80381643314331 -1.32140250435044  2.15226702140214
 1 -2.07197776537654  1.22268221932193  1.67616711511151
 1 -2.30708822472247  0.40975839753975  3.91303802910291
 1 -3.23150645094509  1.90275491909191  3.76019512071207
 1 -3.96181676107611  0.48365906820682  3.98373721942194
 1 -2.48640809470947 -1.63467734543454 -0.57642449874987
 1 -2.18171411001100  0.04532200650065 -0.52384104480448
 1 -0.29720404380438  0.04123824972497  1.22280831133113
 1 -0.31238425132513 -1.67132631263126  1.28289540854085
 1 -4.24443910131013  6.07467560516052  1.08242138013801
 1 -5.74903612241224  6.83792891159116  1.79749534653465
 1 -5.07944972197220  5.63562341174117  2.78486954755476
 1 -7.87298739763976  6.92925995969597  1.04124543084308
 1 -9.45670106290629  5.92387037253725 -1.13476287228723
 1 -9.56728100730073  7.66879216451645 -0.52400210431043
 1 -12.38005255265526  3.60365086358636 -0.39623202180218
 1 -11.92399132143214  3.51949691439144 -2.14476169366937
 1 -13.05535293529353  2.59232485068507 -1.87196024292429
 1 -12.58987381328133 -1.27802792909291 -1.36962153595360
 1 -13.51398214051405  0.28916857825783 -1.40974465176518
 1 -12.49942445744574  0.44119113421342 -3.64503334673467
 1 -11.63514972267227 -1.13097249364937 -3.62967376407641
 1 -13.57792586578658 -0.91198855695570 -3.66531038973897
 1 -9.76284383118312 -5.01360345224523 -0.21706751065107
 1 -9.71026293649365 -4.53843085658566 -1.74685520612061
 1 -8.27621932743274 -5.41693247314732 -1.02070672417242
 1 -3.65642136943694 -3.34575192649265 -0.36716977677768
 1 -2.10912778077808 -6.49018562226223  2.53511921592159
 1 -2.03718028972897 -4.94147388638864  3.48036248654866
 1 -3.68191924732473 -5.69270627062706  3.17031855205521
 1  2.45451724352435 -1.94057079817982 -1.38825595889589
 1  2.24642648554855 -0.17840927892789 -2.15328294759476
 1  4.16823825972597 -0.90511858235824  0.39263830823082
 1  5.51417668216822  1.86260395819582 -2.40091267866787
 1  5.50356732053205  0.17607356255626 -3.19289235633563
 1  3.96598308350835  0.99977278317832 -2.94368972587259
 1  6.52918301540154  1.34265740964096 -0.38423362376238
 1  6.00034786058606  0.09473388808881  0.72923261736174
 1  7.43471412451245 -1.53928797419742 -0.94821966806681
 1  7.51029078017802 -0.23541803720372 -2.13613247094710
 1  8.97482192379238  1.11714956645665 -0.20522926442644
 1  8.76052878277828 -0.19701678867887  0.93935678857886
 1  10.24940180548055 -0.30029983168317 -1.77442816571657
 1  9.11465865346535 -2.71528019081908 -1.66179540504050
 1  10.88303516451645 -2.62436411281128 -1.39739548514852
 1  10.09308775057506 -2.95991786928693  0.10157663616362
 1  11.20837502760276  0.51877950175017  0.39519298189819
 1  11.24236180558056 -0.91659014451445  1.14543506520652
 1  13.04252076007601 -1.72363624262426 -0.86009945274527
 1  12.52016233283328 -0.42264953785379 -1.46507982648265
 1  13.51467250275027  1.17242763856386  0.37092226632663
 1  13.59407424292429 -0.49441239523952  1.11763133933393
 1  15.18498999639964  0.17084028382838 -1.45332198199820
 1  14.79787518251825 -2.41901018481848 -0.84801882238224
 1  16.38486522282228 -1.96848268776878 -1.15693708630863
 1  15.75806852445245 -2.22675229382938  0.63549625092509
 1  16.03348053965397  1.39658274697470  0.71694553815382
 1  16.44864118681868  0.14219802890289  1.35305730253025
 1  18.03137921522152 -0.46539501810181 -0.54367905260526
 1  17.25396812221222  1.23895685878588 -1.28082538713871
 1  18.13336504240424  2.50126885458546  0.61902839783978
 1  18.49937295149515  1.28191702850285  1.66897815341534
 1  20.44524275407541  0.65151588528853 -0.01746880978098
 1  19.45325802300230  3.20741287338734 -1.39918489268927
 1  21.04892340954095  2.61365696949695 -1.38813413681368
 1  19.57637587338734  1.82834287088709 -2.17695287648765
 1  21.00288530163017  1.92859240954095  2.18686261406141
 1  21.80765460716071  2.73046116271627  0.70004190399040
 1  20.36841450415042  3.42436210671067  1.56803940834083
 1 -7.08748253075307  1.81736600860086  0.31957521432143
 1 -7.51241260786079 -0.15381025662566 -0.15110843104310

