%nproc=4
%Mem=2GB
# td=(NStates=1) B3LYP/SVP 

TD

0 1
 6 -5.00221307180718 -1.89887969396940  0.41945057015702
 6 -4.73474963316332  2.81619184818482  1.44462113821382
 6 -9.53934317791779  3.33706990329033 -0.17346196239624
 6 -9.73697554865486 -1.52391398599860 -1.06811295669567
 7 -5.14589133713371  0.43509997109711  0.85775323332333
 6 -4.50707880548055 -0.70718970257026  0.95893197879788
 6 -3.06072782648265 -0.41413189668967  1.39398264766477
 6 -3.13500765316532  0.98634375197520  1.98095260066007
 6 -4.40918587668767  1.46639368476848  1.37146905830583
 6 -3.10828732663266  1.10600890189019  3.45799565756576
 6 -2.07967331013101 -0.59886490059006  0.18007461516152
 6 -0.61553994209421 -0.57435629042904  0.66718448354835
 6  0.33543804970497 -0.79965688298830 -0.45890174737474
 8 -0.07976824092409 -1.17577726762676 -1.58088054265427
 8  1.68885396059606 -0.78397481598160 -0.11954694669467
 7 -7.18997217821782  2.69894463636364  0.67297789178918
 6 -6.05873005400540  3.33254998749875  1.08485261066107
 6 -6.38103937643764  4.78228631243124  1.22090364206421
 6 -7.72788585308531  4.90674199719972  0.69647487758776
 6 -8.19084453485349  3.58995759465947  0.41406274257426
 6 -5.47665682208221  5.76430021242124  1.57576358025803
 6 -8.37847443564356  6.26857657535754  0.41913696799680
 6 -9.35131265406541  6.60230952155216 -0.40947956425643
 7 -9.24019741904190  0.90040851545155 -0.49520649604960
 6 -9.97123890129013  2.14190749244924 -0.65137394809481
 6 -11.38505474347435  1.77115075457546 -1.07533160446045
 6 -11.39409484998500  0.43480752215222 -1.38025808740874
 6 -10.03332004040404 -0.04063111251125 -0.97940142054205
 6 -12.50408460566057  2.74932750185019 -1.26180060916092
 6 -12.52658275567557 -0.35187428582858 -1.98037027202720
 6 -12.44738920852085 -0.30268491489149 -3.44735191959196
 7 -7.37492061776178 -1.26303061756176 -0.23265961106111
 6 -8.57748373387339 -2.01602821702170 -0.70801773017302
 6 -8.07526113331333 -3.44293889538954 -0.62659639813981
 6 -6.73418544674467 -3.42056794109411 -0.20888299359936
 6 -6.31469000860086 -2.13691549064907 -0.03609145504550
 6 -8.89720370547055 -4.63985738573857 -1.06872937973797
 6 -5.62577869936994 -4.30168539543954 -0.01282861326133
 8 -5.40670252635264 -5.54607111581158 -0.24760784038404
 6 -4.35063066766677 -3.27147426012601  0.40061531113111
 6 -3.81120353515352 -3.77694138933893  1.77305919121912
 8 -4.08573118481848 -3.31341229712971  2.82976344034403
 8 -2.97473998969897 -4.83376365766577  1.63980972397240
 6 -2.47360089038904 -5.44112501780178  2.82595906620662
 6  2.61803184658466 -1.05852454305431 -1.10099430473047
 6  3.96826093589359 -0.57574219761976 -0.52049866306631
 6  4.94941724192419  0.05644469206921 -1.19618502310231
 6  4.86255676587659  0.70235407710771 -2.57406994599460
 6  6.28876258835884  0.38223085138514 -0.54278574167417
 6  7.45588981618162 -0.46313564666467 -0.99341669506951
 6  8.75783926092609 -0.06958216511651 -0.27997287718772
 6  10.10010186488649 -0.64705918851885 -0.82589356925693
 6  9.97858165156516 -2.13126829262926 -0.95048916361636
 6  11.31380205480548 -0.20472014261426 -0.01105357335734
 6  12.75119370397040 -0.54061253965397 -0.55402327952795
 6  13.84530093729373 -0.06476918001800  0.39561592419242
 6  15.29282110321032 -0.32281531733173 -0.22855669146915
 6  15.66442376997700 -1.86205036693669 -0.28087782328233
 6  16.36491908910891  0.38434934613461  0.51542480688069
 6  17.67412425112511  0.57526326022602 -0.27947245504550
 6  18.65749560056005  1.39303792279228  0.54180287318732
 6  20.13937383328333  1.44155978127813 -0.03545078467847
 6  20.20652158165817  1.99089852105211 -1.41931834083408
 6  21.11874233983398  2.20843457955796  0.88204460516052
 1 -4.05024319191919  3.56759314361436  1.77564980328033
 1 -10.13113069806981  4.12046148264826 -0.13039171307131
 1 -10.50796913681368 -2.04654066406641 -1.47425731963196
 1 -2.90814686618662 -1.41405176927693  2.05201699639964
 1 -2.24776534413441  1.63641359245925  1.57179667806781
 1 -2.23775129102910  0.76373379507951  3.81080780608061
 1 -3.42976627692769  2.03692833643364  4.08021712291229
 1 -3.87368794819482  0.37349805210521  3.85702454815482
 1 -2.26886634053405 -1.56092997069707 -0.17864472077208
 1 -2.45894183278328  0.18840631493149 -0.60825948664867
 1 -0.18481280468047  0.40601472737274  1.22286831733173
 1 -0.41489450235024 -1.17645682568257  1.56804392339234
 1 -4.55465012241224  5.67336547414742  0.92330546854685
 1 -5.71797301610161  6.79657477617762  1.64130972797280
 1 -5.13746552355235  5.79336918631863  2.62215327592759
 1 -8.09026912581258  7.02195922962296  1.10935224152415
 1 -9.98300369316932  6.02007999349935 -1.04156355235524
 1 -9.70390466966697  7.70866615191519 -0.16106581068107
 1 -12.74775932333233  3.31957245574557 -0.36614901350135
 1 -12.24899382168217  3.76339130383038 -1.96703392089209
 1 -13.37667506750675  2.21915753395340 -1.50750379727973
 1 -12.63347817371737 -1.32888301460146 -1.36983155695570
 1 -13.46032677497750  0.28280794219422 -1.64251792909291
 1 -12.36998151315132  0.72595961106111 -3.92852169556956
 1 -11.45051125882588 -0.73553294969497 -3.82635343204320
 1 -13.24585265846585 -0.89379673777378 -3.83207706640664
 1 -9.89287683448345 -4.72124421632163 -0.58100390429043
 1 -9.26393830403040 -4.48062507600760 -2.18652917351735
 1 -8.28178988448845 -5.71093187308731 -0.92359701320132
 1 -3.52494822212221 -3.29667701900190 -0.39171223102310
 1 -1.94802167016702 -6.17351395509551  2.41302700670067
 1 -1.66308287998800 -4.85392513151315  3.19505395569557
 1 -3.18438949434943 -5.79478647864786  3.75015653585359
 1  2.64922671447145 -2.12657939903990 -1.19205633893389
 1  2.31360320322032 -0.54058549654966 -2.14382200150015
 1  3.99949138503850 -0.87653572407241  0.52541158555856
 1  5.20782604710471  1.76985468326833 -2.63863645104510
 1  5.49008597239724  0.22264822002200 -3.31527459455946
 1  3.87093357855786  0.61648445434543 -2.86966232313231
 1  6.33671376847685  1.52623576747675 -0.73791899229923
 1  6.20067789358936  0.18483289798980  0.54525421952195
 1  7.06805745884588 -1.71549559495950 -1.01826667276728
 1  7.65072482358236 -0.27085158055806 -2.17649650735074
 1  8.89998444004400  1.01314916641664 -0.18724746624662
 1  8.79371210111011 -0.33909099609961  0.89795264816482
 1  10.23920078537854 -0.13236303800380 -1.89184990789079
 1  9.27722491009101 -2.63623228602860 -1.42820204570457
 1  10.79841670267027 -2.73887556395640 -1.36439218481848
 1  9.85243368516852 -2.32566444394439  0.12140861936194
 1  11.07464165426543  0.92136976077608  0.11980544314431
 1  10.94206177557756 -0.46072455795580  1.11480200190019
 1  12.81750825882588 -1.52825670467047 -0.45993943674367
 1  12.96990730733073 -0.09279655255526 -1.60504382288229
 1  13.83298433393339  1.01793218901890  0.41115628972897
 1  13.63774861036104 -0.51674462846285  1.33333290949095
 1  15.17220871827183  0.06403960376038 -1.29498614841484
 1  14.84576997199720 -2.42892117591759 -0.82194621512151
 1  16.71356809310931 -1.81785762526253 -0.70577196979698
 1  15.78906162376238 -2.20125974457446  0.80623332463246
 1  15.75932312391239  1.16603969266927  0.75964980858086
 1  16.68682500520052  0.08779258835884  1.56046804360436
 1  18.08683476077608 -0.39370784938494 -0.62702738743874
 1  17.57712043744375  1.26996996009601 -1.17953525812581
 1  18.19668137403740  2.43782250995099  0.64103059805981
 1  18.68006102030203  0.95768460526053  1.60427168276828
 1  20.44723295309531  0.29468020172017  0.23809674677468
 1  19.42269496669667  2.84356648874888 -1.58499347354735
 1  21.27485600280028  2.55891149494949 -1.68063338673867
 1  19.88155639143914  1.07332736933693 -2.16932211341134
 1  21.18126313941394  1.97050660096010  1.97946187398740
 1  22.21104494619462  2.03823193979398  0.34817671747175
 1  20.96921458415842  3.47651732223222  1.01347395179518
 1 -7.21802558505851  1.62886715871587  0.63474673147315
 1 -7.59237060366037 -0.20628550415042 -0.35702902310231

