%nproc=4
%Mem=2GB
# td=(NStates=1) B3LYP/SVP 

TD

0 1
 6 -5.02927577807781 -2.02670247624762  0.40921954705471
 6 -4.73518967716772  2.59159938893889  1.37668434453445
 6 -9.18944818841884  3.42337853415342 -0.32480709690969
 6 -9.77259911101110 -1.35019661426143 -0.87923406880688
 7 -5.18143489148915  0.32982944404440  0.77575503350335
 6 -4.48074617221722 -0.83093207680768  0.84211029662966
 6 -3.02512426612661 -0.56626711021102  1.31890513991399
 6 -3.02572672507251  0.84238935653565  1.83876838223822
 6 -4.44045900400040  1.30164721012101  1.34605651705170
 6 -3.13842033993399  0.86327462846285  3.32107196519652
 6 -2.10088543134313 -0.97187220132013  0.08769537723772
 6 -0.66301468956896 -0.61798065286529  0.50205797089709
 6  0.39565407130713 -1.06647356465647 -0.52337819501950
 8  0.14322405830583 -1.51730142004200 -1.65107756235624
 8  1.66606168136814 -0.77614403290329 -0.13308830083008
 7 -7.05167834883488  2.75857059895990  0.54266486048605
 6 -5.89545372637264  3.22616934943494  1.03118724412441
 6 -6.08732000450045  4.73097118091809  1.03390494219422
 6 -7.35081814631463  5.02704402740274  0.48284351445145
 6 -7.94429988038804  3.66863546244624  0.18697003330333
 6 -5.14176333273327  5.72458624102410  1.56100210411041
 6 -7.97377396559656  6.30873059075908  0.29101415571557
 6 -8.82587010981098  6.73087237783778 -0.63883249954996
 7 -9.15726912621262  0.97513598819882 -0.45208218361836
 6 -9.84804658205821  2.18505180688069 -0.54078288898890
 6 -11.23054929292929  1.96198983848385 -1.03785785708571
 6 -11.38417385788579  0.56759080048005 -1.19206926852685
 6 -10.04438114651465  0.01881483208321 -0.84119760016002
 6 -12.16781097829783  3.08928149724972 -1.19856428552855
 6 -12.60079017641764 -0.16729582798280 -1.58483071807181
 6 -12.65700016961696 -0.56086073247325 -3.11865905030503
 7 -7.42421554725473 -1.25131944644464 -0.22450879597960
 6 -8.57796378187819 -2.00254686888689 -0.65376230463046
 6 -8.16181978917892 -3.34106870837084 -0.70074381288129
 6 -6.84846687488749 -3.40193607790779 -0.33900600590059
 6 -6.39590813041304 -2.07514931403140 -0.02179002490249
 6 -9.07636162126212 -4.46248964896490 -1.00186269306931
 6 -5.77393351485149 -4.32237746464647 -0.07013434383438
 8 -5.71713356945695 -5.50579708840884 -0.16527960756076
 6 -4.49921552615262 -3.44286139883988  0.41724697429743
 6 -3.87885029982998 -3.82561625682568  1.72086397169717
 8 -4.05269788148815 -3.35657661356136  2.83447391139114
 8 -3.23358587428743 -4.97764804610461  1.45385112811281
 6 -2.67968149844984 -5.60452135743574  2.60765723602360
 6  2.67179722312231 -1.11913060366037 -0.98469267456746
 6  4.04775888568857 -0.79711433483348 -0.41525813901390
 6  4.92605490569057  0.13398244584458 -0.90196560116012
 6  4.68982949314931  0.77658149984999 -2.18384092309231
 6  6.27053076517652  0.25265789408941 -0.09901136423642
 6  7.53197742494249 -0.17427676077608 -0.92366972037204
 6  8.84279775677568  0.07534232733273 -0.16302118201820
 6  9.99387124182418 -0.65961044364436 -0.74869584948495
 6  9.82883667706771 -2.24055922172217 -0.52154626932693
 6  11.23672434703470 -0.07124679527953  0.07370490249025
 6  12.65662424702470 -0.63362184058406 -0.55955383258326
 6  13.81787819501950 -0.17868057115712  0.28567493009301
 6  15.09820164126413 -0.30075311111111 -0.43012684848485
 6  15.57817514511451 -1.66703086498650 -0.76007574307431
 6  16.27904050125013  0.41899281048105  0.38806207060706
 6  17.61664850355035  0.52246798069807 -0.27904241204120
 6  18.54505435643564  1.60638925792579  0.46226491939194
 6  19.98608850475047  1.75300092539254  0.04842760316032
 6  20.10531146064607  2.42231166236624 -1.27570397939794
 6  20.80758122372237  2.54063779987999  1.02027842854285
 1 -3.97867603520352  3.25003138743874  1.61890412871287
 1 -9.81764934993499  4.24042347884788 -0.30090876477648
 1 -10.52627096699670 -2.04630064006401 -1.32184207810781
 1 -2.81458751025102 -1.26672703680368  2.17462925762576
 1 -2.38019858745875  1.57666761786179  1.40981047944795
 1 -2.31051856775678  0.16443386508651  3.87733445874587
 1 -3.06782008230823  1.86818146174617  3.54289339053905
 1 -3.76903748314832  0.14328503080308  3.71967081278128
 1 -2.20875032893289 -2.10130400810081 -0.21954881118112
 1 -2.57334327292729 -0.30816334203420 -0.75223388408841
 1 -0.45760008340834  0.22256638253825  0.86457248774877
 1 -0.36673968686869 -1.32108128812881  1.25789290829083
 1 -4.39906456385639  6.24954309190919  0.70038317631763
 1 -5.66806802560256  6.71934705340534  1.83960955795580
 1 -4.49990176717672  5.19319916931693  2.43086414701470
 1 -7.98179827872787  7.08001503520352  1.09691099739974
 1 -9.23602899569957  6.15836382188219 -1.67374677067707
 1 -9.35242952215222  7.70343562886289 -0.60544024812481
 1 -12.32642719011901  3.28853935243524 -0.07658005660566
 1 -11.94973389568957  3.95736070077008 -1.91420863836384
 1 -13.25609300930093  2.65686130433043 -1.64722776967697
 1 -12.59927475337534 -1.29361948824883 -1.19838441224122
 1 -13.38959970227023  0.35851551295130 -1.27771144844484
 1 -12.61855637063706  0.41301831693169 -3.83551239463946
 1 -11.97280348804881 -1.04415381178118 -3.34897569426943
 1 -13.45979405260526 -1.13965132323232 -3.11814567326733
 1 -9.78816636343634 -4.61205329722972 -0.06090189408941
 1 -9.73174508470847 -4.31063807730773 -1.97496801740174
 1 -8.51920362586259 -5.43097387728773 -1.11213586708671
 1 -3.67300302760276 -3.60822817411741 -0.24986804660466
 1 -2.09788665666567 -6.48268487218722  2.23331903590359
 1 -2.17833440514051 -4.79185892489249  3.05543999429943
 1 -3.46419747514752 -6.06576357635763  3.25699721992199
 1  2.50393218501850 -2.16799354045405 -1.36048318161816
 1  2.41447329022902 -0.70329176717672 -1.99560718001800
 1  4.14913634953495 -1.16003407390739  0.58488753315331
 1  4.83203846834683  1.88534623242324 -2.32499508690869
 1  5.43817078087809  0.31930788598860 -2.99890295739574
 1  3.55830231543154  0.83649645554555 -2.43419877677768
 1  6.48630872797280  1.20209335323532 -0.02978817921792
 1  5.99660748654865  0.07024143884388  0.87461715581558
 1  7.41388204130413 -1.27185123052305 -1.13638848494849
 1  7.61077082818282  0.18389389398940 -1.93294215191519
 1  8.94491893349335  1.19784763626363 -0.17004574607461
 1  8.64932766266627 -0.20527761476148  0.95184803770377
 1  10.15945281058106 -0.52739254095410 -1.95151587448745
 1  8.91529871747175 -2.51808047084708 -1.01790101560156
 1  10.71650851185118 -2.87766944334433 -0.72297804340434
 1  9.46196463826383 -2.61429330683068  0.59680615911591
 1  11.37152134223422  1.11062868666867 -0.07164370177018
 1  11.05100266966697 -0.16608509400940  1.18939946164617
 1  12.55635214321432 -1.80415429442944 -0.70128357115712
 1  12.78418873547355 -0.24604187708771 -1.65104842334233
 1  13.76718775427543  0.83236363216322  0.24325950005001
 1  13.61786662216222 -0.65566852085209  1.24558413461346
 1  14.95317681508151  0.14552775257526 -1.37002365216522
 1  14.64955035003501 -2.08400668446845 -1.19893391389139
 1  16.38852558885889 -1.56876271577158 -1.66823821642164
 1  15.66407912551255 -2.23066268486849  0.21546424772477
 1  15.87675486708671  1.41264435313531  0.82379622322232
 1  16.50307663036304 -0.25650184108411  1.29285128192819
 1  18.32742882018202 -0.39827830643064 -0.37903258795880
 1  17.37802052745275  0.79477244034403 -1.17880518511851
 1  18.12126383228323  2.64646337403740  0.35191168616862
 1  18.35696871107111  1.23439227602760  1.64573582918292
 1  20.19368759855986  0.81190192389239 -0.21646870977098
 1  19.50451314851485  3.15971810391039 -1.40278525272527
 1  21.21638015521552  2.57563316711671 -1.62613793719372
 1  19.87874611041104  1.59310934753475 -2.12144732593259
 1  20.78813382648265  1.91737128742874  1.95611953975398
 1  21.79005284698470  2.79869798639864  0.41577347714771
 1  20.53904156685669  3.59610928142814  1.34153675807581
 1 -6.95541932443244  1.70342461446145  0.42720597739774
 1 -7.61063242984298 -0.31530640624062 -0.03508682888289

