%nproc=4
%Mem=2GB
# td=(NStates=1) B3LYP/SVP 

TD

0 1
 6 -5.10473332383238 -1.89201900790079  0.45753437853785
 6 -4.82418857705771  2.77747797679768  1.55038171427143
 6 -9.42938218181818  3.39286548284828 -0.31931654785479
 6 -9.80457230833083 -1.38845043964396 -0.98868501390139
 7 -5.21055780378038  0.44233069416942  0.82357981598160
 6 -4.51938003560356 -0.68996798039804  0.89381546714671
 6 -3.09147090079008 -0.50914139763976  1.44846809620962
 6 -3.11440559295930  0.88419353695370  1.93688819421942
 6 -4.50341529962996  1.40757780318032  1.49402131353135
 6 -2.96295279317932  1.17639594059406  3.45211506950695
 6 -2.14600994379438 -0.76009102320232  0.29104571227123
 6 -0.68402679077908 -0.67519637443744  0.65497326242624
 6  0.36005051095109 -1.04614153145315 -0.43689954715472
 8  0.03092282818282 -1.61224091399140 -1.42711516611661
 8  1.59297437263726 -0.78637505600560 -0.03452844484448
 7 -7.16481966296630  2.82323706560656  0.58790938493849
 6 -6.00239442044204  3.47801453395340  1.10552467786779
 6 -6.35346661916192  4.85527361116112  1.11916346804680
 6 -7.53475654015402  5.00953227622762  0.52047727782778
 6 -8.09499494989499  3.71465006390639  0.25408674497450
 6 -5.23796295269527  5.75427921032103  1.58868487238724
 6 -8.12235882408241  6.28949866756676  0.37938299259926
 6 -9.11926944974497  6.73105239583958 -0.46731534783478
 7 -9.13903730303030  0.95775425002500 -0.37583455885589
 6 -9.88790056745675  2.09285258695870 -0.55588439913991
 6 -11.27368360636064  1.82716635613561 -0.98237230853085
 6 -11.35808124862486  0.45243928532853 -1.27658772037204
 6 -10.06227293569357 -0.11703875327533 -0.91406488688869
 6 -12.29310350755076  2.93800636973697 -1.25922035113511
 6 -12.51440153755376 -0.26959605800580 -1.83494572957296
 6 -12.38748321792179 -0.39368401480148 -3.38525570997100
 7 -7.48945207090709 -1.27958227272727 -0.10192653775378
 6 -8.52172815831583 -1.97817443164316 -0.65999292769277
 6 -8.07054066126613 -3.36856145764576 -0.69453319181918
 6 -6.72431445964596 -3.41861774607461 -0.30300240554055
 6 -6.42695123472347 -2.04817661676168  0.08823097719772
 6 -8.84963894899490 -4.56499989999000 -1.20551305810581
 6 -5.61479760126013 -4.22869809670967  0.00415308490849
 8 -5.47441929802980 -5.44843135183518 -0.24386746634663
 6 -4.45558116271627 -3.28906601930193  0.35958120772077
 6 -3.78186060086009 -3.76295999119912  1.63428531383138
 8 -4.06330894259426 -3.30839179507951  2.73870433443344
 8 -3.06675919161916 -4.92709299059906  1.51739748274827
 6 -2.62390592089209 -5.63819472477248  2.74003047334733
 6  2.55465550895090 -1.24416310691069 -1.06741094639464
 6  3.93139724952495 -0.80862548594859 -0.46366297949795
 6  4.93642594279428 -0.09583053545355 -1.11057646224622
 6  4.79776028622862  0.39873371507151 -2.52161470047005
 6  6.22866657875788  0.11903453175318 -0.33029449254925
 6  7.42618684588459 -0.52729206230623 -0.98759611301130
 6  8.68092156915692 -0.16522172907291 -0.27976285618562
 6  10.03829568426843 -0.78928341094109 -0.87987896779678
 6  10.11628542194219 -2.31588675447545 -0.97246136083608
 6  11.21893256785678 -0.20771044164416 -0.04654712271227
 6  12.58454703930393 -0.52658113651365 -0.63877175437544
 6  13.71972838003800  0.07960525742574  0.10758712131213
 6  15.15871769286929 -0.18884191999200 -0.44856869266927
 6  15.53808113571357 -1.65922008390839 -0.37154689018902
 6  16.20323292049205  0.83693460466047  0.32405566996700
 6  17.64140097879788  0.75935166906691 -0.21704621242124
 6  18.70081993299330  1.54810342934293  0.61595028792879
 6  20.16269616551655  1.65864148944894  0.03640640104010
 6  20.29147007650765  2.27930736193619 -1.24913132213221
 6  21.08506897249725  2.22106584268427  1.13673007370737
 1 -4.03027119471947  3.35538192249225  1.80774301260126
 1 -10.04937252225223  4.23034247074708 -0.37987666156616
 1 -10.46460480038004 -2.15088109810981 -1.24294418831883
 1 -2.95192124362436 -1.35208557265727  2.36108790349035
 1 -2.29998056565657  1.42004195529553  1.43847334573457
 1 -1.98908642454245  0.77191461316132  3.89314603990399
 1 -2.88999229952995  2.32791743534353  3.91070017121712
 1 -3.89736031543154  0.69612031433143  3.88134698039804
 1 -2.38263771767177 -1.65984986268627 -0.25089194549455
 1 -2.41298723732373 -0.05873839953995 -0.57820648134813
 1 -0.53005732913291  0.25693981988199  1.04859088958896
 1 -0.37002001490149 -1.33999317931793  1.35043216221622
 1 -3.99188384578458  5.50322846044604  1.39989312731273
 1 -5.54101532033203  6.85642076077608  1.41395699269927
 1 -5.28775055205521  5.80006985638564  2.76566762736274
 1 -7.62052215111511  6.88272530623062  1.26686799309931
 1 -9.47988338113811  6.03036102160216 -1.26883627962796
 1 -9.22674695389539  8.05475076037604 -0.57875757985799
 1 -12.36495104250425  3.78493899239924 -0.42781518011801
 1 -11.89884880718072  3.54962992769277 -2.04513173067307
 1 -13.27740514051405  2.55187080528053 -1.59167221412141
 1 -12.56410123602360 -1.13645377167717 -1.32652722652265
 1 -13.29666040834083  0.33015267666767 -1.84500817811781
 1 -12.29946446144614  0.80425744084408 -3.77758660206021
 1 -11.37442365006501 -0.85934533093309 -3.75255605230523
 1 -13.23389146234624 -0.75738309640964 -3.94388824752475
 1 -9.64971251805181 -4.68932102400240 -0.71066687058706
 1 -9.03349525972597 -4.50170718421842 -2.19661018161816
 1 -8.42907461296130 -5.54411519141914 -1.17577223072307
 1 -3.54389011631163 -3.28486583788379 -0.31282434223422
 1 -1.96176304430443 -6.48878548224823  2.26307201120112
 1 -2.28068464016402 -5.03565330433043  3.41605605590559
 1 -3.44405546094609 -6.27596459645965  3.26290781098110
 1  2.47983977577758 -2.41949869096910 -0.95884301760176
 1  2.54339618251825 -1.04009544754475 -2.26985460476048
 1  4.14661609750975 -1.27211528202820  0.51413045744574
 1  5.49750501500150  1.42731042884288 -2.78409099649965
 1  5.49512647644764 -0.27991203600360 -3.13817688478848
 1  3.76796328152815  0.41303410931093 -2.87225258215822
 1  6.42995309240924  1.26335947984799 -0.55585078547855
 1  6.16792461826183 -0.09854543984398  0.70802049614962
 1  7.42944359745975 -1.58475252065207 -0.71601644774477
 1  7.36971672277228 -0.41965646104610 -2.06173503120312
 1  8.89581402300230  0.91161901340134 -0.05510425192519
 1  8.47639036893689 -0.52081916891689  0.76792964586459
 1  10.15352221752175 -0.23754355605561 -1.68105882878288
 1  9.30256744434443 -2.81353001580158 -1.61594081958196
 1  11.18429529052905 -2.74584626102610 -1.34780052565257
 1  9.80061850365037 -2.75854773227323 -0.02029555105511
 1  11.19979416951695  0.94492211601160  0.14017748034803
 1  11.02887045644565 -0.66425491099110  1.03769429112911
 1  12.88815532353235 -1.70828470747075 -0.57606104890489
 1  12.57239755635564 -0.32834010691069 -1.75356867536754
 1  13.50592162766277  1.25429582538254  0.14709988408841
 1  13.63400823632363 -0.09911286528653  1.18422799899990
 1  15.12294379177918  0.01050425022502 -1.43537018681868
 1  15.01392678767877 -2.10110839463946 -1.28842286278628
 1  16.67491422772277 -1.97294313381338 -0.43291468406841
 1  15.34083680128013 -2.18225784438444  0.58730143144314
 1  15.90913810541054  1.90415350405040  0.27843168676868
 1  16.05231155385539  0.61445525462546  1.31827382418242
 1  17.99699577687769 -0.31413989258926 -0.42581726642664
 1  17.54269699509951  1.23575653875388 -1.22537984258426
 1  18.10484219011901  2.45429415711571  0.75236173117312
 1  18.79986300050005  1.35669450625062  1.61133238883888
 1  20.56543477327733  0.51816254995500 -0.36554361726173
 1  19.62025472267227  3.36931906400640 -1.44583955815582
 1  21.25074359155915  2.42529813361336 -1.61496682008201
 1  19.64498273407341  1.73548358495850 -2.05307048824883
 1  21.17885289838984  1.35770532083208  2.01110503830383
 1  22.10399424112411  2.30263838043804  0.50235213501350
 1  20.91426908960896  3.48157782828283  1.54622722712271
 1 -7.18222200470047  1.77062133413341  0.41318457525753
 1 -7.46339770637064 -0.36508138373837 -0.05500882108211

