%nproc=4
%Mem=2GB
# td=(NStates=1) B3LYP/SVP 

TD

0 1
 6 -5.13798664916492 -1.85311511751175  0.47868649374938
 6 -4.64995115331533  2.80617084608461  1.43427010311031
 6 -9.34168341194119  3.32707890419042 -0.21234585078508
 6 -9.90803265436544 -1.38745033963396 -1.07081322672267
 7 -5.14846159415942  0.52682914401440  0.80081753975398
 6 -4.49611770937094 -0.69033801740174  0.83845993159316
 6 -3.00809256295630 -0.54559504300430  1.32609585898590
 6 -3.00618477087709  0.89924504210421  1.84740924632463
 6 -4.30700565866587  1.50576762216222  1.30829274067407
 6 -2.95829232713271  0.98846714771477  3.30805066306631
 6 -2.06225156795680 -0.79133414751475  0.03823043074307
 6 -0.59587797589759 -0.85797465226523  0.49346711181118
 6  0.36507101300130 -1.03156007330733 -0.68466432363236
 8  0.00898063396340 -1.25078476837684 -1.83388584318432
 8  1.67960303550355 -1.11142756125613 -0.33990898289829
 7 -6.96484966596660  2.72077681958196  0.50629122312231
 6 -5.89600378137814  3.36464319681968  0.96540066546655
 6 -6.22031330383038  4.79114719851985  1.13638519021902
 6 -7.43067613211321  4.98966028902890  0.62957818791879
 6 -8.03451890229023  3.65224382328233  0.26862819911991
 6 -5.25141429782978  5.79998378077808  1.60334633853385
 6 -8.07985457365736  6.26477619531953  0.41112616691669
 6 -9.22979050185019  6.65419471007101 -0.27707632393239
 7 -9.22255565486549  0.90293876847685 -0.54375135053505
 6 -9.96858863626363  2.13205650735073 -0.53138194889489
 6 -11.25975221322132  1.90093373287329 -1.03005707700770
 6 -11.39681512201220  0.55023906530653 -1.19968002960296
 6 -10.09837654605461 -0.00556760616062 -0.84349783018302
 6 -12.32549674687469  2.98355092419242 -1.37966239533953
 6 -12.61310140754075 -0.20107920632063 -1.64036627162716
 6 -12.66344081368137 -0.62429707610761 -3.13866105050505
 7 -7.52867599329933 -1.15900021452145 -0.32836918201820
 6 -8.55104108960896 -1.99079569376938 -0.63309023742374
 6 -8.19236284348435 -3.41211581308131 -0.63767750625062
 6 -6.89711173937394 -3.32867875217522 -0.16943904920492
 6 -6.47052559215922 -2.03166496559656  0.02987514161416
 6 -9.04118810391039 -4.52114551455146 -1.20979348614861
 6 -5.71889801130113 -4.23848907580758  0.10345301490149
 8 -5.60226208230823 -5.47763427212721  0.15399231963196
 6 -4.50620622522252 -3.25012212491249  0.54092934253425
 6 -3.89195160996100 -3.73198689388939  1.88419030433043
 8 -4.20779339103910 -3.29428038393839  2.92004246824682
 8 -2.99079159485949 -4.69279956125613  1.67515325832583
 6 -2.69603313361336 -5.38477938323832  2.85102157245725
 6  2.70548059145915 -1.27897658825883 -1.23173737903790
 6  3.96198030783078 -0.92485710911091 -0.51100771397140
 6  4.95099739993999 -0.10640159255926 -0.99116452105211
 6  4.77874838503850  0.73460730243024 -2.27117965696570
 6  6.30898461056106 -0.11119849154915 -0.28237970107011
 6  7.60414464166417 -0.69903923702370 -1.10897825122512
 6  8.82780625762576 -0.44557976487649 -0.23800868076808
 6  10.06384823952395 -0.91341582418242 -1.00231121102110
 6  10.14341813521352 -2.39432459825983 -1.24762887758776
 6  11.34871554615462 -0.45479515011501 -0.11153362136214
 6  12.70201878647865 -0.59557803620362 -0.69180705790579
 6  13.81428783598360 -0.18166086918692  0.18226458905891
 6  15.21832365346535 -0.14710774657466 -0.54970880668067
 6  15.65745307290729 -1.57413157505751 -0.71043077857786
 6  16.25978857605761  0.64419533073307  0.47950121452145
 6  17.70716755545554  0.87524325822582 -0.22995750355036
 6  18.49581943294329  1.68809742874287  0.74586327922792
 6  19.99635953185318  1.81491711701170  0.28698145854585
 6  20.11968289778978  2.65362479367937 -1.07706411541154
 6  20.78846931253126  2.45662939903990  1.42226862756276
 1 -4.08731689928993  3.53397978227823  1.93595583388339
 1 -9.82113969896990  4.18423786028603 -0.15421409530953
 1 -10.72989132903290 -2.12976898689869 -1.49285917981798
 1 -2.85049110061006 -1.17800816491649  2.22164395909591
 1 -1.97227779537954  1.38824877597760  1.65390488888889
 1 -2.07103461936194  0.65988341004100  3.76784350965097
 1 -2.91847514781478  2.10337498109811  3.66580568176818
 1 -3.71158173757376  0.19021972427243  3.53529237493749
 1 -2.29769922382238 -1.70308418611861 -0.44859171547155
 1 -2.15305124372437 -0.07669019471947 -0.68657731843184
 1 -0.28102242564256  0.08959308520852  1.16019204970497
 1 -0.32120513341334 -1.80444962496250  0.98363548254825
 1 -4.19573423082308  5.77367550515052  1.07584072207221
 1 -5.56408762756276  6.78020313901390  1.30942653965397
 1 -5.19932170917092  5.54622447184719  2.78289935053505
 1 -7.59766986588659  7.07118415211521  0.89727103340334
 1 -9.53395878867887  5.99412739823982 -1.18644804080408
 1 -9.56416069526953  7.59576486178618 -0.40528023212321
 1 -12.48344289168917  3.57927842634263 -0.45568796739674
 1 -11.87426634893489  3.86416138083808 -2.04682189968997
 1 -13.26400380038004  2.67925354355436 -1.94275732263226
 1 -12.58508333423342 -1.08030815711571 -0.88057263106311
 1 -13.51043178547855  0.35771543294329 -1.48456213351335
 1 -12.79277379237924  0.28971598669867 -3.81313015641564
 1 -11.79693590129013 -1.05972536893689 -3.48639943664366
 1 -13.46753482668267 -1.33027038513851 -3.59620347904790
 1 -10.30607815461546 -4.51588368026803 -0.86195199909991
 1 -8.85669757995800 -4.35516252975297 -2.31413193379338
 1 -8.44654636013601 -5.41539231913191 -0.88589324282428
 1 -3.63282901020102 -3.37200455175518 -0.25518857865787
 1 -1.69803667166717 -6.07169377307731  2.46868257225723
 1 -2.14973154485449 -4.66253599259926  3.62855730603060
 1 -3.49424047944795 -6.04107110711071  3.20770229042904
 1  2.57550934273427 -2.49993673477348 -1.69473660696070
 1  2.36621846474647 -0.79320075807581 -2.16378399769977
 1  4.32511394729473 -1.47928599909991  0.37532657705771
 1  5.15425068956896  1.70317801560156 -1.96300888828883
 1  5.60723768756876  0.49455541074107 -2.87212027912791
 1  3.68415490069007  0.84227703360336 -3.05507086398640
 1  6.47102719981998  0.96191933583358  0.11999679927993
 1  6.17148497429743 -0.75434101940194  0.66562625672567
 1  7.40989164226423 -1.82762680808081 -1.25582042814281
 1  7.73159291039104 -0.42740723612361 -2.12167102480248
 1  9.05637007860786  0.65231308280828 -0.01655039653965
 1  8.75850858075808 -1.02508959595960  0.69280213311331
 1  10.14385125042504 -0.24697449914992 -1.75049577247725
 1  9.25606279387939 -2.55054371717172 -1.83687291279128
 1  10.98772563356336 -2.55337701410141 -1.81195694129413
 1  9.90938938073807 -3.22464434193419 -0.29444296579658
 1  11.26180037013701  0.62583020682068  0.23535699829983
 1  11.35609317871787 -1.04719320482048  0.98714923662366
 1  12.98352486048605 -1.55836971597160 -0.99832327512751
 1  12.72422273887389 -0.19354662756276 -1.69017233573357
 1  13.34457549304930  0.81549194499450  0.54847002110211
 1  13.98094292979298 -0.74589754375438  1.07952752895290
 1  15.17717921532153  0.62097529732973 -1.57607425722572
 1  14.83849924492449 -2.04833311711171 -1.20647466796680
 1  16.60329706600660 -1.63253909340934 -1.18783017561756
 1  15.72639535713571 -1.94903452205220  0.28968166946695
 1  16.07714490609061  1.53695678437844  0.84335817941794
 1  16.49516583928393 -0.06399259015902  1.41674367116712
 1  18.00473655095509 -0.23936241484148 -0.76590127482748
 1  17.50981370677068  1.46523948704870 -1.14078138273827
 1  17.98514021992199  2.65018374607461  0.65009150415042
 1  18.34695770997100  1.12830166696670  1.80622187778778
 1  20.35559378917892  0.81620235393539 -0.23938100100010
 1  19.58255095229523  3.74113624572457 -0.77260223442344
 1  21.16483500070007  2.64873047684769 -1.35690101350135
 1  19.43851208700870  2.19980001660166 -1.86157133833383
 1  20.93516852995300  1.68499805010501  2.27204113191319
 1  21.83055689738974  2.74917303390339  1.17809970977098
 1  20.22789045174517  3.38423809430943  1.82713531793179
 1 -7.05667945044504  1.70024429642964  0.25726898369837
 1 -7.40125149174917 -0.14752962856286 -0.29550287048705

