%nproc=4
%Mem=2GB
# td=(NStates=1) B3LYP/SVP 

TD

0 1
 6 -5.24711756225623 -1.94864467046705  0.47548617371737
 6 -4.76850300850085  2.75925615461546  1.52589926602660
 6 -9.31559080268027  3.45386158245825 -0.17997261346135
 6 -9.82041389248925 -1.32472406700670 -0.92143828922892
 7 -5.30120686868687  0.42676913801380  0.87487494549455
 6 -4.58924702230223 -0.74658364196420  0.82603868946895
 6 -3.18180993469347 -0.64174465796580  1.23725697509751
 6 -3.12812696509651  0.81956707430743  1.89534403980398
 6 -4.47053201130113  1.37780482588259  1.39072098349835
 6 -3.04217071497150  0.71084938593859  3.48017787578758
 6 -2.13173851665166 -0.75763077717772  0.15104171187119
 6 -0.76369475757576 -0.84877373217322  0.65460322542254
 6  0.30510501640164 -1.12027894519452 -0.45906176337634
 8  0.12356209210921 -1.62267195709571 -1.53124557915792
 8  1.61076615181518 -0.89864628312831 -0.07024201620162
 7 -7.10105328632863  2.77196193809381  0.53204379837984
 6 -5.92825700670067  3.38820555305531  1.04380850625063
 6 -6.16435770827083  4.73946203000300  0.92650420212021
 6 -7.41582464696470  5.02346366936694  0.49191442154215
 6 -8.00348579897990  3.70237883678368  0.14426576287629
 6 -5.11204036043604  5.78944272667267  1.53973997789779
 6 -7.98355494369437  6.34793451115111  0.30667572187219
 6 -8.89258678147815  6.77039633023302 -0.57494611091109
 7 -9.16934033333333  0.91808028262826 -0.48536551195120
 6 -9.83407518491849  2.11553485518552 -0.49901871257126
 6 -11.20509674767477  1.94155779527953 -0.91936600790079
 6 -11.41489693019302  0.56992103350335 -1.11032109370937
 6 -10.08830553895390  0.03892684328433 -0.80833431383138
 6 -12.24894909210921  2.98719128822882 -1.04092852195220
 6 -12.61108120552055 -0.16833593199320 -1.65717795279528
 6 -12.51280575017502 -0.28982362876288 -3.15665284968497
 7 -7.59188231393139 -1.30043435793579 -0.34252059715972
 6 -8.62136812231223 -2.00392700690069 -0.74767169556956
 6 -8.19107271447145 -3.42833743524352 -0.81798553705371
 6 -6.95206723492349 -3.49582546684668 -0.24532663796380
 6 -6.52979151875187 -2.06538833793379  0.02490464456446
 6 -9.10656464156416 -4.57631103110311 -1.26340884768477
 6 -5.72019814131413 -4.25629085598560 -0.10749808020802
 8 -5.70781263736374 -5.48066457515752 -0.05562864246425
 6 -4.55540114471447 -3.31447856055606  0.49854510411041
 6 -4.08566098089809 -3.88366206140614  1.75528741404140
 8 -4.26903951565157 -3.38057901380138  2.80020048404840
 8 -3.25593810951095 -4.86351663296330  1.57168291129113
 6 -2.52911644194419 -5.54694559985999  2.71482795309531
 6  2.53235327872787 -1.17907659825983 -1.10344454975498
 6  3.83334744454445 -0.67311193459346 -0.64220083328333
 6  4.90941324152415 -0.07483843624362 -1.24471987658766
 6  4.80865137533753  0.42720656235624 -2.62044458345835
 6  6.22484619671967  0.16356898519852 -0.52716417951795
 6  7.56931115831583 -0.40941027412741 -1.21849920332033
 6  8.81516499349935 -0.30085529242924 -0.16772165206521
 6  10.21053290799080 -0.77797227982798 -0.77499847974797
 6  10.12023581698170 -2.33998916471647 -0.93860797549755
 6  11.38675935053505 -0.25845551615162  0.14471200320032
 6  12.70986957155716 -0.59316779517952 -0.51304918211821
 6  13.89589599679968  0.01040833773377  0.30869723232323
 6  15.34541636273627 -0.06371940774077 -0.25673950975097
 6  15.74163149074908 -1.56303046494649 -0.42004173967397
 6  16.39029162636264  0.77553846504650  0.53639690409041
 6  17.73925076377638  0.82283801770177 -0.09530403820382
 6  18.77102695369537  1.78137675667567  0.54389308220822
 6  20.22489238513851  1.67764338963896  0.04333709410941
 6  20.20253118261826  2.23630306150615 -1.36673308230823
 6  21.03478394399440  2.59068280438044  0.96407280798080
 1 -3.99145731333133  3.45331171547155  1.82534477277728
 1 -10.18323590859086  4.24738417491749 -0.04441311521152
 1 -10.58820716061606 -1.92464847484748 -1.34121401530153
 1 -2.94245029652965 -1.22742310641064  2.02561435613561
 1 -2.24767533513351  1.59519947104711  1.56858635703570
 1 -2.04170168606861  0.11731915361536  3.82959968526853
 1 -2.95830913121312  1.68762340594059  3.92502160336034
 1 -3.93328390779078  0.33356405870587  3.71477032273227
 1 -2.37111656555656 -1.89146302400240 -0.34484134043404
 1 -2.38447438603860 -0.12105463116312 -0.71261992269227
 1 -0.24492881628163  0.16254037993799  1.04328035853585
 1 -0.64142715561556 -1.57339651965197  1.54894201320132
 1 -4.35506016341634  5.99197733533353  0.78920205820582
 1 -5.58638985778578  6.77621273997400  1.85733133013301
 1 -4.38233001000100  5.27895774517452  2.34046510711071
 1 -7.55773587248725  6.97448448214822  1.07105841214121
 1 -9.54877026982698  6.16997498299830 -1.13202259825983
 1 -9.13685796499650  7.85701098639864 -0.44595429952995
 1 -12.17110165756576  3.78746924542454 -0.17540993959396
 1 -12.20128905120512  3.80170513521352 -1.91414863236324
 1 -13.24009140914092  2.46734235243524 -1.16206925382538
 1 -12.35534035993599 -1.15737586388639 -1.08162273607361
 1 -13.44413515581558  0.46334599599960 -1.37038071537154
 1 -12.36261077607761  0.60572758785879 -3.73374221762176
 1 -11.71872808050805 -1.03657305370537 -3.38074887158716
 1 -13.53105117831783 -0.71932929102910 -3.58469232793279
 1 -10.04131167796780 -4.62390448234823 -0.64865066896690
 1 -9.46871878207821 -4.39089610311031 -2.13556407700770
 1 -8.53706541204120 -5.51322210211021 -1.46439109260926
 1 -3.65432115941594 -3.74703205450545 -0.18927198699870
 1 -1.72090895889589 -6.11916852055206  2.30607631163116
 1 -2.15320189188919 -4.75982572157216  3.40881533183318
 1 -3.31954300970097 -6.14744174417442  3.15960748094810
 1  2.32102389418942 -2.25121186228623 -1.21671880518052
 1  2.32761460436044 -0.61779321732173 -2.18416603590359
 1  4.20364180008001 -0.92128019851985  0.43108215261526
 1  5.11498676317632  1.51295899369937 -2.49325191259126
 1  5.54990195399540 -0.13165721052105 -3.46948001510151
 1  3.74998148334834  0.26458926482648 -2.97007236413641
 1  6.31089118621862  1.20292343624362 -0.11950715111511
 1  6.27479530533053 -0.22976856215622  0.50534022812281
 1  7.30462111521152 -1.33822786818682 -1.57218206430643
 1  7.98919867096710  0.20537604220422 -2.17387624532453
 1  9.22759720132013  0.74673252475248  0.01916317481748
 1  8.62793552345235 -0.71825891289129  0.94753760666067
 1  10.27677454275427 -0.24112391409141 -1.63105382828283
 1  9.25766295389539 -2.78070673347335 -1.68217744324432
 1  11.08039490049005 -2.56262793919392 -1.39835558115812
 1  9.95119356115612 -2.64884676217622  0.12175865436544
 1  11.41896608670867  0.83878150195019  0.15105856845685
 1  11.42747031643164 -0.78361684718472  1.12426294799480
 1  12.94296080408041 -1.65632951195120 -0.89357280008001
 1  12.59096941354135 -0.12186945984598 -1.51766508500850
 1  13.49847088258826  1.10769116491649  0.44336951105110
 1  13.80661549704971 -0.61217417141714  1.18120769696970
 1  15.37589908730873  0.48212141194119 -1.14760140994099
 1  14.79621501650165 -2.10576886068607 -0.84624864536454
 1  16.40945768206821 -1.84601044054405 -1.21939333193319
 1  16.12994571217122 -2.04299391799180  0.42580528182818
 1  15.93790098169817  1.71358444714471  0.51798564216422
 1  16.38204452715271  0.43273708280828  1.46838883568357
 1  18.18790486778678 -0.11851032963296 -0.05961064576458
 1  17.70598332373237  0.88372133523352 -1.15493279787979
 1  18.29911161706171  2.74595332303230  0.65141163616362
 1  18.52513552775278  1.37275611241124  1.63355461106111
 1  20.36491472127213  0.51185191889189  0.24317725482548
 1  19.62569526672667  3.31238337043704 -1.23629860406041
 1  21.29181769896990  2.31634723852385 -1.77740306370637
 1  19.47465570137014  1.45630566716672 -1.71723690489049
 1  21.21068608170817  2.19215876617662  1.99585351315132
 1  21.99441328302830  2.76223434003400  0.58862076187619
 1  20.78940660336034  3.64725439593959  1.12255485988599
 1 -7.01250503300330  1.78239251125112  0.51256451325133
 1 -7.69976134273427 -0.26418129372937 -0.39468278847885

