%nproc=4
%Mem=2GB
# td=(NStates=1) B3LYP/SVP 

TD

0 1
 6 -5.17743059355936 -1.92533233923392  0.36382500760076
 6 -4.62659881808181  2.67265749474947  1.49285596169617
 6 -9.16218546214621  3.25762195849585 -0.30372498869887
 6 -9.83086493759376 -1.38158975357536 -1.07099324472447
 7 -5.14325107310731  0.39757621872187  0.90120757875788
 6 -4.49571766936694 -0.74328331193119  0.85136122172217
 6 -3.00120187388739 -0.65555603910391  1.33124637403740
 6 -3.04582873527353  0.75318043564356  1.97564206960696
 6 -4.28400335843584  1.32677972337234  1.29180109150915
 6 -2.96400289818982  0.85767406840684  3.50422028002800
 6 -2.06709205200520 -0.69592460656066  0.18908551625163
 6 -0.55597398549855 -0.72307116191619  0.67399516461646
 6  0.27904241014101 -1.15813273057306 -0.42557841504150
 8 -0.03384364846485 -1.52566225612561 -1.57512996759676
 8  1.59019409460946 -0.79107552605261 -0.16706169816982
 7 -6.98656183718372  2.71457619951995  0.56831742574257
 6 -5.83665784678468  3.31317805030503  0.97699182458246
 6 -6.06096736923692  4.75120320412041  1.05221677337734
 6 -7.32258532303230  4.94956627962796  0.55117034713471
 6 -7.93102855325533  3.58958755765577  0.22667400370037
 6 -4.99350850725073  5.74037782018202  1.43674967886789
 6 -7.97769435763576  6.27987770547055  0.57670272457246
 6 -8.98152567536754  6.75407469806981 -0.19090770707071
 7 -9.17989138843884  0.85891436603660 -0.44918189358936
 6 -9.82380415781578  2.07405070677068 -0.51234004470447
 6 -11.21752799079908  1.95961960146015 -1.04514858615862
 6 -11.30412585308531  0.61053509490949 -1.39017907950795
 6 -10.07291399979998 -0.04188123752375 -0.88802228262826
 6 -12.15439963716372  3.10762333143314 -1.51494592369237
 6 -12.50372046944694 -0.09874897329733 -1.91454368936894
 6 -12.38307277687769 -0.65974062046205 -3.39165635003500
 7 -7.53051617731773 -1.22238655315532 -0.24224056915692
 6 -8.63681966746675 -2.01787840204020 -0.68864579297930
 6 -8.24916852405240 -3.36730133163316 -0.64896863536354
 6 -6.89795182338234 -3.45289117341734 -0.18284038933893
 6 -6.55343388298830 -2.07851965106511 -0.03902174807481
 6 -9.08590257535753 -4.53319671967197 -1.17902040884088
 6 -5.72458858035804 -4.32199742664266  0.06262893249325
 8 -5.79484134023402 -5.48243475217522 -0.17127020662066
 6 -4.54660026462646 -3.40296740944094  0.52136738633863
 6 -3.98674108890889 -3.85226892209221  1.84600648594859
 8 -4.29354196589659 -3.26408736463646  2.87423788778878
 8 -3.23902641834183 -4.93031331263126  1.60031577457746
 6 -2.62178570887089 -5.48603950925092  2.80380685098510
 6  2.57475751915192 -1.13800249084908 -1.18811301660166
 6  4.00170428022802 -0.68096271967197 -0.55415202840284
 6  4.81424372457246  0.07258630623062 -1.02007741234123
 6  4.77168767896790  0.68520236193619 -2.48330086908691
 6  6.12115582768277  0.44160678897890 -0.26406786988699
 6  7.47200142734273 -0.27053638673867 -0.95137249064906
 6  8.65698917591759  0.01433622672267 -0.14693957385739
 6  10.04052590729073 -0.63288777137714 -0.74930591049105
 6  9.95329912331233 -2.24718988478848 -0.71233534823482
 6  11.32163283788379 -0.22510218081808 -0.01161362936294
 6  12.62028061266127 -0.74493297169717 -0.54624250145014
 6  13.76773318051805 -0.04213691679168  0.26059242184218
 6  15.26026784788479 -0.11418445424542 -0.38826266206621
 6  15.76493382098210 -1.66990115201520 -0.67301703720372
 6  16.26377897509751  0.62231314251425  0.46642990739074
 6  17.63681051975198  0.67687342124212 -0.19166367416742
 6  18.61154100510051  1.48327694669467  0.59540823372337
 6  19.98618851475148  1.69811543684368 -0.06560379998000
 6  19.95634656415642  2.53694312551255 -1.41552796179618
 6  20.87835830143014  2.31237497359736  0.94252065276528
 1 -3.89595776337634  3.27382376667667  1.94743698199820
 1 -10.03481106610661  4.09018845534553 -0.35139381328133
 1 -10.50429876977698 -2.22396840684068 -1.51074096799680
 1 -2.99349540104010 -1.44462482658266  2.14905670037004
 1 -2.00374094169417  1.37081703280328  1.64340383878388
 1 -2.07435495139514  0.63187060876088  3.87515424072407
 1 -3.38186148644865  2.00645528912891  3.71193029422942
 1 -3.61192177157716  0.22245294759476  4.12956180188019
 1 -2.15675512941294 -1.70884476217622 -0.19741659795980
 1 -2.16929286788679 -0.08466099179918 -0.68305696639664
 1 -0.26950127352735  0.40868499439944  1.03561959245925
 1 -0.47717072997300 -1.42964214421442  1.51228834783478
 1 -4.32552721012101  5.79765790339034  0.76988012601260
 1 -5.42314353315332  6.70339545824582  1.61983758075808
 1 -4.47745952295229  5.47885773517352  2.42879393999400
 1 -7.46242634153415  6.89801683538354  1.28700000630063
 1 -9.54985037783778  5.97362534803480 -0.91070046604660
 1 -9.37910218941894  7.69854513981398 -0.03093279737974
 1 -12.18736328372837  3.90677117561756 -0.75875827442744
 1 -11.74076299859986  3.52508747344734 -2.59776699419942
 1 -13.11721912191219  2.77597321552155 -1.67362040894089
 1 -12.68806363226323 -1.08942906920692 -1.19891446524652
 1 -13.28774951725173  0.56209587098710 -1.90056373367337
 1 -12.10028454345434  0.09605662076208 -4.14076291969197
 1 -11.54644085178518 -1.43230262666267 -3.38445924262426
 1 -13.32823089628963 -1.17793515161516 -3.75599945864586
 1 -10.10463801060106 -4.59656174807481 -0.74401020492049
 1 -9.19069097929793 -4.50039705320532 -2.42636315691569
 1 -8.61973367886789 -5.43229400930093 -0.89186383988399
 1 -3.54386011331133 -3.58525587688769 -0.10005306510651
 1 -1.87296416441644 -6.29438604230423  2.33133883788379
 1 -1.97683425512551 -4.75443518251825  3.33342779307931
 1 -3.44754580998100 -5.76656365636564  3.41899341954195
 1  2.51542333413341 -2.29696643774377 -1.32397953125313
 1  2.25460730363036 -0.46256769476948 -2.04666228552855
 1  4.29918135403540 -1.10368843934393  0.41666071047105
 1  4.87022228672867  1.76200389818982 -2.52174476187619
 1  5.64113107690769  0.11141709690969 -3.06971003810381
 1  3.90108659385939  0.58018082398240 -3.02292764966497
 1  6.17637773487349  1.56101924582458 -0.09964516491649
 1  6.05394322012201 -0.06870245554555  0.69606930103010
 1  7.06871752485249 -1.38025207060706 -0.96525137123712
 1  7.39035878697870  0.13921942654265 -1.97000585828583
 1  9.05268971057106  1.14338218971897 -0.27379612111211
 1  8.70513324322432 -0.34998208520852  1.03094594749475
 1  9.92250911621162 -0.38374817651765 -1.84695541844184
 1  9.38907609520952 -2.69975863866387 -1.47980720622062
 1  11.07102396339634 -2.78779045544554 -0.93904965056506
 1  9.79975841764176 -2.59101097859786  0.26957343584358
 1  11.37972216231623  0.81409903370337  0.17652111471147
 1  10.99032660206021 -0.54423290879088  1.02071259295930
 1  12.55523203120312 -1.77162104110411 -0.36733017581758
 1  12.78956927352735 -0.62967023992399 -1.69912323082308
 1  13.59051008650865  0.84798519431943  0.40951612571257
 1  13.83043787928793 -0.37160011401140  1.22348192439244
 1  15.37068856625663  0.48211141094109 -1.35734238403840
 1  14.81784717971797 -2.40894917871787 -1.02987700820082
 1  16.49454619091909 -1.81607744724472 -1.45502689528953
 1  15.89432214981498 -2.09866948554855  0.27643034433443
 1  16.00280747234724  1.65304839353935  0.53918776237624
 1  16.28567489018902  0.02336614571457  1.51778377517752
 1  18.06788286558656 -0.31334981358136 -0.09377406210621
 1  17.65361808720872  0.97669063216322 -1.37895520012001
 1  18.23064477037704  2.54584331203120  0.60908740374037
 1  18.77093010721072  1.03386222302230  1.50412166776678
 1  20.51179940974098  0.77470820452045 -0.49439650255025
 1  19.38496119331933  3.53571570367037 -1.30982595679568
 1  20.95807432463246  2.57432303610361 -1.98689401280128
 1  19.40647888368837  1.71555159175918 -2.17549273047305
 1  21.01836684978498  1.79619917021702  1.98837276507651
 1  21.91708555025502  2.37252536913691  0.45333723352335
 1  20.44983264596460  3.43263293379338  1.26229883428343
 1 -7.06547032953295  1.71702597459746  0.82020527732773
 1 -7.61390275687569 -0.18314318991899  0.14623130293029

