%nproc=4
%Mem=2GB
# td=(NStates=1) B3LYP/SVP 

TD

0 1
 6 -5.11337418791879 -1.90332013801380  0.52708133323332
 6 -4.76764292249225  2.79026925592559  1.42053872997300
 6 -9.33226246984698  3.28724492079208 -0.27964258045805
 6 -9.83662551365136 -1.48504009860986 -0.88682482788279
 7 -5.19414616261626  0.54679114021402  0.81021847984799
 6 -4.51545964356436 -0.67571655525553  0.80890697629763
 6 -2.96512826652665 -0.53348383188319  1.11064431383138
 6 -3.05906005840584  0.86421153875388  1.79186369176918
 6 -4.40175513361336  1.44276132153215  1.30554246564656
 6 -2.83597009490949  0.81648994999500  3.30369022702270
 6 -2.18962430523052 -0.53340835493549 -0.03527691999200
 6 -0.62521090919092 -0.66975583038304  0.30709847494749
 6  0.32754726062606 -0.84579149644964 -0.74083994119412
 8  0.00543027892789 -1.18489817971797 -1.86632908750875
 8  1.60749582478248 -0.53895031353135 -0.39002399439944
 7 -7.10869405040504  2.71833657555756  0.46451704570457
 6 -5.94702888388839  3.42086881938194  0.98712283768377
 6 -6.33658493099310  4.76872495629563  1.05065661736174
 6 -7.70413347784779  4.98352967596760  0.55488071817182
 6 -8.03024847524753  3.65851445034503  0.16155749204920
 6 -5.35597475387539  5.89093287568757  1.48960496439644
 6 -8.41146773497350  6.22415213291329  0.50762581688169
 6 -9.32198972177218  6.51318060866087 -0.46300491679168
 7 -9.25674907420742  0.78001647624762 -0.35226220162016
 6 -9.91895367276728  2.01448475017502 -0.52051086178618
 6 -11.33438967696770  1.80137377687769 -0.98259233053305
 6 -11.36522196269627  0.44076811821182 -1.08497855945595
 6 -10.16243295169517 -0.16154320372037 -0.82346582698270
 6 -12.30283448064806  2.96274884398440 -1.28642307140714
 6 -12.56388648604860 -0.30896999539954 -1.61491372637264
 6 -12.49263373297330 -0.57817246364636 -3.09400658505851
 7 -7.51693481918192 -1.29978429292929 -0.10749709480948
 6 -8.60273625912591 -2.11474808900890 -0.45978290669067
 6 -8.13441704890489 -3.50687528902890 -0.54321806030603
 6 -6.84307633583358 -3.43585947024703 -0.21651375667567
 6 -6.44152269186919 -2.06555835493549  0.07268942304230
 6 -9.03231721682168 -4.71395479547955 -0.92076458325833
 6 -5.66561268276828 -4.29279450635064  0.04490716031603
 8 -5.58714057015702 -5.50501701040104  0.04610153055306
 6 -4.54697030163016 -3.28005511821182  0.46034128372837
 6 -3.91004341914191 -3.77623131833183  1.80524240954095
 8 -4.19234184588459 -3.25753670957096  2.87311777577758
 8 -3.03945646134613 -4.79271955325533  1.62518826182618
 6 -2.68364189448945 -5.48136904220422  2.69310578087809
 6  2.62148219161916 -0.79324801540154 -1.34537874317432
 6  3.95587969776978 -0.60344496789679 -0.65850246344634
 6  4.95924822502250  0.19070811841184 -1.12510791539154
 6  4.86258676887689  0.95671951365137 -2.38942148114811
 6  6.33693740584058  0.32399502780278 -0.36149761286129
 6  7.65838006520652 -0.36925625872587 -1.03795114851485
 6  8.77268074507451 -0.14083929082908 -0.10471535143514
 6  10.12252410711071 -0.74043852645265 -0.79514049394940
 6  10.03013680708071 -2.24615978177818 -1.09885400010001
 6  11.37761843644364 -0.36159583018302  0.04414194619462
 6  12.76704528912891 -0.63582206060606 -0.66735461266127
 6  13.87553396059606 -0.10332303540354  0.22584894749475
 6  15.25722754385438 -0.16472950875088 -0.38916275207521
 6  15.74408173577358 -1.61143530543054 -0.59207894339434
 6  16.28711130833084  0.55811672287229  0.36852011641164
 6  17.71047788648865  0.54531026492649 -0.16002050985099
 6  18.72259211021102  1.49194781378138  0.65456414931493
 6  20.20547044294429  1.38042366766677  0.33202596299630
 6  20.38640957045705  1.97658708990899 -1.08798520752075
 6  20.93493395899590  2.16200993709371  1.30422682338234
 1 -4.07292546014602  3.52660904520452  2.08231046934694
 1 -10.17095468046805  4.03151258775878 -0.15726440034003
 1 -10.77561590149015 -2.01395740574057 -1.26798669256926
 1 -2.62139819131913 -1.29073943804380  1.80460225492549
 1 -2.13822439003900  1.42890284138414  1.30816031443144
 1 -1.84012152805281  0.45662308400840  3.39274599989999
 1 -2.95835913621362  1.86275091869187  4.05120422162216
 1 -3.45004558395840 -0.04956425412541  3.81850069576958
 1 -2.28391784568457 -1.51207508520852 -0.49988684498450
 1 -2.24958089668967  0.36435390969097 -0.75737439813981
 1 -0.38053237663766  0.31660578647865  0.86462249274928
 1 -0.44821783468347 -1.56834601460146  1.00590770977098
 1 -4.58191284868487  6.00833897149715  0.68873201120112
 1 -6.06682790159016  6.76593171187119  1.67980357735774
 1 -4.89378115511551  5.81354120352035  2.40789184978498
 1 -8.13976407530753  7.23637067076708  1.24866617291729
 1 -9.62165755855585  5.73316130163016 -1.27366676267627
 1 -9.80615489468947  7.41297658295830 -0.50846055015502
 1 -12.56901144854485  3.52053255175518 -0.30880327892789
 1 -11.88032695499550  3.53514847954795 -2.23374059155916
 1 -13.33670107010701  2.37012263046305 -1.54249729662966
 1 -12.53132795869587 -1.31242136843684 -1.12215678947895
 1 -13.55787652995300  0.15327498889889 -1.39381305860586
 1 -12.27678219321932  0.35517253235324 -3.94817366076608
 1 -11.81821802950295 -1.26270566696670 -3.41338213491349
 1 -13.59693776697670 -0.99442680078008 -3.48792265096510
 1 -9.55082262906291 -5.06136822872287  0.06538073417342
 1 -9.61469337953795 -4.25550256375638 -1.84174469506951
 1 -7.96428813431343 -5.38137891779178 -1.16249090259026
 1 -3.66917264456446 -3.59954730603060 -0.10493355315532
 1 -1.77913478147815 -6.04866146984698  2.22865856985699
 1 -2.14496106780678 -4.98587832683268  3.38202265256526
 1 -3.51497255265527 -6.19671667166717  3.04535605580558
 1  2.58714050585058 -1.88289503060306 -1.48932606590659
 1  2.46395823872387  0.00647920992099 -2.23879149844984
 1  4.21699313521352 -1.12087015751575  0.41455049944994
 1  5.17387265176518  2.13785148294830 -2.32354494189419
 1  5.60342730653065  0.46141209640964 -3.17229029612961
 1  3.87183366856686  1.21488429432943 -2.70039539643964
 1  6.50492058915892  1.39542268616862 -0.33038823922392
 1  6.29655748154815  0.02550696539654  0.60779047314731
 1  7.20868152125213 -1.36824086948695 -1.04646949304930
 1  7.94574432553255  0.18197370197020 -1.90347920562056
 1  8.85927036863686  0.91869972147215 -0.03681242274227
 1  8.68640137003700 -0.68614570157016  0.71022387528753
 1  10.18916578187819 -0.26985678737874 -1.96715743864386
 1  9.16111329892989 -2.55344400720072 -1.81194041954195
 1  10.80527738873887 -2.63374505090509 -1.52614836043604
 1  9.88226666846685 -2.70655253275328 -0.09443296479648
 1  11.36948113821382  0.75821344514451  0.12534599719972
 1  11.37471504090409 -1.05439392489249  0.95545606730673
 1  13.03881038903890 -1.61786566556656 -0.94163760656066
 1  12.80839115571557 -0.11552882578258 -1.50571388988899
 1  13.51034206970697  0.84934533033303  0.41581675577558
 1  13.98057289278928 -0.67534048804880  1.16880645684568
 1  15.27833933133313  0.23744694449445 -1.45206185598560
 1  14.82346774177418 -2.27023530733073 -1.06890091059106
 1  16.65674241054106 -1.64290012951295 -1.32234362696270
 1  15.94369708730873 -2.31834145274528  0.28283098439844
 1  15.94161135273527  1.69686277497750  0.22296614021402
 1  16.32105842854286  0.23258706780678  1.62289428622862
 1  17.83242932023202 -0.54377285588559 -0.12300698539854
 1  17.61626435183518  1.04329729282928 -1.10704800940094
 1  18.40455216111611  2.65755448314832  0.74486098109811
 1  18.67352036623663  1.09784862166217  1.72465372097210
 1  20.61252948274828  0.40538127182718  0.33054599169917
 1  19.55472817001700  2.90456258835884 -1.11747672187219
 1  21.55594411161116  2.49479508330833 -1.39431475487549
 1  20.02847108290829  1.28299833643364 -2.03999918111811
 1  20.79494450755076  1.61038058835884  2.47140106790679
 1  21.92883672537253  2.20337845444544  1.13035493529353
 1  20.71977964066407  3.28006767726773  1.63745635003500
 1 -7.24759854235423  1.68171244324432  0.38498175497550
 1 -7.57461882848285 -0.27534240984098 -0.02765608580858

