%nproc=4
%Mem=2GB
# td=(NStates=1) B3LYP/SVP 

TD

0 1
 6 -5.18590144064406 -1.94515432143214  0.60357898299830
 6 -4.54142030023002  2.67896812581258  1.46093276937694
 6 -8.99791903550355  3.32850904720472 -0.35534015021502
 6 -9.74800665176518 -1.34432602720272 -1.07679382478248
 7 -5.07309405740574  0.41697815891589  0.95976343434343
 6 -4.50548864646465 -0.75080406400640  1.03660974657466
 6 -3.10313206690669 -0.69202968646865  1.43909715911591
 6 -2.89130328272827  0.71404652225223  2.04174868026803
 6 -4.23663862196220  1.29498654405441  1.36257816921692
 6 -2.97514401230123  0.70689899089909  3.56491634963496
 6 -2.12944828762876 -0.87381239533953  0.24938154585459
 6 -0.61182957105711 -0.92140099489949  0.57598536363636
 6  0.33152765866587 -1.11778869616962 -0.62456831403140
 8 -0.05661592569257 -1.31225091499150 -1.77029948454845
 8  1.59176425162516 -0.89645606410641 -0.20153514551455
 7 -6.84014719571957  2.62182692459246  0.56723731773177
 6 -5.69128330933093  3.30994772727273  1.06960108550855
 6 -6.01265253775377  4.69596768056806  1.09539109080908
 6 -7.28242130663066  4.88435975897590  0.50910614071407
 6 -7.72092754315432  3.54442304120412  0.15492682898290
 6 -5.09470862726273  5.74532831523152  1.61785778967897
 6 -8.10307689588959  6.21268098579858  0.37759281358136
 6 -8.89216673947395  6.57846713731373 -0.67215583188319
 7 -9.14106750605061  0.81709018361836 -0.56913388878888
 6 -9.71323310071007  2.01807510921092 -0.59774858555856
 6 -11.02082832083208  2.01037467696770 -1.17617168846885
 6 -11.35064050455046  0.67078111951195 -1.26284634623462
 6 -10.13947065546555 -0.01868891829183 -0.98512199259926
 6 -12.02178637583758  3.13948651775178 -1.32959738883888
 6 -12.54614471187119 -0.00374947334733 -1.75450768576858
 6 -12.66874134373437 -0.21633628002800 -3.27739492389239
 7 -7.51485461116112 -1.24601891639164 -0.23401974707471
 6 -8.60711669716972 -2.03094970917092 -0.74722165056506
 6 -8.17744135133513 -3.46952155365537 -0.72214595309531
 6 -6.87058908710871 -3.46682256655666 -0.31044314961496
 6 -6.48601714131413 -2.08896069516952 -0.00641848774877
 6 -9.22129611471147 -4.54181758175818 -1.15205771257126
 6 -5.78917503900390 -4.32788801570157  0.08531120072007
 8 -5.72379423552355 -5.46668317701770 -0.00004308390839
 6 -4.64911051565156 -3.34526163886389  0.60575582518252
 6 -4.09057147194719 -3.87956165136514  1.89801168646865
 8 -4.22706531823182 -3.36167712361236  2.96418688268827
 8 -3.15637815351535 -4.87440772207221  1.67922366536654
 6 -2.58490202050205 -5.45981688698870  2.83036950725073
 6  2.63949399279928 -1.09549824042404 -1.23868807410741
 6  3.94388849864986 -0.62148677207721 -0.65178179137914
 6  4.88591089128913  0.10124917251725 -1.15919132373237
 6  4.80840135033503  0.77486132783278 -2.59154169316932
 6  6.20635434753475  0.44053668196820 -0.44718618171817
 6  7.45176940414041 -0.23678301140114 -1.01608896229623
 6  8.67280075707571 -0.15422062896290 -0.09409428932893
 6  9.92223407810781 -0.65557003960396 -0.75625660556056
 6  9.85023881728173 -2.29178434423442 -1.10721483618362
 6  11.25409608420842 -0.41207087768777  0.07603513551355
 6  12.62959154375438 -0.57953643204320 -0.49353723092309
 6  13.76993340054005 -0.13348605170517  0.23411977457746
 6  15.17480930203020 -0.32395543134313 -0.34150798659866
 6  15.56871419901990 -1.77251141304130 -0.48280801630163
 6  16.23122571977198  0.51412232343234  0.43143640804080
 6  17.51486832553255  0.69495522942294 -0.12459696749675
 6  18.51919177017702  1.60183880288029  0.64027272017202
 6  19.95619551545154  1.83151877717772  0.03176593699370
 6  19.93784471397140  2.58344777597760 -1.36711312031203
 6  20.79637010261026  2.64641837793779  1.01678807950795
 1 -3.62552071967197  3.28741512581258  1.64231646994699
 1 -9.69991757675768  4.15543497999800 -0.33945261916192
 1 -10.71421976187619 -2.01776778677868 -1.50325021892189
 1 -2.79331538303830 -1.20626099019902  2.33259505420542
 1 -2.08171873947395  1.27979793089309  1.46324582298230
 1 -2.14042155805581  0.15630305200520  3.91380810611061
 1 -3.05536883718372  1.79651429502950  4.13520262146215
 1 -3.98957953735374  0.14352505480548  3.77304615031503
 1 -2.47246670057006 -1.79595347304730 -0.22521937823782
 1 -2.37722366096610 -0.04435696139614 -0.45563422412241
 1 -0.61587591099110  0.40315444134413  0.81528755925593
 1 -0.51657467036704 -1.68957813781378  1.53406052505250
 1 -4.55485014241424  5.89382752035203  0.84966810481048
 1 -5.57647886668667  6.63179829852985  1.81366696369637
 1 -4.67109888688869  5.56692654205421  2.55953701430143
 1 -8.10939103800380  6.85438247194719  1.34004531083108
 1 -8.68570396319632  5.91988997449745 -1.71256065206521
 1 -9.44623890309031  7.56470175547555 -0.32035173927393
 1 -11.83466801420142  3.86316681518152 -0.43786618521852
 1 -11.77856677897790  3.89364432913291 -2.24763198069807
 1 -13.05650305030503  2.69826544474447 -1.23809685658566
 1 -12.50937576347635 -1.01736186248625 -1.28381295509551
 1 -13.52939368166817  0.39458912031203 -1.28084176147615
 1 -12.60996551155115  0.61269828492849 -4.00337918131813
 1 -11.56761296899690 -0.75549494589459 -3.71410220692069
 1 -13.31576965016502 -1.06507386548655 -3.61217507620762
 1 -9.92670021682168 -4.71764385628563 -0.32890869476948
 1 -9.88131004120412 -4.31234824832483 -2.04577509810981
 1 -8.61902360786079 -5.58843962386239 -1.13567822132213
 1 -3.83257898519852 -3.37591494279428 -0.15106816661666
 1 -1.77658452645264 -6.03770037373737  2.61400710471047
 1 -1.97188376007601 -4.77471721072107  3.37010146044604
 1 -3.61063211861186 -5.94974197419742  3.15035655585559
 1  2.81320311211121 -2.23151989308931 -1.33597073037304
 1  2.21135297819782 -0.68129956795680 -2.07898551785179
 1  4.19586102200220 -0.96924499499950  0.31558060246025
 1  5.10620588508851  1.84010170797080 -2.57291987938794
 1  5.56458342214221  0.43904986018602 -3.17085015211521
 1  3.77965445064506  0.82441524742474 -3.06693205010501
 1  6.33896399349935  1.63640678457846 -0.60287548794879
 1  5.90674850065006  0.05104951965196  0.63758345244524
 1  6.87161781488149 -1.15531957735774 -1.02000684678468
 1  7.60402015311531 -0.04714921032103 -2.11754061176118
 1  8.88735317691769  0.98270612211221  0.26217747624762
 1  8.54166689658966 -0.57561464846485  0.86756960986099
 1  10.17198406370637 -0.10437023872387 -1.79264998789879
 1  8.93380056765677 -2.53547221002100 -1.83221244674467
 1  10.74617147814782 -2.69401107750775 -1.50104585018502
 1  9.64426286808681 -2.71664354185419 -0.16073959545955
 1  11.26963115321532  0.75093271707171  0.41314477707771
 1  11.13001057045705 -0.85366385188519  0.91625214691469
 1  12.54420092809281 -1.62425630463046 -0.74274771757176
 1  12.56774709130913  0.04183691079108 -1.42485580408041
 1  13.47245828132813  1.10686108190819  0.67300247434743
 1  13.81517635313531 -0.72359531353135  1.23309288548855
 1  15.13383488088809  0.03185638543854 -1.55309195899590
 1  14.71656705170517 -2.23923220702070 -1.05036905740574
 1  16.54793152945295 -2.02002784228423 -1.05226661926193
 1  15.52954567216722 -2.23704332293229  0.53593629492949
 1  15.91839903150315  1.52276536523652  0.53987783138314
 1  16.40996731943195  0.07415122422242  1.41686368316832
 1  18.23507958525853 -0.22021049964996 -0.43266795149515
 1  17.41594431983198  1.38955191829183 -1.20672797739774
 1  17.88379008490849  2.55102383008301  0.94358085308531
 1  18.78459147334734  0.99520835763576  1.55601685728573
 1  20.51614984478448  0.69338007170717  0.07756069316932
 1  19.62849554675468  3.50978311041104 -1.28250322452245
 1  20.91793031023102  2.71649725352535 -1.74747007040704
 1  19.27604584038404  2.09162919951995 -2.02749793099310
 1  20.87823283638364  1.91092064236424  1.91690561836184
 1  21.74935877757776  3.01133925052505  0.54239613941394
 1  20.34358202090209  3.51045071557156  1.25185779017902
 1 -6.67117089958996  1.56499077107711  0.53054631143114
 1 -7.59414078067807 -0.18753362896290 -0.20342366256626

