%nproc=4
%Mem=2GB
# td=(NStates=1) B3LYP/SVP 

TD

0 1
 6 -5.12273512401240 -1.87190699669967  0.49792841794179
 6 -4.82139829802980  2.76615684468447  1.62832950905090
 6 -9.44119336293629  3.29234543084308 -0.26726134233423
 6 -9.86401825292529 -1.42826442104210 -0.93409955535554
 7 -5.21781852985299  0.49160562166217  0.88697615561556
 6 -4.50660875847585 -0.59921890549055  0.80775686128613
 6 -3.02475422912291 -0.51316179967997  1.15030828022802
 6 -3.16658081048105  0.93835895349535  1.90051455685569
 6 -4.43910886898690  1.45288233363336  1.49097100850085
 6 -3.09419591749175  0.87975627662766  3.38564842284228
 6 -2.08432377517752 -0.65404041814181  0.03184979267927
 6 -0.56557494559456 -0.73539239403940  0.54225199029903
 6  0.40858536443644 -1.00423734103410 -0.59518537573757
 8  0.18812854875488 -1.61764145404540 -1.55020747534753
 8  1.73198827402740 -0.68488490699070 -0.14737972997300
 7 -7.11222440344034  2.79353409530953  0.61220181418142
 6 -6.02623680468047  3.40841757425743  1.09141326672667
 6 -6.33886515901590  4.78023610741074  1.14704625632563
 6 -7.60896396089609  4.98578990199020  0.57785301540154
 6 -8.18271372177218  3.58413701260126  0.25573690999100
 6 -5.33748290469047  5.75471925432543  1.72616862076208
 6 -8.30847743594359  6.30096981468147  0.29755480978098
 6 -9.27822534533453  6.60129942054205 -0.57347596389639
 7 -9.25990939023902  0.79960843544354 -0.41979895529553
 6 -9.90062183958396  2.07301060276028 -0.55808461916192
 6 -11.26626286428643  1.78534217371737 -1.01655572687269
 6 -11.45865130563056  0.49286332773277 -1.22522258385839
 6 -10.17837454585459 -0.09701675107511 -0.81293477387739
 6 -12.52342653985399  2.79654222332233 -1.03816824592459
 6 -12.58787888528853 -0.31508060646065 -1.65062729772977
 6 -12.68020248984899 -0.45794044044404 -3.23952113651365
 7 -7.51119424512451 -1.21228554305431 -0.28910525562556
 6 -8.66039202470247 -2.00707732193219 -0.60344727312731
 6 -8.17180078727873 -3.37624222572257 -0.65887962646265
 6 -6.79208123632363 -3.32296818111811 -0.39062116741674
 6 -6.39815835543554 -2.00562236133613 -0.02547039293929
 6 -8.95321930703070 -4.64836823682368 -1.06757926472647
 6 -5.74385050655065 -4.22511773867387 -0.00751808220822
 8 -5.53993584968497 -5.42493900260026 -0.01562464206421
 6 -4.50509611421142 -3.14446155885589  0.41738698829883
 6 -3.85280769556956 -3.70013370857086  1.70899278457846
 8 -4.04638725042504 -3.38231918781878  2.78739920392039
 8 -2.91510402610261 -4.67246752805281  1.40288603160316
 6 -2.17784131443144 -5.39641054635464  2.45385185548555
 6  2.71300134353435 -1.13904259485949 -1.05518972427243
 6  3.99138324812481 -0.59232385578558 -0.61501811501150
 6  4.98247054725473  0.16806585418542 -1.22661806640664
 6  4.82300281048105  0.60337417911791 -2.64795733473347
 6  6.25400911301130  0.44225685398540 -0.45313677677768
 6  7.54975920312031 -0.28952828592859 -1.07245459885989
 6  8.83284676167617 -0.08239344624462 -0.25431031093109
 6  10.19638149284929 -0.75497998059806 -0.87579855975598
 6  10.14127792119212 -2.27508267406741 -0.94862897759776
 6  11.29279995459546 -0.16378604920492  0.01708924092409
 6  12.66861544614461 -0.53750222862286 -0.55656353355336
 6  13.82382879007901 -0.03655635873587  0.34295065766577
 6  15.31031285238524 -0.30373340914091 -0.17999183498350
 6  15.57173450105010 -1.85165932783278 -0.20866060156016
 6  16.26625922312232  0.57888880008001  0.48692195659566
 6  17.73003984268427  0.41564729862986 -0.02821732953295
 6  18.71521137213721  1.42329094809481  0.61492018491849
 6  20.06540643654365  1.50512613791379  0.05761852225223
 6  20.22903383288329  1.82919235043504 -1.39195560456046
 6  20.93667413301330  2.53991772787279  1.03697009770977
 1 -4.27067523512351  3.59160554485449  1.97568980728073
 1 -10.06339392439244  4.18810824732473 -0.51369004290429
 1 -10.65778411831183 -2.06361237123712 -1.38188808270827
 1 -2.82921897339734 -1.16741710581058  1.99750154485449
 1 -2.39701026862686  1.66136608770877  1.65137463586359
 1 -2.11605912181218  0.25117253895390  3.70201692699270
 1 -3.06242954325433  1.86705134873487  4.02627172837284
 1 -4.00141072047205  0.48539924222422  3.73537238293829
 1 -2.27656711061106 -1.61855573327333 -0.56644350065006
 1 -2.36345228382838  0.18689616391639 -0.48444710541054
 1 -0.39760408380838  0.35512963886389  1.04766079657966
 1 -0.50097311021102 -1.61111029102910  1.18741586058606
 1 -4.30288494589459  5.71833997159716  1.00506364436444
 1 -5.68960017881788  6.77328244694469  1.55006060306031
 1 -4.90595237223722  5.49462931233123  2.79131019161916
 1 -8.08983908280828  7.00003703740374  1.09177048334834
 1 -9.78834422722272  5.90765875137514 -1.33869326532653
 1 -9.80366464566457  7.43319860516052 -0.56700640474047
 1 -12.44060860826083  3.23467396589659 -0.17176957555756
 1 -12.33212213451345  3.53621858655866 -1.87173439093909
 1 -13.53772117211721  2.30307592579258 -0.91631467836784
 1 -12.54796962286229 -1.38783891019102 -1.30414498829883
 1 -13.54504524682468  0.30248991039104 -1.24433811111111
 1 -12.85773028802880  0.50473748884889 -3.72749159255926
 1 -11.91276748444845 -1.13079247564756 -3.69595039173917
 1 -13.69663773697370 -0.85876323442344 -3.47317117581758
 1 -9.98123567036704 -4.47324941684168 -0.53151895579558
 1 -9.06195810601060 -4.67352436593659 -2.18211873247325
 1 -8.53953565906591 -5.58648942884289 -0.62314696819682
 1 -3.50442616991699 -3.28909626092609 -0.42301536133613
 1 -1.37930479847985 -5.83069967366737  1.88679438343834
 1 -1.87153372507251 -4.67843758275828  3.26793124342434
 1 -2.84117517291729 -6.06481348134813  2.97929945014501
 1  2.67306909870987 -2.24311105220522 -1.04851198449845
 1  2.48337017991799 -0.83010444844484 -2.09966758605861
 1  4.31294273017302 -0.81009908040804  0.44936398079808
 1  5.32711797629763  1.54804250205021 -2.92571515891589
 1  5.30705766956696 -0.19444348914892 -3.28771183828383
 1  3.79333581878188  0.65154796069607 -2.98461381828183
 1  6.59397949504950  1.39855299919992 -0.56598179857986
 1  6.26687451325132  0.05829024372437  0.52127182128213
 1  7.15879653275328 -1.30206425182518 -1.30766561266127
 1  7.56909666076608  0.10804630923092 -2.14524338203820
 1  9.00841528312831  1.05574342584258 -0.29770851235124
 1  8.79700243014302 -0.44072115911591  0.78119097199720
 1  10.51394826012601 -0.33847364906491 -1.90656137903790
 1  9.02689987758776 -2.39884854765477 -1.48318754425443
 1  11.02277913891389 -2.66825850225022 -1.46406215181518
 1  10.20439888168817 -2.54953683118312  0.12877935643564
 1  11.24326851695169  0.91082870667067 -0.04010054745475
 1  11.37285485488549 -0.74875336083608  1.12856337803780
 1  12.68033454145415 -1.65966984598460 -0.56170961376138
 1  12.97419773637364 -0.06097337023702 -1.57066038453845
 1  13.55812684818482  1.01940233603360  0.44097927202720
 1  13.91162599809981 -0.40930388438844  1.26285586178618
 1  15.36834833223322  0.01143434323432 -1.30163681348135
 1  14.83281867686769 -2.50812909670967 -0.67857187768777
 1  16.46034277057706 -1.89982582208221 -0.84840623322332
 1  15.67792050965097 -2.00191981058106  0.96681938323832
 1  15.89194638623862  1.50292338103810  0.28330217381738
 1  16.25359168186819  0.31301511061106  1.70643264006401
 1  18.07419349664967 -0.59551803040304  0.13164848014801
 1  17.71667439283928  0.53628659175918 -1.02166947154715
 1  18.32155386128613  2.42518124582458  0.48893538853885
 1  18.92185519971997  1.28664750155016  1.70149140474047
 1  20.64036226602660  0.45483621732173  0.28933187028703
 1  19.81659435663567  2.87768990109011 -1.71453642784279
 1  21.31682019921992  1.73563916771677 -1.70229555295529
 1  19.69968820462046  1.26134617121712 -2.19715489668967
 1  20.89561457455746  2.18993854415442  1.99454338213821
 1  22.00272411411141  2.40325844244424  0.70820272007201
 1  20.65120278297830  3.56141581208121  0.86502910731073
 1 -7.08596237873787  1.78886315831583  0.37022027882788
 1 -7.69606097269727 -0.24652952855286 -0.14345766596660

