%nproc=4
%Mem=2GB
# td=(NStates=1) B3LYP/SVP 

TD

0 1
 6 -5.14583743424342 -2.08406821282128  0.45509413451345
 6 -4.57970412861286  2.67060728972897  1.48910558665867
 6 -9.02590183378338  3.35350154645465 -0.26698131433143
 6 -9.86236808790879 -1.34869646424642 -0.86610275567557
 7 -5.08048479647965  0.36165262636264  0.84894235223522
 6 -4.55638373597360 -0.91162014561456  0.74483056865687
 6 -2.92288404210421 -0.78181866536654  1.24964821422142
 6 -2.96175032743274  0.68030314791479  1.84912941834183
 6 -4.25938089618962  1.31252829822982  1.35410732213221
 6 -2.89522602050205  0.74375267626763  3.38511836983698
 6 -2.02542788558856 -0.98823383748375  0.10162677037704
 6 -0.60322871097110 -0.80077893269327  0.48238600370037
 6  0.31769627552755 -1.01057797509751 -0.76056191339134
 8  0.07189692559256 -1.51059074897490 -1.84033648824882
 8  1.63096817201720 -0.71277769626963 -0.34667965996600
 7 -6.78803198419842  2.73866860876088  0.60393098709871
 6 -5.71812599359936  3.25358209070907  1.07060118551855
 6 -5.92983425592559  4.77847593139314  0.96010756245625
 6 -7.20280334483448  4.97835915891589  0.40585581568157
 6 -7.68033348374838  3.59337793669367  0.16241757805781
 6 -4.95558471487149  5.86548033043304  1.41781778567857
 6 -7.80163675187519  6.25130484818482  0.18986404070407
 6 -8.74855237803780  6.53827311791179 -0.68988760506051
 7 -9.11353475277528  0.85236371097110 -0.41485846124612
 6 -9.67097887528753  2.14038734043404 -0.52288109880988
 6 -11.08946518451845  2.02548618811881 -0.99336340764076
 6 -11.38940438093809  0.65483952535254 -1.14723478507851
 6 -10.09287599599960  0.00579352995300 -0.75517899829983
 6 -11.97801199839984  3.15677824692469 -1.13177760686069
 6 -12.66312641004100  0.01846274787479 -1.62417465246525
 6 -12.64930940054006 -0.39873451985199 -3.08381556595660
 7 -7.53817694339434 -1.25953026752675 -0.22381872697270
 6 -8.66053203870387 -2.03150976517652 -0.59519644804480
 6 -8.26751035823582 -3.41471607310731 -0.58807254575458
 6 -6.92501452965297 -3.46624250855086 -0.25561766706671
 6 -6.53320185978598 -2.07781958105811 -0.03558140404040
 6 -9.12679666476648 -4.56238963896390 -0.82410491729173
 6 -5.83404952645265 -4.39297452435244  0.07646031563156
 8 -5.74883673977398 -5.53894040274027  0.17604452485249
 6 -4.60908651325132 -3.50347746044604  0.53385863546355
 6 -3.92149456425643 -3.94153784898490  1.86902878817882
 8 -4.36294890659066 -3.46930788668867  2.93423388738874
 8 -3.08551106680668 -4.93907418871887  1.60940668366837
 6 -2.74863839413941 -5.53774467976798  2.86582305260526
 6  2.68177822122212 -0.98930762136214 -1.40432463776378
 6  4.01395550535053 -0.74872949634964 -0.76844345754575
 6  4.86071837203720  0.12242128972897 -1.18263366796680
 6  4.78343885408541  1.01275511721172 -2.46139867886789
 6  6.19274298639864  0.38196082438244 -0.49720118321832
 6  7.31177540474047 -0.21883121622162 -1.16051340474047
 6  8.64545802280228 -0.34909011591159 -0.27156203610361
 6  10.01556341104110 -0.78332281488149 -0.88094907480748
 6  9.94815860926093 -2.30136530233023 -1.19213332803280
 6  11.26910758535853 -0.36792646324632 -0.03773624162416
 6  12.53353193779378 -0.65002348074807 -0.58026590379038
 6  13.76822322952295 -0.03011571467147  0.09927629022902
 6  15.15845766686669 -0.18627166296630 -0.51234507030703
 6  15.47063439103910 -1.72708687058706 -0.78001773727373
 6  16.07620021722173  0.58279919111911  0.50422368676868
 6  17.55029186788679  0.78086382028203 -0.03190769856986
 6  18.39999985098510  1.67840645964596  0.93653234613461
 6  19.84137403330333  1.83868949424943  0.32935569596960
 6  19.97015794529453  2.46976640784078 -1.01059746874687
 6  20.68503896949695  2.64641837793779  1.38622502320232
 1 -3.83283145074507  3.40857724202420  1.98479071737174
 1 -9.80674825982598  4.13371280778078 -0.11492016591659
 1 -10.67468580848085 -1.82411842184218 -1.16256615051505
 1 -2.90300635213521 -1.39722008610861  2.05965776047605
 1 -2.12729329692969  1.21539149024902  1.28348784718472
 1 -2.01289880578058  0.27984540624062  3.80465719101910
 1 -3.21250455075508  1.77704234783478  3.93193229442944
 1 -3.84284486388639  0.07956865916592  3.75039388508851
 1 -2.20109956385639 -2.12275615331533 -0.24457131343134
 1 -2.30432637123712 -0.11914444014401 -0.77314597529753
 1 -0.33644796819682  0.22892701860186  0.77822385288529
 1 -0.48869188208821 -1.49103828382838  1.48449556855686
 1 -4.06019067646765  5.72284042164216  0.89118225622562
 1 -5.45047626642664  7.00245536423642  1.42914851185118
 1 -4.97655943294329  5.76680653005301  2.59447050765077
 1 -7.57457755665567  7.15046207990799  0.82457376367637
 1 -9.00625601840184  5.90220820632063 -1.61854125012501
 1 -9.10681496069607  7.68885417071707 -0.56149585368537
 1 -12.03146769416942  3.84763526202620 -0.16664906350635
 1 -11.65446436873687  3.77593255795580 -2.08847606510651
 1 -13.18131553155316  2.91743736193619 -1.30780382728273
 1 -13.07669249514952 -0.76464659095910 -0.92309688348835
 1 -13.52548329062906  0.82750241164116 -1.35300897819782
 1 -12.70501501650165  0.40754776987699 -3.82683152655266
 1 -11.94413062076208 -1.06229562596260 -3.68145894259426
 1 -13.70362843604360 -0.92726008410841 -3.24728858755876
 1 -10.15163271007101 -4.60791288318832 -0.23878968286829
 1 -9.38688059825983 -4.08283529702970 -1.77487800840084
 1 -8.74145585108511 -5.55903668356836 -0.81822647614761
 1 -3.74504023132313 -3.44311166246625 -0.13762682248225
 1 -2.09347621562156 -6.51206781048105  2.77468317231723
 1 -1.87743431513151 -5.00884062306231  3.54104855515552
 1 -3.63046410181018 -5.77678467846785  3.47930945114511
 1  2.55645743754375 -1.93171991309131 -1.59227636093609
 1  2.45432727562756 -0.41742318031803 -2.21229884918492
 1  4.29108054395440 -1.14786285678568  0.29907895229523
 1  4.57930319481948  2.23877157495750 -1.94798738613861
 1  5.74542150595060  1.03694965016502 -3.18856192329233
 1  3.81922840804080  0.88523132903290 -3.08195355225523
 1  6.42003210031003  1.36484962886289 -0.40601580198020
 1  6.30891871767177  0.00285470017002  0.59900959505951
 1  6.87176782988299 -1.30503454885489 -1.70576542264226
 1  7.51769152025202  0.28493399799980 -2.14667352505251
 1  8.50455489708971  0.67746559805981  0.03121437993799
 1  8.59400213011301 -1.02913000000000  0.59175202810281
 1  9.95317218251825 -0.00472027372737 -1.70738146104610
 1  8.97663485108511 -2.52147080988099 -1.78994822032203
 1  10.79264612561256 -2.87292896929693 -1.70521626722672
 1  9.61116955875588 -2.85522740024002 -0.31526504800480
 1  11.25706989708971  0.71323894769477  0.13782724532453
 1  11.04531210061006 -0.82402088758876  1.00197071877188
 1  12.73463997199720 -1.66313019201920 -0.53003644644464
 1  12.62434275087509 -0.38376564946495 -1.87139045754576
 1  13.44102513801380  1.00853124892489  0.44338951305130
 1  13.77617245274527 -0.52618557255726  1.13075265146515
 1  15.27777927532753  0.38326152595260 -1.44537118691869
 1  14.72595799079908 -1.95572385618562 -1.81085510601060
 1  16.45336207250725 -1.63706954645465 -0.98393978657866
 1  15.18972168976898 -2.23453307190719  0.22094479577958
 1  15.71571876347635  1.64873796249625  0.54641848544855
 1  16.32000832353235 -0.17009320022002  1.28635063186319
 1  18.07804388168817 -0.04976345494549 -0.01143582828283
 1  17.33741646704670  1.32489545264526 -1.10714801940194
 1  17.95702740864087  2.67964669236924  1.11938843384338
 1  18.42429544374438  1.37741657845785  1.90658191379138
 1  20.29441767156716  0.77695842954295  0.19223216031603
 1  19.32117481468147  3.27217935003500 -0.93357833203320
 1  20.89108762596259  2.65706130993099 -1.43782910631063
 1  19.38537677347735  1.94367440404040 -1.76067124832483
 1  20.81827684078408  2.13566311661166  2.44742867066707
 1  21.73583742544254  2.88651676827683  1.04738663846385
 1  19.90911857455746  3.53055272577258  1.67160976537654
 1 -7.09089287178718  1.60583485548555  0.46305956275628
 1 -7.48848021462146 -0.31798667426743 -0.17705102530253

