%nproc=4
%Mem=2GB
# td=(NStates=1) B3LYP/SVP 

TD

0 1
 6 -5.10121297179718 -1.92984279027903  0.31952057715772
 6 -4.78693485168517  2.67185741474147  1.41904858095810
 6 -9.44429367296730  3.38878507480748 -0.25092970917092
 6 -9.77828968006801 -1.43730532513251 -1.05990213561356
 7 -5.24497124512451  0.44281074217422  0.77274473247325
 6 -4.52082017961796 -0.63993297689769  0.75395148074807
 6 -3.07163891759176 -0.60588107160716  1.22595584498450
 6 -3.05855000740074  0.82871798939894  1.83201770717072
 6 -4.42254721282128  1.38114515991599  1.29844175557556
 6 -2.82802930083008  1.11124942594259  3.34482434043404
 6 -2.07238258105811 -0.77966298039804  0.09591619931993
 6 -0.60964935303530 -0.53620247504750  0.48191595669567
 6  0.32961746764676 -0.85009192649265 -0.68234409160916
 8 -0.04068433253325 -1.21068075797580 -1.81610406500650
 8  1.57891296649665 -0.55921233973397 -0.29408440044004
 7 -7.14454763576358  2.67148189008901  0.52488308230823
 6 -6.03925810681068  3.32588932143214  0.97950207560756
 6 -6.36317759025903  4.73006108990899  1.03943549524953
 6 -7.55361842634264  4.95153647664767  0.47452268236824
 6 -8.14748019841984  3.56133473237324  0.18501983828383
 6 -5.33751290769077  5.70040382278228  1.51824782868287
 6 -8.27401398959896  6.27235695339534  0.44067912221222
 6 -9.24573209600960  6.48494778537854 -0.46163477977798
 7 -9.28305170447045  0.96971544614461 -0.47930490589059
 6 -9.98686046344634  2.02702600430043 -0.48517732843284
 6 -11.37066330433043  1.82185582508251 -0.84392846414641
 6 -11.46743218371837  0.47497153855385 -1.19226928852885
 6 -10.08249495789579 -0.04711176057606 -0.90695417581758
 6 -12.53965816301630  2.83640620972097 -0.83939836893689
 6 -12.79670976837684 -0.28183728212821 -1.56333856885689
 6 -12.71858632823282 -0.60697534393439 -3.03194037843784
 7 -7.41712483818382 -1.19167348184818 -0.29816616171617
 6 -8.55360134563456 -2.05227184138414 -0.56332326072607
 6 -8.14860846804680 -3.43364796629663 -0.47995173367337
 6 -6.82033406160616 -3.40940682498250 -0.16370847614761
 6 -6.39958849844984 -2.08309010811081 -0.01070891679168
 6 -8.94180816591659 -4.58663206320632 -0.94111661846185
 6 -5.65230135163516 -4.22964819171917 -0.00757808820882
 8 -5.45543739983998 -5.43030953965397 -0.15228830843084
 6 -4.50698630323032 -3.26826393909391  0.43752900250025
 6 -3.77552996779678 -3.72594628982898  1.74276616191619
 8 -3.98023063476348 -3.16991794769477  2.77090755475548
 8 -3.11095361106111 -4.81015129642964  1.45349109210921
 6 -2.50565409570957 -5.52310321562156  2.48565503580358
 6  2.61814185758576 -0.95931462206221 -1.14793899919992
 6  3.86034014381438 -0.51952657605761 -0.52797941114111
 6  4.94744704490449  0.10099914751475 -1.22807821242124
 6  5.00750126032603  0.45917975967597 -2.66395893489349
 6  6.19963367546755  0.27741036933693 -0.48687015011501
 6  7.49755398259826 -0.38973830693069 -0.98678603200320
 6  8.74745822282228 -0.25516072297230 -0.11269614951495
 6  10.14436629132913 -0.68760324292429 -0.74719569946995
 6  10.15187898129813 -2.31838700450045 -0.79330344504450
 6  11.40067074167417 -0.03605327592759  0.05623315531553
 6  12.70748933353335 -0.44429290769077 -0.53110098729873
 6  13.86096250345035  0.10739803670367  0.11674803740374
 6  15.28241006210621 -0.19427246304630 -0.32457629342934
 6  15.61070839843984 -1.63111727362736 -0.38134787028703
 6  16.28698129532954  0.69006991819182  0.36242950735074
 6  17.81588842754275  0.53898963286329 -0.03983849164916
 6  18.69416926792679  1.49688830783078  0.64921361426143
 6  20.07926782268227  1.46233185848585  0.22321508190819
 6  20.46281721122112  1.82193162436244 -1.13441985098510
 6  21.10716118171817  2.07672140824082  1.18088448914891
 1 -4.22539070667067  3.42334871917192  1.85311755005501
 1 -10.19013659865987  4.15825526202620 -0.09914858875888
 1 -10.86710505040504 -1.94358036803680 -1.20408030193019
 1 -2.66039209070907 -1.32279264336434  1.95101689638964
 1 -2.21071163876388  1.31184113521352  1.28426792519252
 1 -1.89372688858886  0.77564498619862  3.79096582188219
 1 -2.86409971027103  2.19764440804080  3.57721682288229
 1 -3.53295387478748  0.44608531083108  3.99153799949995
 1 -2.32102155605561 -1.45284916261626 -0.57004386068607
 1 -2.15178111671167 -0.13550607630763 -0.80004866556656
 1 -0.45004932833283  0.41014514041404  1.06560259075908
 1 -0.40444345724572 -1.46343552355236  1.18934605360536
 1 -4.37441209860986  5.94206234383438  0.89028216621662
 1 -5.80699191799180  6.70553567226723  1.45376097309731
 1 -4.94608638563856  5.61127097649765  2.55968702930293
 1 -8.38400849974997  7.13840087378738  1.65087639393939
 1 -9.44751014381438  5.69229721522152 -1.18545794179418
 1 -9.85958023722372  7.34364965026503 -0.51826153025303
 1 -12.91293584098410  3.40637113561356  0.18224582598260
 1 -11.93970289258926  3.79308427312731 -1.38906612411241
 1 -13.38030543054306  2.57420303850385 -1.44420746764676
 1 -12.89450427632763 -1.21767189348935 -1.03478805260526
 1 -13.75215595789579  0.34368402980298 -1.34632831013101
 1 -12.63939845484548  0.22494951005101 -3.62861170457046
 1 -11.79931613931393 -1.26743614001400 -2.97761855855586
 1 -13.69787786098610 -0.95859321742174 -3.45587944664466
 1 -9.97696524332433 -4.62123421532153 -0.59475527942794
 1 -8.98032994319432 -4.78458547204720 -2.08518903950395
 1 -8.46869857535754 -5.65947672757276 -0.68149280278028
 1 -3.85002072937294 -3.58882623392339 -0.36298935873587
 1 -2.01203807180718 -6.30395699939994  2.17673337733773
 1 -1.78270484218422 -4.95909564856486  2.90103455375538
 1 -3.25941699709971 -5.78570557055706  3.38334985518552
 1  2.68030982278228 -2.12666940804080 -1.29059619291929
 1  2.45746758965897 -0.46664810281028 -2.11960958025803
 1  3.96368780468047 -0.79276734723472  0.62262130653065
 1  5.12839810431043  1.46956465426543 -2.51533412081208
 1  5.92797976177618  0.07514346954695 -3.34132719981998
 1  3.93509999519952  0.19386219211921 -3.27257261416142
 1  6.51603170027003  1.41578472237224 -0.44725992639264
 1  6.04078190399040 -0.14813039833983  0.60067976207621
 1  7.13312396549655 -1.50189423482348 -1.14092893899390
 1  7.79387913901390 -0.13443793919392 -2.13351220892089
 1  8.87782222382238  0.87795564706471  0.05843710221022
 1  8.61878460836084 -0.80907799479948  0.82403525642564
 1  10.06388325362536 -0.32347214891489 -1.69288001090109
 1  8.97772496009601 -2.75924458725873 -0.87916714221422
 1  10.91206806780678 -2.84827650405041 -1.69149489508951
 1  10.64893333513351 -2.70484236173617  0.29484596309631
 1  11.20856504660466  1.21594921872187 -0.01848838623862
 1  11.43143071247125 -0.55448393389339  1.06653717541754
 1  12.76460296829683 -1.50979485848585 -0.55595903870387
 1  12.65021533813381 -0.15989326222622 -1.65632895139514
 1  13.72792382788279  1.25073546934693  0.18049322342234
 1  14.03409824532453 -0.12325527952795  1.28926850305031
 1  15.19171066846685 -0.15556235643564 -1.34325097489749
 1  14.55674106910691 -2.21391967576758 -0.69655367586759
 1  16.34785152145215 -1.69269510901090 -1.28327972057206
 1  15.97599031663166 -2.10045966456646  0.62646534783478
 1  16.09565675727573  1.95011810051005  0.30353419701970
 1  16.19421574427443  0.34932874197420  1.53456545334533
 1  18.11811788908891 -0.41463994259426  0.27526284158416
 1  17.94251697709771  0.59020198329833 -1.16584388898890
 1  18.34300600650065  2.58499722742274  0.27006350135013
 1  18.39013202740274  1.51779061586159  1.69953120872087
 1  20.44837306710671  0.50665139883988  0.43827676477648
 1  20.39735243244325  2.86963909600960 -1.28045301950195
 1  21.47251576877688  1.49945554935493 -1.49324464786479
 1  19.82423065886589  1.19733977057706 -1.84600978217822
 1  21.16183119621962  1.70203975427543  2.18027195499550
 1  22.08957279897989  1.91181929852985  0.69392129192919
 1  21.33651131383138  3.38289796029603  1.19675227962796
 1 -7.17320110261026  1.61983625562556  0.44983824062406
 1 -7.57920928752875 -0.27220209580958 -0.45480880108011

