%nproc=4
%Mem=2GB
# td=(NStates=1) B3LYP/SVP 

TD

0 1
 6 -5.16007885838584 -1.90156996299630  0.54033265836584
 6 -4.98135429362936  2.72391262026203  1.54039071517152
 6 -9.46053529712971  3.24333052935294 -0.27505212141214
 6 -9.87053890499050 -1.50590218481848 -0.92187833323332
 7 -5.23214996299630  0.38741520262026  0.90412787078708
 6 -4.51794989258926 -0.74236321992199  0.86664274987499
 6 -3.10425217891789 -0.52185266876688  1.40301355075508
 6 -3.14700885328533  1.01304642224222  1.97488199359936
 6 -4.44805976407641  1.41197824322432  1.38553046444644
 6 -3.16563306120612  0.98239654065407  3.51854171217122
 6 -2.11753709650965 -0.62046706080608  0.19858646634663
 6 -0.66868525662566 -0.78748760356036  0.54733249834983
 6  0.35306981288129 -0.96264318161816 -0.54499035623562
 8 -0.02704296839684 -1.31685137503750 -1.74638709330933
 8  1.53420849604960 -0.76423284178418 -0.15488048004800
 7 -7.10295347634763  2.82200694259426  0.48430902490249
 6 -6.06229041004100  3.42026875937594  1.03126725212521
 6 -6.23955522802280  4.78672675647565  1.01401295299530
 6 -7.51087415191519  4.97079840284028  0.48679390949095
 6 -8.07072252265227  3.66691529042904  0.15261659795980
 6 -5.37706686308631  5.86638042044204  1.67561356525653
 6 -8.26943353155315  6.25939565726573  0.24570962526253
 6 -9.16758428122812  6.55135442604260 -0.75372398869887
 7 -9.22516591589159  0.80541901650165 -0.35349232463246
 6 -9.88985076247625  1.96183948564856 -0.45832464316432
 6 -11.27263350135014  1.84260790029003 -0.97596166746675
 6 -11.39880532103210  0.51083512491249 -1.27732779437944
 6 -10.14703141154116 -0.10748779817982 -0.78035151555156
 6 -12.17803200040004  2.87583015211521 -1.20626505560556
 6 -12.58969906730673 -0.24259335773577 -1.67878011301130
 6 -12.59715418501850 -0.49461410781078 -3.20708789318932
 7 -7.43965709140914 -1.22126644114411 -0.23651999709971
 6 -8.56209219471947 -2.01759837403740 -0.64759168756876
 6 -8.05561916911691 -3.36764136563656 -0.63427716621662
 6 -6.81705373357336 -3.33472935723572 -0.25837794309431
 6 -6.50137867746775 -2.08331013011301  0.14825697979798
 6 -8.93045703080308 -4.54927832783278 -1.10222272907291
 6 -5.64897101860186 -4.19838506540654 -0.08414574497450
 8 -5.52014387048705 -5.44463097179718 -0.15734881448145
 6 -4.49762536713671 -3.29689680238024  0.41601685128513
 6 -3.79535194999500 -3.80961465666567  1.65035692099210
 8 -4.15579819151915 -3.38399935583558  2.77093755775578
 8 -2.90651316701670 -4.76667694899490  1.30097584058406
 6 -2.20100363066307 -5.41953285858586  2.44680115041504
 6  2.58649869326933 -0.89086777737774 -1.16097030233023
 6  3.88013212301230 -0.63164778817882 -0.49969658285829
 6  4.91368366856686  0.06263531113111 -0.99652505710571
 6  5.00097060726073  0.53383722542254 -2.39196173517352
 6  6.24506821892189  0.19270189848985 -0.28102956605661
 6  7.44699892709271 -0.35616494959496 -0.93288064146415
 6  8.76873035003501 -0.25576078297830 -0.07133201310131
 6  10.07914976967697 -0.72701718431843 -0.66796777667767
 6  9.98963275667567 -2.23141830763076 -1.00420453515352
 6  11.35794646924692 -0.23020269086909  0.15248278027803
 6  12.69943852845284 -0.53794227262726 -0.55659353655366
 6  13.88321472867287 -0.02358506160616  0.23794015661566
 6  15.25904772587259 -0.16557959375938 -0.30907474327433
 6  15.64333166076608 -1.69382354425443 -0.57856759225923
 6  16.39165176237624  0.48205911711171  0.36955021942194
 6  17.76289312801280  0.63054878877888 -0.22358686648665
 6  18.63206305730573  1.57023564256426  0.55328402130213
 6  20.10224011991199  1.52033765906591  0.09743250365037
 6  20.28240917041704  2.04263369456946 -1.47683409240924
 6  20.99816028162816  2.27884162026203  1.11607800850085
 1 -4.40371853945395  3.50937732203220  1.97742998129813
 1 -9.93980156515651  4.03865330183018 -0.28941761566157
 1 -10.49855819571957 -2.33652966296630 -1.11206110001000
 1 -2.83625967746775 -1.48729909400940  2.17449924462446
 1 -2.22917348494849  1.64714466556656  1.49501900030003
 1 -2.30068758465847  0.58066548824883  3.71967869316932
 1 -3.07207050735074  1.95839048264826  3.81542064326433
 1 -4.07033761316132  0.40237093939394  4.05565441114111
 1 -2.55721517541754 -1.42877675537554 -0.29593644994499
 1 -2.10214615321532  0.43814128842884 -0.23773243394339
 1 -0.27588191159116 -0.04965083918392  1.18431446194619
 1 -0.46412942584258 -1.61995117511751  1.14154127312731
 1 -4.26278093549355  5.97712585018502  1.35617875587559
 1 -5.82173339213921  6.88458357705771  1.78117371437144
 1 -5.41322309930993  5.49295914531453  2.86175723632363
 1 -7.88092819171917  7.15795282898290  0.65646695299530
 1 -9.08123351615161  5.76316430193019 -1.61141053705371
 1 -9.56849112831283  7.61121640694069 -0.82073177727773
 1 -12.81516606400640  3.32637313581358 -0.19157155575558
 1 -11.76644556685669  3.69457442214221 -1.72119933743374
 1 -13.06578397839784  2.32068768696870 -1.58124117101710
 1 -12.67460228612861 -1.22837296359636 -1.21937651145115
 1 -13.58489923222322  0.23276293769377 -1.39844352165216
 1 -12.41223573857386  0.37239425452545 -3.81271011441144
 1 -11.78652486018602 -0.95035443184318 -3.49710050675067
 1 -13.40670874407441 -0.77905526362636 -3.48639249794980
 1 -9.68652619941994 -4.65304739663966 -0.42743854775478
 1 -9.25905781598160 -4.45144215771577 -2.02667318791879
 1 -8.28402010751075 -5.33969474937494 -0.81880653415342
 1 -3.52667839513951 -3.15637298859886 -0.31351441124112
 1 -1.20225709370937 -6.09215581928193  2.18072377637764
 1 -1.79609618131813 -4.71788152715272  3.36583103340334
 1 -3.02345340074007 -6.34967196719672  2.79246076627663
 1  2.56400819261926 -2.07215395649565 -1.32402953625362
 1  2.31680352325233 -0.33049448744875 -2.22293991329133
 1  3.80062149804981 -1.04608267876788  0.50873991839184
 1  5.59550481498150  1.40718841664166 -2.49327191459146
 1  5.43359032283228 -0.08312235703570 -3.29172223932393
 1  3.78161464666467  1.00527333323332 -2.64392974987499
 1  6.37501759885988  1.27995113901390 -0.00375557595760
 1  6.12615044084408 -0.45999158445845  0.75591528562856
 1  7.29395004810481 -1.28964300970097 -1.04671951805180
 1  7.58186793789379  0.30278578317832 -1.91056991469147
 1  8.79617405900590  0.68130598209821  0.42243350185019
 1  8.74533726362636 -0.94366145314531  0.93680653355336
 1  10.14456132143214 -0.07643744544454 -1.54803552645265
 1  8.85594278187819 -2.37504616741674 -1.45912513801380
 1  10.82551941294130 -2.64117579397940 -1.60414616021602
 1  9.97130557235724 -2.83168504600460 -0.09732325382538
 1  11.39177336743674  0.78646627042704  0.40714417701770
 1  11.33422099149915 -0.72712119761976  1.06486700840084
 1  12.79073558155815 -1.54349822882288 -0.80689413221322
 1  12.64200451705170 -0.06103337623762 -1.62074539303930
 1  13.73965500100010  1.11618201400140  0.40863603770377
 1  13.90488532403240 -0.42468542254225  1.33910348654865
 1  15.01378287568757  0.19405260506051 -1.37538418821882
 1  14.98752414741474 -2.04435271907191 -1.20315433593359
 1  16.54076081238124 -1.71234707420742 -1.00415180778078
 1  15.79246196379638 -2.29993961256126  0.24146684798480
 1  16.14788197979798  1.52757584628463  0.58142198579858
 1  16.50575689838984  0.08447225632563  1.19468146494649
 1  18.27328340564057 -0.39477795639564 -0.18430311501150
 1  17.74571729712972  0.70316327942794 -1.39779708430843
 1  18.26746845274528  2.63259198689869  0.38193468846885
 1  18.71719473367337  1.27431626842684  1.64377563316332
 1  20.41952018181818  0.53744447814781  0.24316725382538
 1  20.04906760396040  3.11038317041704 -1.69197417161716
 1  21.40452897009701  1.74762036583658 -1.46173149654965
 1  19.62671090689069  1.38456849344935 -2.05838101930193
 1  20.85707072017202  1.91622117241724  2.34947887568757
 1  22.05093893559356  2.10641875847585  0.71349324912491
 1  20.85885354805481  3.32953262376238  0.71494409880988
 1 -7.12822660516052  1.82223649564956  0.30073333013301
 1 -7.48852021862186 -0.21128600420042 -0.18306162636264

