%nproc=4
%Mem=2GB
# td=(NStates=1) B3LYP/SVP 

TD

0 1
 6 -5.19490234073407 -1.90792059805981  0.52012063716372
 6 -4.69461561976198  2.76030625962596  1.43283996009601
 6 -9.34973421702170  3.33851004730473 -0.19428404460446
 6 -9.89063091419142 -1.40602219681968 -1.09140528592859
 7 -5.26568331633163  0.38314477557756  0.85923338133813
 6 -4.51649974757476 -0.77655663926393  0.98435452105210
 6 -3.09850160386039 -0.68416890039004  1.41539478887889
 6 -3.08514266666667  0.89517463506351  1.85187969336934
 6 -4.43629858795880  1.39427647304730  1.42723463486349
 6 -2.92312881078108  0.96255455645565  3.39410926892689
 6 -2.15621096389639 -0.90930594469447  0.13446005370537
 6 -0.64233262136214 -0.96506536133613  0.62052981808181
 6  0.32976748264826 -1.07579449674968 -0.57814367156716
 8 -0.02883314741474 -1.38477816771677 -1.71912436703670
 8  1.57049212441244 -0.79588600710071 -0.19994498649865
 7 -7.06547972897290  2.73797853975398  0.53764435843584
 6 -5.94578875987599  3.43233996649665  1.00117424282428
 6 -6.20956222872287  4.86271435523552  0.93025457715772
 6 -7.54212727722772  4.99238056105611  0.54151938203820
 6 -8.04655010541054  3.63384198309831  0.22930426672667
 6 -5.25859501590159  5.89139292169217  1.52394839873987
 6 -8.09509609780978  6.36368608630863  0.14563961826183
 6 -9.14527205000500  6.65285457605761 -0.69007762406241
 7 -9.22833623292329  0.92408088268827 -0.62991996739674
 6 -9.83410518791879  2.12784608630863 -0.51228003870387
 6 -11.24285052305230  1.96552019151915 -0.99471354265427
 6 -11.46748218871887  0.64651869326933 -1.20957101870187
 6 -10.16436314471447 -0.03415046444644 -0.93892737313731
 6 -12.16568076527653  3.04637720682068 -0.94922935203520
 6 -12.67321741914192  0.02559346094609 -1.77168940394039
 6 -12.78353282288229 -0.34064871127113 -3.27394457885789
 7 -7.61673479917992 -1.30635494999500 -0.19911625672567
 6 -8.66775276077608 -2.00889750395039 -0.67071399979998
 6 -8.29571317851785 -3.37819242074207 -0.54544828332833
 6 -6.99123115131513 -3.35224110841084 -0.17868997429743
 6 -6.54410294989499 -2.03356515561556  0.07062921702170
 6 -9.12066605170517 -4.52420582058206 -1.13436594339434
 6 -5.78193431493149 -4.30223545044505  0.03239590919092
 8 -5.70961281738174 -5.46438294699470 -0.08323140274027
 6 -4.52533813841384 -3.31895900860086  0.41365661526153
 6 -3.84381679647965 -3.89653334853485  1.60327221252125
 8 -3.93818643034303 -3.50969192509251  2.79490995499550
 8 -3.17185970167017 -4.97047732903290  1.28395413841384
 6 -2.54167769806981 -5.72342324762476  2.34135060536054
 6  2.70756079947995 -1.02587127772777 -1.07749195449545
 6  4.03249735953595 -0.88231285468547 -0.40606721992199
 6  5.03968626882688 -0.13168412081208 -1.00583598819882
 6  4.97514802500250  0.66979082078208 -2.29382192119212
 6  6.34129784188419  0.04717734603460 -0.21015247834784
 6  7.59655388258826 -0.49002833593359 -0.82003935733573
 6  8.86298977597760 -0.29817502440244  0.01308642874287
 6  10.15317717241724 -0.76639112171217 -0.58107908780878
 6  10.14740853425343 -2.30848601440144 -0.73665778047805
 6  11.33533420802080 -0.21891156175618  0.22252978497850
 6  12.77552613721372 -0.59423790219022 -0.44727260446045
 6  13.89983639083908 -0.09210191329133  0.45143150575058
 6  15.28729055015502 -0.15035807160716 -0.28577241304130
 6  15.64982230983098 -1.67742190409041 -0.50782051755176
 6  16.35728832603261  0.64720563176318  0.45993925832583
 6  17.71788862756275  0.71415714961496 -0.18305281308131
 6  18.76766661766176  1.66342496149615  0.50338903180318
 6  20.02849274517452  1.75521114641464 -0.19585682528253
 6  20.19887081658166  2.50178961016102 -1.61701811081108
 6  21.05260572617262  2.57953168926893  0.77399380008001
 1 -4.03977214481448  3.43317970227023  1.89557179547955
 1 -10.08112569756976  4.12957239373937  0.15043636973697
 1 -10.75494383428343 -2.02842885288529 -1.18612850675067
 1 -2.77470352185218 -1.37767813191319  2.24398619331933
 1 -2.28695926352635  1.42362231333133  1.24336383478348
 1 -2.10288780468047  0.84538195989599  3.81979870517052
 1 -3.29986328662866  2.07366200980098  3.92027112831283
 1 -3.67201778117812  0.34139484178418  3.88005685138514
 1 -2.34834428832883 -1.64698857655766 -0.51819867616762
 1 -2.25463140174017 -0.03847637333733 -0.35774443514351
 1 -0.47234155755576  0.02488661456146  1.09012504300430
 1 -0.24846785968597 -1.98375755575558  1.17958507750775
 1 -4.28126278367837  5.91440957855785  0.72551568956896
 1 -5.77919913871387  6.79795491419142  1.34444004100410
 1 -4.91232300930093  5.62575242464247  2.69897095769577
 1 -7.55079517841784  7.19704673837384  0.71173247954795
 1 -9.53705909870987  5.73938192369237 -1.14716411241124
 1 -9.31586586578658  7.82138742404240 -0.82210191429143
 1 -12.12852740014001  3.42108260676068  0.14580218161816
 1 -11.89813873617362  3.88656362106211 -1.86474369186919
 1 -13.22574997499750  2.68304392259226 -1.27866091299130
 1 -13.18223304920492 -0.85983610991099 -1.14771934573457
 1 -13.60616135843584  0.67335699709971 -1.36638031533153
 1 -12.48756327132713  0.55323233833383 -3.96166500990099
 1 -12.08321452915292 -1.28163756015602 -3.44690548724873
 1 -14.01226930013001 -0.75647300540054 -3.47348120682068
 1 -10.16037358415842 -4.54292638453845 -0.67444324822482
 1 -9.20477238743874 -4.71258827232723 -2.34199472007201
 1 -8.74150585608561 -5.48924970487049 -0.73700835433543
 1 -3.71175690299030 -3.42215956725673 -0.42772583238324
 1 -2.31062793079308 -6.69047565126513  1.85181088508851
 1 -1.82345891759176 -4.89176891589159  2.94313876417642
 1 -3.36595765116512 -5.96237323732373  2.93835535573557
 1  2.74346613841384 -2.17868460956096 -1.54798193149315
 1  2.69308115101510 -0.38929036703670 -2.08011563086309
 1  3.93752518841884 -1.28832690319032  0.67849689408941
 1  5.69916518101810  1.59972767056706 -2.13720630803080
 1  5.40223718751875  0.08169412461246 -3.25928899599960
 1  3.98284476967697  0.74540734663466 -2.70327568446845
 1  6.43269336643664  1.01200434433443  0.29273407300730
 1  6.35441326712671 -0.65870145544554  0.63699339343934
 1  7.44316496959696 -1.57528157355736 -0.93451829792979
 1  7.78083783488349  0.01823732833283 -1.86175503320332
 1  8.93759820142014  0.75412326382638  0.19121037953795
 1  8.84051678157816 -0.74035112211221  1.05908876177618
 1  10.07968483378338 -0.33980378207821 -1.70401112401240
 1  9.23031021862186 -2.41023968676868 -1.18546777227723
 1  10.97421428242824 -2.77257893429343 -1.48097384298430
 1  10.23858230003000 -2.95030690819082  0.21168764726473
 1  11.35110930103010  0.88381600540054  0.48326178877888
 1  11.38082565196520 -0.70319880538054  1.31537205890589
 1  12.66072258025803 -1.66048992799280 -0.50423386618662
 1  12.65716603320332 -0.08711598449845 -1.38941225972597
 1  13.85693672917292  0.93761415721572  0.76225139923992
 1  13.76715155065507 -0.87971092509251  1.31257083328333
 1  14.82753425082508  0.35655885568557 -1.38226487628763
 1  14.57750314531453 -2.15431371517152 -0.58673269376938
 1  16.44189092539254 -1.80086592609261 -1.25108650125013
 1  15.92625534313432 -2.16177579617962  0.50458315961596
 1  16.01365855745575  1.66939002770277  0.63781762536254
 1  16.42629895259526  0.27634144324432  1.55137713451345
 1  18.30064614191419 -0.25486396499650 -0.28533321802180
 1  17.32592531793179  1.08170113321332 -1.15174247884788
 1  18.21614332023202  2.62785151285129  0.63803029802980
 1  18.85293830803080  1.12400123692369  1.44197545314531
 1  20.52750097989799  0.74822555625562 -0.22506956985699
 1  20.07510020722072  3.65813794589459 -1.40536551075107
 1  21.27135565276528  2.33917952175217 -1.98787411081108
 1  19.63845208100810  2.13352338893889 -2.36659184038404
 1  21.22915792889289  2.19334888518852  1.75986991479148
 1  22.15283912561256  2.54902301890189  0.33133503330333
 1  21.03495115781578  3.70300997149715  0.54885749014901
 1 -7.08656243874387  1.67202147414742  0.16961021782178
 1 -7.65365673227323 -0.32437731333133 -0.09942326252625

