%nproc=4
%Mem=2GB
# td=(NStates=1) B3LYP/SVP 

TD

0 1
 6 -5.10854370487049 -1.97838764476448  0.63444206930693
 6 -4.72501866006601  2.73622385138514  1.62301897799780
 6 -9.14787403100310  3.43374957125713 -0.24248886508651
 6 -9.87820967206721 -1.41928352295230 -0.86078222362236
 7 -5.12443919191919  0.40177663876388  0.95916337433743
 6 -4.48772687028703 -0.84068305190519  0.86728281388139
 6 -3.08229998369837 -0.65333581708171  1.37843109250925
 6 -3.02916706910691  0.72803792139214  1.95618012341234
 6 -4.37683264136414  1.37489453485349  1.41362327372737
 6 -2.88409490739074  0.78454675567557  3.54107396539654
 6 -2.12821816461646 -0.82077709180918  0.18863547124712
 6 -0.62426081418142 -0.86542539733973  0.49068683378338
 6  0.30875538143814 -1.27279419671967 -0.56429228642864
 8 -0.01595185928593 -2.01275096499650 -1.52129458405841
 8  1.60427550275028 -0.82376879537954 -0.32299729172917
 7 -6.93918709970997  2.79871461336134  0.46077667166717
 6 -5.84065824682468  3.36707343984398  0.98618274367437
 6 -6.04465573807381  4.76398448224823  1.05950750245025
 6 -7.38013107760776  5.00777210021002  0.61866709680968
 6 -7.93387883828383  3.72631123002300  0.30550188648865
 6 -4.91540069646965  5.71845562796280  1.50252625652565
 6 -7.93464005220522  6.34227394509451  0.33137819211921
 6 -8.85257278007801  6.83229251985199 -0.53060167646765
 7 -9.10908430773077  0.90990946554655 -0.48712568796880
 6 -9.75492727012701  2.20330363206321 -0.58480729142914
 6 -11.16946318431843  2.01622526202620 -1.10360443174317
 6 -11.29970541104110  0.69385342674267 -1.35405546714671
 6 -10.06532324072407  0.02647559815982 -0.92964644504450
 6 -12.05747994519452  3.11657422652265 -1.30358478757876
 6 -12.50691078847885  0.03891479307931 -1.87932016701670
 6 -12.40295476507651 -0.36369101550155 -3.32341952635264
 7 -7.58021114681468 -1.23418773327333 -0.13973031813181
 6 -8.61723770927093 -1.98385499969997 -0.54599152755276
 6 -8.25493910111011 -3.38749335083508 -0.53053679217922
 6 -6.87377940614061 -3.48463434773477 -0.24025613091309
 6 -6.44818335793579 -2.08861066016602  0.13740589468947
 6 -9.08245223032303 -4.56960036003600 -1.00148265506551
 6 -5.71031715321532 -4.26825205210521 -0.03286061646165
 8 -5.66271812791279 -5.49069557825783 -0.10699377897790
 6 -4.52630823542354 -3.32479959265927  0.44973022262226
 6 -3.96117853265326 -4.01493518871887  1.69882176747675
 8 -4.28787139883988 -3.65619657555756  2.82044250825083
 8 -3.15991850755075 -4.95970625192519  1.47838358135814
 6 -2.62002553285329 -5.64289519481948  2.62139861016102
 6  2.52391243464346 -1.16573526412641 -1.22053625892589
 6  3.77396150595060 -0.78639326272627 -0.67532414561456
 6  4.82689498969897 -0.15818677107711 -1.26181158575858
 6  4.74316482668267  0.54349819151915 -2.60724326332633
 6  6.15617933003300  0.15655828412841 -0.46568803190319
 6  7.35124935213521 -0.52991232433243 -1.03359071247125
 6  8.74546802380238 -0.14083929082908 -0.25518039793979
 6  10.00093194789479 -0.65378986158616 -0.71582256215622
 6  9.99495328872887 -2.21075624142414 -0.46223033773377
 6  11.17746842144214  0.00197052645265 -0.00056252425243
 6  12.52604118871887 -0.41234971337134 -0.64738261546155
 6  13.69592599979998  0.31113841074107  0.18889525212521
 6  15.13853567466747  0.06879384358436 -0.44328816461646
 6  15.43407073467347 -1.44850901280128 -0.57613734923492
 6  16.19450204740474  0.78867977917792  0.47588085248525
 6  17.65615245394539  0.74356008990899 -0.17198170597060
 6  18.55085493649365  1.65488410741074  0.74705339823982
 6  19.93484338023802  1.63243886918692  0.17502026242624
 6  20.20574150365037  2.21620105130513 -1.28634504350435
 6  20.98335880148015  2.41230496659666  1.02295869656966
 1 -4.00190835843584  3.40707709200920  2.14768700700070
 1 -9.63455104010401  4.44997443394339 -0.12144081798180
 1 -10.65608394829483 -2.09674568456846 -1.20446033993399
 1 -3.05493154465447 -1.35300566466647  2.21486328102810
 1 -2.19468003560356  1.53896384748475  1.55790528892889
 1 -1.85568308420842  0.54298171987199  3.78485521082108
 1 -2.84669797009701  1.74737938153815  3.87546664786479
 1 -3.76166674607461  0.07100780308031  3.98377722342234
 1 -2.34551400530053 -1.78530240794079 -0.39960681698170
 1 -2.20822676127613 -0.01824435013501 -0.76464512521252
 1 -0.36824114751475  0.02364649054905  1.00555658615862
 1 -0.34220723362336 -1.73258243824382  1.13636075507551
 1 -3.92080673807381  5.47383552115212  0.94690782878288
 1 -5.20217143594359  6.85242036073607  1.30661625862586
 1 -4.58795057205721  5.63733358275828  2.60390145074508
 1 -7.41023112201220  7.22173920762076  0.97027833413341
 1 -9.20561595439544  6.12193017851785 -1.30836023202320
 1 -8.82772705190519  8.05758104340434 -0.59940964506451
 1 -12.38662320972097  3.50717121562156 -0.37145954455446
 1 -11.61952087438744  3.92856782148215 -1.96227344484448
 1 -13.00511791179118  2.90034565276528 -1.67746079297930
 1 -12.65596042194219 -0.90115024132413 -1.34206878067807
 1 -13.40055079737974  0.66441610301030 -1.62500617791779
 1 -12.49237375237524  0.57935495059506 -4.10418926232623
 1 -11.40495670337034 -0.80770016641664 -3.35465626232623
 1 -13.07817589078908 -1.00979833793379 -3.53999785848585
 1 -9.83312085888589 -4.76235832773277 -0.18606441034103
 1 -9.71508341854185 -4.19413642714271 -1.92688320892089
 1 -8.52780448594859 -5.54709548944895 -1.11942659615962
 1 -3.61097682498250 -3.26236358765877 -0.26789984978498
 1 -2.18657552555256 -6.49140574427443  2.21179688368837
 1 -1.83114968666867 -5.11944168316832  3.15877032733273
 1 -3.33634468986899 -6.13412041204120  3.29652117231723
 1  2.56949874167417 -2.19026576767677 -1.43180031333133
 1  2.49597144004400 -0.57295873387339 -2.14222184148415
 1  3.79954139003900 -1.10262833333333  0.39404844924492
 1  4.84805006950695  1.67011470927093 -2.53071565896590
 1  5.60383734753475  0.31135709090909 -3.22519558665867
 1  3.93303978917892  0.22997580348035 -3.24976033293329
 1  6.21114121122112  1.32114525842584 -0.43544874527453
 1  6.10994882068207  0.06766118081808  0.66641633573357
 1  7.16254690779078 -1.65813985938594 -1.07571241734173
 1  7.32077182828283 -0.44105860126013 -2.12192104980498
 1  8.70045448704870  0.94354220572057 -0.10619936143614
 1  8.68510124002400 -0.51896898389839  0.63938679157916
 1  10.01559842514251 -0.52861266296630 -1.72872359525953
 1  9.04305149274928 -2.94643330613061 -0.89451867736774
 1  10.82077893889389 -2.61511318771877 -1.06756250185018
 1  10.08898734053405 -2.26004788228823  0.74006048454845
 1  11.18328251835183  0.92831045484548 -0.02290882828283
 1  10.99328689808981 -0.39208769426943  1.06580710241024
 1  12.64329083708371 -1.40269414841484 -0.55663910671067
 1  12.53560387698770 -0.21410868376838 -1.70205352385239
 1  13.47685872137214  1.37760815661566  0.07717289138914
 1  13.81032586808681 -0.19514246824682  1.27389696589659
 1  15.32774427182718  0.67536073587359 -1.55357200700070
 1  14.67262265726573 -2.02248053185319 -1.04736875737574
 1  16.33129986628663 -1.85326116561656 -1.13414480708071
 1  15.49813253085309 -2.07188680728073  0.18780148144814
 1  16.07698489008901  1.94948803750375  0.40455429902990
 1  16.23379970267027  0.55707951705171  1.47371936873687
 1  18.03353943124312 -0.19380785938594 -0.24992967766777
 1  17.44517724312431  1.32826578967897 -1.16141344594459
 1  18.22514422032203  2.62712143984398  0.71033752875288
 1  18.64149716391639  1.32118095489549  1.82873412901290
 1  20.35721395119512  0.64098483218322  0.01065400250025
 1  20.07719041624162  3.57677981008101 -1.22479745394539
 1  21.11106962416241  2.06547215101510 -1.66826214961496
 1  19.50954919071907  1.93472350895089 -2.27749293049305
 1  21.24214922802280  2.17370692099210  2.01595552335234
 1  22.04038788048805  2.43974209080908  0.47493939373937
 1  20.74949261196120  3.40117978847885  1.03900650505051
 1 -6.89558334083408  1.71468574057406  0.49327258405841
 1 -7.87553892049205 -0.26139101470147 -0.07259057925793

