%nproc=4
%Mem=2GB
# td=(NStates=1) B3LYP/SVP 

TD

0 1
 6 -5.10621347184718 -1.83097290329033  0.50957958305831
 6 -4.88332449064906  2.87223745274527  1.38756543264326
 6 -9.48399764336434  3.29750594689469 -0.20874549074908
 6 -9.85252710381038 -1.43074466906691 -0.84936108150815
 7 -5.18979572757276  0.50077653875388  0.83182064006401
 6 -4.50660875847585 -0.67257624122412  0.94414049964996
 6 -3.01669342304230 -0.36437692119212  1.45265851525153
 6 -3.15744989738974  1.12124724232423  1.80880538593859
 6 -4.44435939403940  1.52328937433743  1.23722563396340
 6 -3.10010650855086  1.05501380238024  3.40220007800780
 6 -2.01184652745274 -0.77198221232123  0.30353696139614
 6 -0.49140752885289 -0.79260811561156  0.61190895599560
 6  0.40370487638764 -0.90424734203420 -0.52089794699470
 8  0.07635737163716 -1.04194388428843 -1.63377583218322
 8  1.76682175737574 -0.96065248374837 -0.02403739573957
 7 -7.11752493349335  2.77426216811681  0.52977357135714
 6 -5.97026120712071  3.50091682418242  0.99996412181218
 6 -6.39490076257626  4.91999008280828  1.08356990869087
 6 -7.66462952745275  4.94035535853585  0.50753598369837
 6 -8.19727517791779  3.67643624252425  0.22657399369937
 6 -5.32403155955596  5.90334411681168  1.51475747964796
 6 -8.34135072327233  6.26501621932193  0.41965702000200
 6 -9.17503502630263  6.59174846544655 -0.55709432573257
 7 -9.28056145544554  0.82723119771977 -0.55792276767677
 6 -9.90151192859286  2.07190049174917 -0.55980479117912
 6 -11.31621785978598  1.73435707520752 -0.88472254355436
 6 -11.43503894439444  0.41388542994299 -1.24656471807181
 6 -10.14185089348935 -0.14682173157316 -0.90625410581058
 6 -12.36577077427743  2.99602217131713 -1.16417084618462
 6 -12.66164626202620 -0.34830392879288 -1.70506274127413
 6 -12.70613508310831 -0.74456910331033 -3.21556874127413
 7 -7.52302542824282 -1.22115643014301 -0.21154749984998
 6 -8.52284827032703 -2.04775138933893 -0.55656258465847
 6 -8.17423103030303 -3.34464906640664 -0.62268600710071
 6 -6.84578660686069 -3.30720660496050 -0.21137324262426
 6 -6.40621916151615 -2.00694249334933 -0.01764961086109
 6 -8.92524650975098 -4.54752815281528 -1.04326683348335
 6 -5.69772589408941 -4.29563479037904 -0.03758108850885
 8 -5.62987484358436 -5.51046755545555 -0.07886096569657
 6 -4.53313891849185 -3.33089020172017  0.35968121772177
 6 -3.88457087188719 -3.76041973717372  1.71768365366537
 8 -4.00955356705671 -3.40943189908991  2.84556502050205
 8 -3.01275379107911 -4.77201748304831  1.44628037103710
 6 -2.37021055135514 -5.49025993129313  2.47524399469947
 6  2.76265630903090 -1.20555924652465 -1.03900810611061
 6  4.04713882368237 -0.74083870727073 -0.42735934913491
 6  5.06864916511651 -0.07039799219922 -0.98047345194519
 6  4.84663517371737  0.58326216791679 -2.33687622662266
 6  6.31182489458946  0.12562519081908 -0.34129559265927
 6  7.61955618281828 -0.32440177327733 -1.12631998539854
 6  8.79127260426043 -0.26174138103810 -0.21221610151015
 6  10.10389224392439 -0.67404188678868 -0.93616459635964
 6  10.17739153255325 -2.11989715551555 -1.22193630833083
 6  11.27170784538454 -0.29018868946895 -0.10860332833283
 6  12.70228881348135 -0.66797527592759 -0.66267414461446
 6  13.81954836203620 -0.11544424752475  0.13461982458246
 6  15.29007082818282 -0.27026006180618 -0.55584942074207
 6  15.72363969156916 -1.70949511141114 -0.86306604210421
 6  16.34129672687269  0.48075898709871  0.42055531993199
 6  17.66743358205821  0.60674640854085 -0.14411891969197
 6  18.59406925792579  1.49592821182118  0.62548124102410
 6  20.12102199809981  1.56479210451045  0.32065482588259
 6  20.23136406590659  2.23876330753075 -1.01671808080808
 6  20.91251171677168  2.27696143224322  1.33507990869087
 1 -3.94936310391039  3.44359074337434  1.86051829012901
 1 -10.29553713871387  4.22562199869987 -0.46326500040004
 1 -10.59099743964397 -2.28369437943794 -1.26339623352335
 1 -2.87621367286729 -1.08734909900990  2.19026082078208
 1 -2.25676624422442  1.50805075617562  1.42261175957596
 1 -2.13461097699770  0.86919434113411  3.90672739803980
 1 -3.28673197349735  2.12312695629563  3.69604870607061
 1 -4.20276085548555  0.56170687298730  3.87433627932793
 1 -2.20454990889089 -1.78272214991499 -0.07753460976098
 1 -2.31681762036204  0.04027150145015 -0.56313497419742
 1 -0.34879920332033  0.18123224912491  1.14938096859686
 1 -0.38924193709371 -1.52529170917092  1.53153027202720
 1 -4.60995565296530  6.07818595619562  0.75952909090909
 1 -5.76525774457446  6.92200731943194  1.69066466346635
 1 -4.82254403140314  5.81056090549055  2.53886494709471
 1 -7.99710980988099  7.04283131683168  1.09230053635364
 1 -9.62480787358736  5.86230421592159 -1.20970036603660
 1 -9.60256453565357  7.69325461076108 -0.63557326142614
 1 -12.40755530293029  3.55712621112111 -0.17594999359936
 1 -12.18109703200320  3.74922988768877 -1.99092631013101
 1 -13.30413781378138  2.45186080428043 -1.56155920282028
 1 -12.54804963086309 -1.27894802110211 -0.97322189598960
 1 -13.45360610291029  0.37410707210721 -1.44746842414241
 1 -12.76514102910291  0.28719573467347 -3.92553139653965
 1 -11.83267947564756 -1.39593899029903 -3.58178897559756
 1 -13.81332940614062 -1.15400275837584 -3.65318917761776
 1 -9.78296584338434 -4.96165825772577 -0.21215701960196
 1 -9.27177908810881 -4.25904291779178 -2.18299882048205
 1 -8.28792049754976 -5.53098387828783 -1.05341999549955
 1 -3.53882961026103 -3.40164751605160 -0.44914797459746
 1 -1.71580844884488 -6.34506110981098  2.22455815981598
 1 -1.77772434413441 -4.76442618161816  3.20318476877688
 1 -3.29699075447545 -6.02425942594259  3.05707722792279
 1  2.71452324412441 -2.14167090819082 -1.48121525482548
 1  2.31109295219522 -0.47457889588959 -1.87553517281728
 1  4.20937237313731 -1.01313938443844  0.53404244864486
 1  5.12281754625463  1.72627032483248 -2.31133372077208
 1  5.44170113391339  0.08087404260426 -3.21037410451045
 1  3.79536602180218  0.44160696659666 -2.92655801270127
 1  6.39580967806781  1.24914805870587 -0.19967516791679
 1  6.26694452025203 -0.36014159945995  0.69216891099110
 1  7.50747140024002 -1.41442548794879 -1.35515036113611
 1  7.45166491759176  0.27160266486649 -2.14487334503450
 1  8.85634007560756  0.78117596909691  0.36704796329633
 1  8.71140387028703 -1.12080916791679  0.66903975687569
 1  10.17342420772077 -0.08106790849085 -1.81895261816182
 1  9.25650283788379 -2.47344600740074 -1.62561178667867
 1  11.06714357535754 -2.52820449684969 -1.79531527712771
 1  10.01738017981798 -2.80700257775778 -0.17374089558956
 1  11.40744493459346  0.61527915171517  0.10928439103910
 1  11.11287885728573 -0.61913039853985  0.92621314301430
 1  12.82670917891789 -1.67422130113011 -0.60936437923792
 1  12.97232754935493 -0.38812608550855 -1.60424374287429
 1  13.48101913741374  1.00397079287929  0.47180235433543
 1  13.92808764426443 -0.62062501650165  1.26167574377438
 1  15.39227072447245  0.27986118591859 -1.53525017481748
 1  15.00196559155916 -2.31539982378238 -1.43985800630063
 1  16.70859759605961 -1.79395523502350 -1.18598999159916
 1  15.59161187878788 -2.18338795739574  0.14587728902890
 1  15.81059825142514  1.55759884858486  0.58007185078508
 1  16.32031835453546 -0.01150734163416  1.41344334113411
 1  18.32557863516352 -0.28318679727973 -0.21286597129713
 1  17.71195392079208  1.04185714881488 -1.12548985358536
 1  18.17106881278128  2.61984071177118  0.63067956295630
 1  18.16350936513652  1.16983582038204  1.71261251685168
 1  20.36782501230123  0.42310304400440 -0.04693175607561
 1  19.53883658085809  3.13638577067707 -1.27306228042804
 1  21.37570608780878  2.58674427822782 -1.22047737113711
 1  19.60965920172017  1.57154719131913 -1.77788296949695
 1  20.81799681278128  1.81099064936494  2.38664259205921
 1  22.05995983768377  2.17878599519952  1.17864976477648
 1  20.75157281998200  3.44763443394339  1.20271287568757
 1 -7.01993577607761  1.64781905390539  0.42458571537154
 1 -7.53716508310831 -0.17226210181018 -0.21523484368437

