%nproc=4
%Mem=2GB
# td=(NStates=1) B3LYP/SVP 

TD

0 1
 6 -5.07234008450845 -1.99412921892189  0.47335596069607
 6 -4.66739289748975  2.68947917691769  1.55407208330833
 6 -9.16241548514851  3.28808500480048 -0.21729634583458
 6 -9.76851870297030 -1.42541413601360 -0.96239238463846
 7 -5.17352410041004  0.37381384248425  1.10953841184118
 6 -4.52035013261326 -0.78321730533053  0.96531261686169
 6 -2.97315906960696 -0.64245472897290  1.37806105550555
 6 -2.99253340574057  0.81229634723472  1.98906341174117
 6 -4.35978093619362  1.35645269066907  1.55602751415142
 6 -2.96361285918592  0.77624592559256  3.54745460346035
 6 -2.07134247704770 -0.74129914401440  0.19689629732973
 6 -0.67006539463946 -0.67935679047905  0.56443420852085
 6  0.30778528442844 -0.90589750705070 -0.63612947014701
 8 -0.01300156425643 -0.93839352925293 -1.83706616121612
 8  1.71994706990699 -1.00847726622662 -0.10941593359336
 7 -6.86637981898190  2.76440118201820  0.46541713571357
 6 -5.84237841884188  3.35741247374737  1.12243636903690
 6 -6.17571884438444  4.71578966276628  1.22429398109811
 6 -7.37238030253025  4.97073839683968  0.50644587468747
 6 -7.89094454485449  3.61386998589859  0.17861919821982
 6 -5.22860201660166  5.83174695709571  1.68130413431343
 6 -7.98674526272627  6.28955867356736  0.25740079437944
 6 -8.91455897869787  6.72518180878088 -0.60780939723972
 7 -9.13644704400440  0.85077355195520 -0.47097407280728
 6 -9.75941771917192  2.03156645834583 -0.58761757245725
 6 -11.13071930993099  1.94268790829083 -1.10462453375338
 6 -11.28250369086909  0.58425246664666 -1.28033809540954
 6 -10.13637034543454 -0.08121517091709 -0.88593207360736
 6 -12.17062125932593  2.98688125722572 -1.20415484458446
 6 -12.44191428882888 -0.10696979537954 -1.82879511451145
 6 -12.45721019061906 -0.42593724012401 -3.33448063246325
 7 -7.40878400410041 -1.23892820732073 -0.37625397049705
 6 -8.53728971447145 -2.06810342454245 -0.75780270867087
 6 -8.06630023722372 -3.40592519401940 -0.81664540304030
 6 -6.83624565276528 -3.40160604490449 -0.34102620792079
 6 -6.38038657825783 -2.01877367646765  0.03107526162616
 6 -8.99247323242324 -4.51774517451745 -1.27498000480048
 6 -5.70769689118912 -4.30863609050905 -0.00189752015202
 8 -5.74538639473947 -5.55467197589759 -0.06022910251025
 6 -4.37443304790479 -3.32849996269627  0.47424267386739
 6 -4.13949636443644 -3.82220591579158  1.87373925922592
 8 -4.31677428912891 -3.34868582448245  2.96198666266627
 8 -3.33663617931793 -5.02504278557856  1.80166590959096
 6 -2.89488301860186 -5.52800370567057  3.02879935023502
 6  2.62611265466547 -1.11957064766477 -1.24923912921292
 6  3.97011112091209 -0.87439206260626 -0.58351496469647
 6  4.86471877207721 -0.05899685208521 -1.20979638423842
 6  4.71207171737174  0.74812865456546 -2.47046958595860
 6  6.18187189928993  0.18566119441944 -0.36885834893489
 6  7.42479670687069 -0.36575590869087 -1.04446179957996
 6  8.68570204720472 -0.29465467236724 -0.19106398629863
 6  9.98853070777078 -0.75068955155516 -0.87940892079208
 6  10.04890868426843 -2.22313747954795 -1.06244035873587
 6  11.21535220982098 -0.26242591319132 -0.07160962896290
 6  12.60038862346235 -0.58563704210421 -0.59905778297830
 6  13.81118752595259 -0.04634733783378  0.31194755735574
 6  15.19138095919592 -0.28759179497950 -0.33351718751875
 6  15.65353268086809 -1.71924608650865 -0.47219695519552
 6  16.26981957915792  0.62453336453645  0.42889615401540
 6  17.71869870857086  0.54916064996500 -0.05454996279628
 6  18.55449530053005  1.66653527252725  0.65392408530853
 6  19.99569946584658  1.77147277257726  0.07767052745275
 6  20.02035296479648  2.31374080528053 -1.36353276227623
 6  20.79235970157016  2.76948068416842  0.93077947864786
 1 -3.97476564416442  3.47151353565356  1.82948518681868
 1 -9.95775336033603  4.14307374387439 -0.17361603550355
 1 -10.46259459935994 -2.03033904390439 -1.42041193509351
 1 -2.67091314281428 -1.45136550065007  2.11745354005401
 1 -2.25850641824182  1.46995694679468  1.54823432183218
 1 -1.90897841374137  0.60577799949995  3.97628435373537
 1 -3.25829913021302  1.79672431603160  3.90743984518452
 1 -3.75488606800680 -0.06443574127413  3.89385823152315
 1 -2.29184863876388 -1.57703158085809 -0.29608646494649
 1 -2.34127006560656 -0.05019754545455 -0.64552321302130
 1 -0.30102442584258  0.12868699459946  0.89901593209321
 1 -0.55367838073807 -1.68296747674767  1.35277239623962
 1 -4.51707636503650  5.89819795739574  1.15121825982598
 1 -5.53849506830683  6.93822894159416  1.65770136713671
 1 -5.10280205720572  5.53360320972097  2.70601166176618
 1 -7.48983908280828  6.92726976067607  0.95485679197920
 1 -9.08970436323632  5.90173815931593 -1.52790218621862
 1 -9.23468774797480  7.74217950325033 -0.75833553765377
 1 -12.18305285268527  3.25490598909891 -0.23039543814381
 1 -11.94302322462246  3.91393635833583 -1.89843706120612
 1 -13.12683008300830  2.73918953715372 -1.70774382128213
 1 -12.65092991889189 -1.06395652195220 -1.04621919571957
 1 -13.42092283458346  0.44859452085209 -1.65795947324732
 1 -12.58466298129813  0.67918493359336 -3.72699154255426
 1 -11.43965017271727 -0.93058245464546 -3.58411920862086
 1 -13.42898097129713 -1.18019537763776 -3.73742760146015
 1 -9.88990653745375 -4.65516760866087 -0.57965376927693
 1 -9.43379528972897 -4.39443645714571 -2.14896541714171
 1 -8.36865857135714 -5.45168594849485 -1.38012266576658
 1 -3.57055278257826 -3.38099545084508 -0.09838289808981
 1 -2.09340620862086 -6.33444004770477  2.92999870387039
 1 -2.39752632433243 -4.64023376237624  3.56464091439144
 1 -3.83102415781578 -5.85423242324232  3.78873039323932
 1  2.29023081488149 -2.08846558765877 -1.59886702000200
 1  2.15528737163716 -0.37519895789579 -1.90923854315432
 1  4.24095553145315 -1.39221729222922  0.33262230663066
 1  5.09494475897590  1.71467916571657 -2.49819240664066
 1  5.20969793359336  0.24568052325232 -3.32455552265227
 1  3.71155764096410  0.81991479737974 -2.92932828972897
 1  6.34657475457546  1.38868201210121 -0.10470567096710
 1  6.17283510931093 -0.53857944324432  0.71024071817182
 1  7.21241189428943 -1.41964601000100 -1.31827667376738
 1  7.62822257335734  0.02523802840284 -1.94257311501150
 1  8.64962940454045  0.79455730723072  0.05757701620162
 1  8.37451018091809 -0.91790887788779  0.72643549644964
 1  10.15330219551955 -0.23741354305431 -1.88299902280228
 1  9.13220040764076 -2.40720938373837 -1.54826405190519
 1  10.86235309630963 -2.65972764916492 -1.83003874947495
 1  10.07915635743574 -2.79000087758776  0.04330080858086
 1  11.10018420852085  0.79225684948495 -0.03927046444644
 1  11.10295786518652 -0.66210469596960  0.95973649534953
 1  12.83145965396540 -1.62199607860786 -0.93082652545255
 1  12.57930824742474 -0.09214648754876 -1.54510782928293
 1  13.46998803430343  0.99776017181718  0.41745691979198
 1  13.62659749524953 -0.72046500050005  1.21941151735174
 1  15.00554205160516  0.36744994479448 -1.34176082588259
 1  14.73950934593459 -2.31789007280728 -0.99607362786279
 1  16.49058579487949 -1.79648548804880 -1.36012740534053
 1  15.85650836843685 -2.28289790839084  0.53456615791579
 1  15.75841303290329  1.58698178687869  0.40596444004400
 1  16.18250457315732  0.22382619171917  1.44090608740874
 1  18.19812588988899 -0.43715219381938 -0.17635231993199
 1  17.62377510291029  0.74041700480048 -1.11531883648365
 1  17.96714842074207  2.57062579027903  0.45717221222122
 1  18.61800481468147  1.36903574037404  1.68049930553055
 1  20.50447867766777  0.73119385308531  0.01832476957696
 1  19.46664936213622  3.27318945104510 -1.40506548074808
 1  21.00695921312131  2.51963756755676 -1.86262158555856
 1  19.65611384718472  1.54050408700870 -1.92727790899090
 1  20.66848186128613  2.54278382868287  1.92394632243224
 1  21.88030187188719  2.80662877947795  0.60676257605761
 1  20.43641130383038  3.80694036453645  0.95717832223222
 1 -7.03457724022402  1.73608788078808  0.36216947374738
 1 -7.58122948954895 -0.24144902050205 -0.13498681888189

