%nproc=4
%Mem=2GB
# td=(NStates=1) B3LYP/SVP 

TD

0 1
 6 -5.10209305980598 -2.01507131313131  0.54832345744574
 6 -4.71825798399840  2.75741597059706  1.41698837493749
 6 -9.42091133473347  3.39645584188419 -0.20827544374437
 6 -9.76219807090709 -1.40898249284928 -0.93749989538954
 7 -5.14593134113411  0.44191065216522  0.85734319231923
 6 -4.47577567516752 -0.76538552215222  0.85426151175117
 6 -3.01544329802980 -0.58620910441044  1.30593384278428
 6 -3.04232838523852  0.77619273687369  1.97966247164716
 6 -4.37937289538954  1.39245629102910  1.40468237963796
 6 -2.99403590149015  0.67379568056806  3.56394625262526
 6 -2.08186352915292 -0.57342235633563  0.09388599629963
 6 -0.53497188528853 -0.51829068386839  0.53247101220122
 6  0.39936444234423 -0.77912482978298 -0.64481033823382
 8  0.03276301220122 -1.11340103000300 -1.73204565916592
 8  1.65787086228623 -0.57621403990399 -0.23589858185819
 7 -7.00400358135813  2.74816955885589  0.43441403540354
 6 -5.97317149814982  3.34283101560156  1.01364548994899
 6 -6.22108338083808  4.70806889068907  1.10198174987499
 6 -7.54930799529953  4.97531885488549  0.49704493459346
 6 -8.08363381378138  3.67809640854085  0.25720705700570
 6 -5.23749290569057  5.83326710911091  1.55287129102910
 6 -8.02125871407141  6.28277799549955  0.23118817311731
 6 -8.88796631943194  6.66274556515652 -0.72919153545355
 7 -9.25732913221322  0.90134860946095 -0.50389736513651
 6 -9.83913569096910  2.05489879157916 -0.44683349404941
 6 -11.24520075807581  1.80729436893689 -1.00148421972197
 6 -11.35678111861186  0.47602164356436 -1.17344740634063
 6 -10.08623533193319 -0.08793584298430 -0.91422490289029
 6 -12.22744694189419  2.91302387148715 -1.18036246534653
 6 -12.65447554495450 -0.27219631803180 -1.68305054005401
 6 -12.58500296989699 -0.69625427182718 -3.15078226262626
 7 -7.39659278497850 -1.30627494199420 -0.20816716181618
 6 -8.56303228872887 -2.06710332453245 -0.65129205760576
 6 -8.25177878507851 -3.52116671817182 -0.61168490699070
 6 -6.83159518771877 -3.47957384168417 -0.23862596789679
 6 -6.45330386998700 -2.08332013111311  0.03753590769077
 6 -9.04318830393039 -4.66448984898490 -1.13944645144514
 6 -5.57218333983398 -4.31572679957996 -0.03849117951795
 8 -5.55789764586459 -5.46195270397040 -0.24474755435544
 6 -4.44282988758876 -3.41238835153515  0.46355160476048
 6 -3.97972038683868 -3.85535923112311  1.81821370667067
 8 -4.42949556125613 -3.47512846874687  2.93118358235824
 8 -2.97146966266627 -4.82822310361036  1.68621436443644
 6 -2.46424995529553 -5.45518642394239  2.86991346164616
 6  2.68404844824482 -1.03181187178718 -1.27620182548255
 6  4.01790590039004 -0.60447507090709 -0.55001161436144
 6  4.89903220342034  0.36662571017102 -1.02918832343234
 6  4.82230274047405  1.13271711341134 -2.35437797679768
 6  6.28906261836184  0.38465109340934 -0.33094455755576
 6  7.44119834703470 -0.37987732083208 -1.03058041144114
 6  8.82680615761576 -0.22606781368137 -0.18648352825283
 6  9.97981983668367 -0.71628611121112 -0.91694267416742
 6  9.91315510891089 -2.18585375117512 -1.07910202490249
 6  11.25623629822982 -0.23801347194719 -0.06154862286229
 6  12.58320690529053 -0.53933241164116 -0.62000987818782
 6  13.83534994219422 -0.15132783588359  0.23277964056406
 6  15.25375719681968 -0.35070810661066 -0.39436327212721
 6  15.54649197679768 -1.80281444334433 -0.59702943844384
 6  16.26189878707871  0.53368427962796  0.36373963836384
 6  17.66830366906690  0.50329606350635 -0.21369587738774
 6  18.56168601960196  1.42615123412341  0.60607930083008
 6  20.00866076197620  1.62293791909191  0.21111387178718
 6  20.16209713921392  2.11625105630563 -1.27125353435344
 6  20.81216168176818  2.30139387548755  1.28043444414441
 1 -3.93700186778678  3.58300468476848  1.64899713801380
 1 -10.09775736073607  4.04478391489149 -0.36441511541154
 1 -10.44382272217222 -2.04317032703270 -1.15981587548755
 1 -2.72913896539654 -1.19829019311931  2.13389518421842
 1 -2.07385795339534  1.34687463856386  1.79311881028103
 1 -2.07621513741374  0.46031345304530  3.95862258755876
 1 -3.25781908220822  1.66706134973497  3.91908100930093
 1 -3.79280986038604  0.05198590089009  4.08242708840884
 1 -2.28016747064707 -1.22146602430243 -0.66279313561356
 1 -2.30683662226223  0.19482695699570 -0.60710937163716
 1 -0.33751807520752  0.34456858275828  1.10409644014401
 1 -0.19319233213321 -1.36012519251925  1.10454757375738
 1 -4.57168182558256  6.27628576617662  0.60221335933593
 1 -6.03012423122312  6.77153227192719  1.78438403540354
 1 -4.60322209920992  5.40924077347735  2.38862992359236
 1 -7.87528762766277  6.97990502420242  0.95226653295330
 1 -9.11494688748875  6.06587457295730 -1.54492388838884
 1 -9.42178645784579  7.68736402170217 -0.65328503260326
 1 -12.38898344574457  3.43314381288129 -0.17234963356336
 1 -12.07405632793279  3.65562052675268 -1.98917613511351
 1 -13.17798519851985  2.42182780098010 -1.51179422632263
 1 -12.85111993789379 -1.17111723802380 -1.01888646244624
 1 -13.46470721302130  0.31376103750375 -1.40537421472147
 1 -12.37397191219122  0.27279429452945 -3.79697854125413
 1 -11.73302951065107 -1.40227962436244 -3.62243304000400
 1 -13.56650472367237 -1.02338969706971 -3.51641550025003
 1 -9.87713526032603 -4.94155624752475 -0.30424622852285
 1 -9.55657756795680 -4.47390440394039 -2.01259177977798
 1 -8.33829553505351 -5.51195197509751 -1.14072872637264
 1 -3.81951767906791 -3.75405275657566 -0.13691675147515
 1 -1.82422929092909 -6.18555515921592  2.70689639363936
 1 -1.93810038173817 -4.67950768976898  3.54022847314731
 1 -3.33398445384538 -5.72880988098810  3.58002952315231
 1  2.69575136693669 -2.25437217831783 -1.47023415671567
 1  2.56439828272827 -0.49024046204621 -2.19568718801880
 1  4.42158359425943 -1.01445951645165  0.37842688708871
 1  5.13327859235924  2.18190588838884 -2.32079466686669
 1  5.18259522332233  0.43641959715972 -3.16540960806081
 1  3.61079756495650  1.14842764866487 -2.55844120102010
 1  6.64144424152415  1.32094523842384 -0.26689188958896
 1  6.24679250505050  0.00724513921392  0.67504719881988
 1  7.22351300440044 -1.43356740214021 -1.01103594969497
 1  7.86630638173817  0.04921042564256 -2.12917177487749
 1  8.67434187578758  0.91987983948395  0.05863712221222
 1  8.76641937183718 -0.79645673267327  0.70729358225823
 1  10.16588345364536 -0.13446324802480 -1.75715643854385
 1  8.91237842544255 -2.32893155595560 -1.62462168766877
 1  11.03523038403840 -2.57708938533853 -1.46267201280128
 1  9.76703514531453 -2.80877275477548 -0.10637415891589
 1  10.94525871597160  0.95130275407541  0.10621408400840
 1  11.20477804720472 -0.67888637413741  1.02521304300430
 1  12.64485099309931 -1.63964784378438 -0.70756419921992
 1  12.59469978657866 -0.07327460036004 -1.53504682318232
 1  13.75675671117112  0.95053544934493  0.40283545764576
 1  13.78419325482548 -0.69934288828883  1.28143771997200
 1  15.18505000240024  0.12806600640064 -1.39646629642964
 1  14.58417381238124 -2.25344362816282 -1.13585760626063
 1  16.47546428272828 -2.12595843534353 -1.16998839143914
 1  15.75152787038704 -2.33253287188719  0.39041174247425
 1  15.74996218781878  1.61105419411941  0.26079992359236
 1  16.29579590229023  0.26696050515051  1.56160815761576
 1  17.86379245654566 -0.62486096469647 -0.35609029372937
 1  17.76842956835684  0.81179414251425 -1.30702800740074
 1  18.15565727162716  2.53116184388439  0.56138263326333
 1  18.34937795199520  1.34909374617462  1.66936819241924
 1  20.33178140794080  0.48840957465747  0.26591952905291
 1  20.30236293349335  3.37186931903190 -1.28408338253825
 1  21.34285280248025  1.72358796259626 -1.38076339973997
 1  19.57303553935393  1.63047308390839 -2.01594677587759
 1  20.56167118021802  2.12542209250925  2.33182711051105
 1  21.72932677437744  2.17561567816782  1.13423532333233
 1  20.60159782248225  3.48454812531253  1.42221482588259
 1 -7.17095087758776  1.70466473847385  0.44669792659266
 1 -7.45385675227523 -0.27258213381338 -0.36715003520352

