%nproc=4
%Mem=2GB
# td=(NStates=1) B3LYP/SVP 

TD

0 1
 6 -5.16411926242624 -1.89520932693269  0.38505713081308
 6 -4.73329948814881  2.70821105010501  1.42660933703370
 6 -9.31836107970797  3.37273346964696 -0.19736435263526
 6 -9.83394524562456 -1.40235182978298 -0.86580272567257
 7 -5.21501824982498  0.43725018611861  0.83156061406141
 6 -4.58205630323032 -0.76322530613061  0.90407649324932
 6 -3.08917067076708 -0.63826430993099  1.32472572197220
 6 -3.13741789418942  0.80804592219222  1.93522802820282
 6 -4.33673863196320  1.36845389078908  1.37907981938194
 6 -3.18106460436044  0.79485778677868  3.58167802580258
 6 -2.10145548834883 -0.78769378347835  0.25503211091109
 6 -0.48092648074807 -0.70742959775978  0.62404016911691
 6  0.40359486538654 -1.01361827912791 -0.49614547174717
 8  0.13104284018402 -1.44079376927693 -1.56464891949195
 8  1.71480655585559 -0.78172459095910 -0.10135512751275
 7 -6.98478165916592  2.74844958685869  0.40592118611861
 6 -5.84858903990399  3.37947467996800  0.96261038643864
 6 -6.20751202370237  4.78659674347435  1.05929748144815
 6 -7.40829389388939  5.01780310331033  0.44681991209121
 6 -7.98276372677268  3.70192879177918  0.21126246254625
 6 -5.13626278267827  5.83899768216822  1.43011901580158
 6 -8.06876346454645  6.29401911961196  0.31968702300230
 6 -9.01370889368937  6.58823811441144 -0.64844346064606
 7 -9.12224562386239  0.87709618421842 -0.41266824222422
 6 -9.86636841424142  2.12096539823982 -0.51181999269927
 6 -11.19704594259426  1.93355699519952 -0.93085715701570
 6 -11.33831927242724  0.63464750615062 -1.25073513511351
 6 -10.04045075347535  0.06911986258626 -0.93148662906291
 6 -12.17877207440744  3.01853442254225 -1.21240566966697
 6 -12.62007210461046 -0.08893799219922 -1.64862709770977
 6 -12.66012048164817 -0.34573922032203 -3.20247743214321
 7 -7.49835296099610 -1.18214252875288 -0.21693803890389
 6 -8.65328131363136 -1.97644425862586 -0.61836876527653
 6 -8.16575018221822 -3.46844144564456 -0.64917865636564
 6 -6.88703073127313 -3.43452933723372 -0.30515262056206
 6 -6.52709124872487 -2.00007180628063 -0.00736858275828
 6 -8.99275326042604 -4.58899229922992 -0.97497000380038
 6 -5.65430155165517 -4.32001722862286 -0.05073240364036
 8 -5.47688954505451 -5.51538804750475 -0.21345442504250
 6 -4.57880348494849 -3.29610672337234  0.44740999059906
 6 -4.02868528332833 -3.88545224042404  1.73390527582758
 8 -4.38809142084208 -3.58368932483248  2.90231069506951
 8 -3.32450496619662 -5.07553783508351  1.57376311931193
 6 -2.78181171147115 -5.55881678697870  2.87683415371537
 6  2.66157620102010 -1.01201989258926 -1.14555876117612
 6  4.05838994879488 -0.72809743314331 -0.49999661286129
 6  4.98576087628763 -0.00611156355636 -1.10762616721672
 6  4.91414192439244  0.75025886758676 -2.44352689168917
 6  6.24709842194219  0.21021364966497 -0.36661812491249
 6  7.48242246944694 -0.42949228232823 -1.05390274367437
 6  8.77416089308931 -0.33335854275428 -0.24618949884988
 6  10.09076093079308 -0.73436791939194 -0.86999797969797
 6  10.05050884428443 -2.29827499329933 -1.05696981168117
 6  11.36880755535553 -0.26124579517952 -0.10754322232223
 6  12.67657624222422 -0.45748422682268 -0.80129800700070
 6  13.90476688388839 -0.06408911201120  0.16113247584758
 6  15.27993981508151 -0.22999603540354 -0.35756959275928
 6  15.65050237783778 -1.70265442734273 -0.48531826732673
 6  16.28783138033803  0.54027493869387  0.44354761916192
 6  17.66483332203220  0.79180491439144 -0.22392690049005
 6  18.58409826082608  1.67109572857286  0.67122581548155
 6  20.01272116801680  1.76452207750775  0.12293505390539
 6  20.02155308480848  2.42146157735774 -1.21055746474647
 6  20.94561502710271  2.40426416251625  1.13618001870187
 1 -4.11662983058306  3.43360974527453  1.92984522282228
 1 -9.82897048204820  4.25581501800180 -0.20842951685169
 1 -10.65422376227623 -2.12807881788179 -1.25805569946995
 1 -2.75729178067807 -1.32703306740674  2.14819661436144
 1 -2.17015758335834  1.46236618771877  1.55042454085409
 1 -2.27230474637464  0.52136955865587  4.10401712701270
 1 -3.45079838013801  1.81372601620162  4.02190129132913
 1 -3.96217679707971  0.20283098539854  3.88801764746475
 1 -2.22578203210321 -1.83575745344534 -0.36841369766977
 1 -2.31577751635164 -0.10809333503350 -0.60371903260326
 1 -0.36170049344934  0.26170029592959  1.11118714921492
 1 -0.27111012391239 -1.70854003400340  1.23902102110211
 1 -4.22368702610261  5.91173931153115  0.92241537953795
 1 -5.60912213101310  6.75832095079508  1.30926652365236
 1 -4.84255603260326  5.68168801820182  2.59237029762976
 1 -7.75856595549555  6.88984601830183  1.07530883718372
 1 -8.94133952675267  5.87542552805280 -1.61283067906791
 1 -9.64985926512651  7.37898318361836 -0.77468717281728
 1 -11.99527407480748  3.84876537503750 -0.21032343094309
 1 -12.04684360666067  3.53103806850685 -2.13549076657666
 1 -13.28789618961896  2.41990760896090 -1.28402144904490
 1 -12.60604543044304 -1.25807593389339 -1.19702427622762
 1 -13.41530227252725  0.38261792319232 -1.23909758705870
 1 -12.59452396739674  0.63357037213721 -3.69552839623962
 1 -11.88134434213421 -1.16093548994899 -3.52937373407341
 1 -13.55482355555556 -0.79505686378638 -3.40031389008901
 1 -9.98140568736874 -4.84157624952495 -0.23955975987599
 1 -9.43387529772977 -4.30546756025603 -1.96809733033303
 1 -8.45661736723672 -5.63703448334833 -1.17063171667167
 1 -3.84742046934694 -3.32257960926093 -0.40939399919992
 1 -1.91497836583658 -6.27465406910691  2.39990569456946
 1 -2.37449402110211 -4.73201294029403  3.22394684498450
 1 -3.58366942234223 -5.90624762476248  3.56894841504150
 1  2.41788358015802 -2.03512025312531 -1.36984411771177
 1  2.57232907580758 -0.47373881188119 -2.01023864316432
 1  4.20119155505551 -1.18836690719072  0.56842588698870
 1  4.98597386188619  1.71758945674567 -2.10206279367937
 1  5.70234719851985  0.37239319451945 -3.09876294339434
 1  3.85116160136014  0.61211401730173 -2.83026838373837
 1  6.49815991309131  1.30515365926593 -0.54524972537254
 1  6.15785361116112 -0.05375096039604  0.76447614171417
 1  7.41715236833683 -1.61478552395240 -1.21913675977598
 1  7.78458820992099 -0.09753424882488 -2.05291414911491
 1  8.81495593719372  0.83460131163116 -0.06524526602660
 1  8.69561229112911 -0.75766285328533  0.77685053795380
 1  10.00802766806681 -0.47081688338834 -1.83774449734973
 1  9.33809099669967 -2.65663432623262 -1.89710893639364
 1  11.17094395539554 -2.78090976737674 -1.25496124172417
 1  9.63602204400440 -2.67561943944394  0.00653713221322
 1  11.36373056315631  1.08465608940894  0.14409787238724
 1  11.38532610201020 -0.77341582708271  0.88303882558256
 1  12.81820832883288 -1.48183206220622 -1.00871431423142
 1  12.94421473807381  0.35245797289729 -1.66606992549255
 1  13.69048008350835  1.06869726552655  0.51274644874487
 1  13.79847468296830 -0.57971092509251  1.12343191939194
 1  15.02182367976798  0.35388858865887 -1.33666031583158
 1  14.95650104510451 -2.27084536833683 -1.14792881338134
 1  16.67063379967997 -2.05878171767177 -0.99496088868887
 1  15.46370908850885 -2.07321694029403  0.36215891719172
 1  15.66697388898890  1.46078916761676  0.54658850245024
 1  16.50028635133513  0.36621043014301  1.60886288308831
 1  17.86169224652465 -0.27605608420842 -0.57284196889689
 1  17.39744246964696  1.24574753785379 -1.31097840244024
 1  18.25232693859386  2.70910963866387  0.86590308530853
 1  18.81575458965897  1.23905274207421  1.62582383798380
 1  20.54381261106111  0.62974370807081  0.24438737583758
 1  19.22384508170817  3.12354448654866 -1.15117009120912
 1  21.06870538773877  2.64343994779478 -1.72673799719972
 1  19.59882811861186  1.74177421402140 -2.01673685488549
 1  20.87105211831183  2.07580713101310  2.28846277407741
 1  22.05013885558555  2.45240335693569  0.92826472627263
 1  20.57377504020402  3.43021269176918  1.39242184658466
 1 -6.98292207470747  1.77259153115311  0.43810706750675
 1 -7.50901226782678 -0.21397627322732 -0.11882520272027

