%nproc=4
%Mem=2GB
# td=(NStates=1) B3LYP/SVP 

TD

0 1
 6 -5.07950080058006 -1.92499230523052  0.57367599269927
 6 -4.83499965816582  2.78143837283728  1.50040671677168
 6 -9.30781002460246  3.23069926622662 -0.22831744794479
 6 -9.77437928902890 -1.46157775237524 -1.05858200360036
 7 -5.23380012801280  0.51765822692269  0.77352481048105
 6 -4.53122121972197 -0.76144512811281  0.82988907450745
 6 -3.00112186588659 -0.56131661516152  1.36943019241924
 6 -3.07846199859986  0.94375949354935  1.82630713611361
 6 -4.43768872697270  1.43983102850285  1.38280019141914
 6 -3.15682218011801  0.96178447944794  3.28217807580758
 6 -2.04808015081508 -0.68457347144714  0.20326693439344
 6 -0.57277566566657 -0.46058491329133  0.62769053415342
 6  0.37943244914491 -0.92302922022202 -0.48711456865687
 8  0.04922465836584 -1.64067375727573 -1.45837829242924
 8  1.64120919611961 -0.47234365286529 -0.14305929792979
 7 -7.06563974497450  2.74838958085809  0.46930752475248
 6 -6.03030721172117  3.39944667716772  1.02822694809481
 6 -6.32214348684868  4.78103618741874  1.18351990369037
 6 -7.69047211171117  4.95449677267727  0.63005823592359
 6 -8.16567201760176  3.58982758165817  0.23788512481248
 6 -5.39098825522552  5.98498228062806  1.63571957585759
 6 -8.40882747094709  6.18844856255626  0.56033108740874
 6 -9.27610513331333  6.51568085868587 -0.35891450775078
 7 -9.15548894819482  0.83633210781078 -0.63459043444344
 6 -9.79327110451045  1.94490779247925 -0.66265507620762
 6 -11.22921915991599  1.82557619711971 -1.10986505780578
 6 -11.39323476397640  0.41737577897790 -1.38824888648865
 6 -10.07898460686069 -0.15217226662666 -1.07996147654766
 6 -12.20366456365637  2.90231280038004 -1.15858028712871
 6 -12.59031912931293 -0.31161025942594 -1.87916015101510
 6 -12.62453692329233 -0.43364801120112 -3.42038922332233
 7 -7.42823594929493 -1.32904721922192 -0.28941528662866
 6 -8.52237822332233 -2.08806542074207 -0.78866579497950
 6 -8.09872347954795 -3.48505310681068 -0.69082282078208
 6 -6.81062309050905 -3.40569645394539 -0.24183628892889
 6 -6.38538707830783 -2.04966676577658  0.07934008810881
 6 -8.96664064916492 -4.70770417041704 -1.10837334413441
 6 -5.63733985548555 -4.27429265616562 -0.05230256065607
 8 -5.49867172327233 -5.51883839253925  0.02146906730673
 6 -4.48603420802080 -3.34665177787779  0.48904415401540
 6 -3.92501491629163 -3.75505920112011  1.94147603290329
 8 -4.25742835453545 -3.27331828772877  3.01473193719372
 8 -3.08488100380038 -4.76501678297830  1.67616335933593
 6 -2.67697122742274 -5.50275118041804  2.92408887918792
 6  2.63126316971697 -0.74460315091509 -1.11695590089009
 6  3.93543765356536 -0.50482510591059 -0.51068768196820
 6  4.99295159535954  0.13526257385739 -1.01208661326133
 6  4.96430694089409  1.05181902360236 -2.28769130813081
 6  6.27328104020402  0.20664329262926 -0.24559602270227
 6  7.52871709890989 -0.28827816091609 -1.12061941534153
 6  8.79075255225523 -0.14981018791879 -0.21979685958596
 6  10.06206806150615 -0.69821430403040 -0.85059603950395
 6  9.97316110951095 -2.16652181798180 -1.18849296399640
 6  11.30820149474947 -0.27414708530853 -0.03426589458946
 6  12.69449803440344 -0.54369284768477 -0.59983786098610
 6  13.87576398359836 -0.02115481858186  0.18682504510451
 6  15.26549837093709 -0.23385642144214 -0.50061389718972
 6  15.68086541414141 -1.64895905780578 -0.58722845834583
 6  16.35929852705271  0.57735864706471  0.26846011041104
 6  17.63429026772677  0.73153888778878 -0.27432193999400
 6  18.57853770477048  1.42074069306931  0.55593428632863
 6  20.08242813871387  1.35582120742074  0.09026178657866
 6  20.31210213971397  2.02905233643364 -1.22633904290429
 6  21.06617708330833  1.90895463156316  1.18729513021302
 1 -3.90104827242724  3.43420980528053  1.95640787908791
 1 -10.07518510351035  4.06614605110511 -0.30505917981798
 1 -10.37369570947095 -2.36500251025103 -1.36623651755175
 1 -3.02679873137314 -1.19306967106711  2.19209100380038
 1 -2.16632720032003  1.39691964306431  1.56100559895990
 1 -2.22247976387639  0.61835925762576  3.66099282458246
 1 -3.30867416771677  1.97304194779478  3.85816491769177
 1 -3.84805538493849  0.38198890119012  3.74478332403240
 1 -2.14880433433343 -1.61766564426443 -0.47401425772577
 1 -2.36501243984398 -0.04271679737974 -0.56799546024602
 1 -0.27150147354735  0.72613673957396  0.82839887038704
 1 -0.22037505040504 -1.05714489448945  1.55658277727773
 1 -4.48279293669367  5.82134027162716  1.17888102610261
 1 -5.95786700550055  6.89897501620162  1.41196679367937
 1 -5.37705948294829  5.88853870327033  2.84741580218022
 1 -7.97810790969097  7.07558459215922  1.00324163046305
 1 -9.51609700250025  5.74351233673367 -1.15582497849785
 1 -9.81350562976298  7.57068235353535 -0.35651535563556
 1 -12.22276682408241  3.43091358985899 -0.26440883948395
 1 -12.04231315361536  3.44751971667167 -2.04989220672067
 1 -13.26187358735874  2.52587820602060 -1.24469751665166
 1 -12.53809863576358 -1.33464359065907 -1.31924649844985
 1 -13.35156589888989  0.21989165056506 -1.36342001930193
 1 -12.55597011201120  0.39182619771977 -4.10679952335234
 1 -11.92383859155916 -1.14921431783178 -3.97584838153815
 1 -13.67232530573057 -0.51961932003200 -3.79320317901790
 1 -10.08726627342734 -4.54610670257026 -0.56465226912691
 1 -9.14420633083308 -4.72593960746075 -2.03373389398940
 1 -8.42325403090309 -5.61527230713071 -0.93340799429943
 1 -3.79240496779678 -3.50066741804180 -0.18044110391039
 1 -1.96898376637664 -6.07686429012901  2.48496420042004
 1 -2.32507907960796 -4.62679241824182  3.58568301860186
 1 -3.46359741514151 -6.20254725472547  3.46659818001800
 1  2.47784957675767 -1.80880762186219 -1.29407654095410
 1  2.26253809670967 -0.23403484148415 -1.99325694499450
 1  4.20088152405241 -1.24405247574757  0.26471551595160
 1  5.53681894639464  2.10346804460446 -2.18306089348935
 1  5.57213417721772  0.57008296349635 -3.16502957005701
 1  3.94934141934193  1.32827563346335 -2.58265362226223
 1  6.51115121222122  1.07853099699970  0.22684748434843
 1  6.28264609040904 -0.61971755705571  0.64307400150015
 1  7.20332098519852 -1.19292333773377 -1.51106595269527
 1  7.80322007310731  0.54126963156316 -1.98005686338634
 1  8.96011045264526  0.90840869236924  0.44223548204821
 1  8.68998172807281 -0.91458854585459  0.56227908080808
 1  10.21013787908791 -0.10914071577158 -1.82062278517852
 1  9.04753194079408 -2.40374903770377 -1.78368759425943
 1  10.69463632463246 -2.51501317771777 -2.08343408900890
 1  10.25966440824082 -2.91852372987299 -0.23595711721172
 1  11.23937812791279  0.77342496629663  0.35229869246925
 1  11.16180374977498 -0.88157664316432  0.68945946764676
 1  12.93907041504150 -1.74000787978798 -0.75035847864786
 1  12.78100841744174 -0.01396866976698 -1.71719503800380
 1  13.60485152065207  1.07999839563956  0.33650882498250
 1  13.98322315781578 -0.54428738273827  1.16632620882088
 1  15.18221971937194  0.13811701150115 -1.55782243204320
 1  15.01883727872787 -2.26247453125313 -0.96322034253425
 1  16.44379111541154 -1.57018285778578 -1.21889328192819
 1  15.96459917751775 -2.06935655425543  0.45708841014101
 1  15.77264445604560  1.53371646034603  0.41424526812681
 1  16.45854217691769  0.29208301740174  1.21216321312131
 1  18.11316739403940 -0.33738221682168 -0.53822850755075
 1  17.52767549294930  1.25335829892989 -1.20770807540754
 1  18.36344805070507  2.45817454515452  0.68647514251425
 1  18.33551656585659  1.08230706750675  1.73577483308331
 1  20.51639986978698  0.15438617231723 -0.12980004290429
 1  19.73523622082208  3.02619475157516 -1.35731070527053
 1  21.48954747194719  2.18722432623262 -1.34725004840484
 1  19.77409564536454  1.57281731833183 -1.97849303050305
 1  20.69070408350835  1.54277382768277  2.17027095489549
 1  22.26892073377337  1.86201431803180  0.89215111491149
 1  21.00581824452445  3.07248691919192  1.35031763616362
 1 -7.36764054655466  1.82481675367537  0.37924118091809
 1 -7.51964333093309 -0.24866974257426 -0.14394771497150

