%nproc=4
%Mem=2GB
# td=(NStates=1) B3LYP/SVP 

TD

0 1
 6 -5.04620747124712 -1.93655346134613  0.35136376147615
 6 -4.83368952715271  2.76999722872287  1.44280095619562
 6 -9.43422266586659  3.20438663496350 -0.07370198639864
 6 -9.79641149224923 -1.46475807040704 -0.93074922032203
 7 -5.12806955495550  0.45387184828483  0.73266072407241
 6 -4.48701679927993 -0.66692567616762  0.64768085368537
 6 -3.00231198489849 -0.38961944544454  1.05092834223422
 6 -3.10032418481848  0.94535965356536  1.69309381478148
 6 -4.46625158325833  1.49563660906091  1.25668758015802
 6 -2.95102160006001  0.88209651065107  3.39998985698570
 6 -2.06253159595960 -0.51946696079608 -0.04236762906291
 6 -0.54483287138714 -0.72043089788979  0.36108387348735
 6  0.43757826372637 -1.05019193649365 -0.73305916311631
 8  0.22021175707571 -1.43173286318632 -1.80949340394039
 8  1.71478655385539 -0.79858627712771 -0.29344433643364
 7 -7.10265344634463  2.74460920282028  0.57058765276528
 6 -6.05706988798880  3.50007674017402  1.05203932933293
 6 -6.38237951045105  4.81760984478448  1.21661321302130
 6 -7.66478954345435  4.98913023602360  0.62993822392239
 6 -8.09170462086209  3.64456305520552  0.39162049834983
 6 -5.45320447684768  5.96473025542554  1.89202520642064
 6 -8.27950453865386  6.35437515521552  0.31437649194919
 6 -9.14293181598160  6.62180147074707 -0.62079069536954
 7 -9.27491089038904  0.80253872847285 -0.40994797019702
 6 -9.98942071947195  1.95480878257826 -0.37969678037804
 6 -11.29980621862186  1.80265390489049 -0.87720179147915
 6 -11.50074551505151  0.49175321672167 -1.16233629522952
 6 -10.15646235463546 -0.08001505090509 -0.88401188158816
 6 -12.36513071027103  2.98833140224022 -0.95544997409741
 6 -12.61167126452645 -0.25441453985399 -1.64667690269027
 6 -12.50436490609061 -0.61657630403040 -3.19308649304931
 7 -7.42076520222022 -1.32713702820282 -0.35147149224922
 6 -8.60903688918892 -2.03058967316732 -0.79650657905791
 6 -8.10221382858286 -3.40046464796480 -0.63644738323832
 6 -6.81260328852885 -3.44049993429343 -0.26851895719572
 6 -6.40199873947395 -2.09800159925993 -0.02440028592859
 6 -9.00021400650065 -4.63482688268827 -1.06641914871487
 6 -5.62381850335034 -4.22591781868187 -0.05266259665967
 8 -5.54565642174217 -5.53640014871487 -0.01741482108211
 6 -4.47150275487549 -3.34284139683968  0.36249149874987
 6 -3.96016843164316 -3.76284998019802  1.70718260356036
 8 -4.19647225892589 -3.30887184308431  2.80514097809781
 8 -3.17532004770477 -4.85499578087809  1.62887863086309
 6 -2.55903943424342 -5.30371127642764  2.86319278957896
 6  2.74270431383138 -0.96219491009101 -1.22838704400440
 6  4.05774988478848 -0.58226284968497 -0.54995160836084
 6  5.01811411161116  0.17330637823782 -1.16012141674167
 6  4.94315482568257  0.64213805550555 -2.58556109510951
 6  6.30400411251125  0.30520314861486 -0.33806526962696
 6  7.54512874007401 -0.40489982308231 -0.92668002140214
 6  8.81044452145215 -0.14907011391139  0.01193631373137
 6  10.00272212691269 -0.70663514611461 -0.67873885378538
 6  9.97224101750175 -2.32434760056006 -0.74872898759876
 6  11.22665333993399 -0.14951462206221  0.08458599059906
 6  12.59722830743074 -0.65593407180718 -0.43141101830183
 6  13.85494190139014 -0.16846955005501  0.24999136173617
 6  15.23329515061506 -0.30003303910391 -0.36727056285629
 6  15.68778610621062 -1.83145730763076 -0.29394913041304
 6  16.35223782098210  0.58699961116112  0.36726999139914
 6  17.79550638933893  0.60904663856386 -0.24886939473947
 6  18.65780563156315  1.56774539353935  0.44282297519752
 6  20.08475837173717  1.49601522682268  0.02780554095410
 6  20.21719264876488  2.18359779097910 -1.33515992499250
 6  20.97464793039304  2.29464320042004  1.14599099979998
 1 -3.96190435803580  3.35244162846285  1.78125036333633
 1 -10.16838442344234  4.09606904340434  0.03825515161516
 1 -10.54824316421642 -2.36794280428043 -1.20175006890689
 1 -2.85968201970197 -1.32856322042204  1.83908570327033
 1 -2.29527009460946  1.58267821892189  1.17546704510451
 1 -2.19937745364536  0.28446586828683  3.79875660096010
 1 -2.90728402870287  1.95780042364236  3.86915601680168
 1 -3.79191977137714  0.39466016831683  3.66165501120112
 1 -2.38355780968097 -1.42427630533053 -0.49022587888789
 1 -2.01426736533653  0.27600507480748 -0.83302196289629
 1 -0.24801912531253  0.26157028292829  1.03194922542254
 1 -0.32663567646765 -1.69770895089509  0.97651477047705
 1 -4.28267292469247  5.79646778437844  1.62828596659666
 1 -5.84034525332533  6.99427454615462  1.47803340034003
 1 -5.53746552355235  5.68325817521752  3.12848390899090
 1 -7.78808890779078  7.27259429312931  0.77779908620862
 1 -9.64155954875488  5.86104408990899 -1.05113450945095
 1 -9.45121940114011  7.56259154445444 -0.76701640574057
 1 -12.61927647504750  3.18598909740974  0.16588418981898
 1 -11.45307422972297  3.89397436213621 -1.28449566706671
 1 -13.19750715071507  2.64309992819282 -1.54487753465347
 1 -12.74268909480948 -1.17076720302030 -1.28037261106111
 1 -13.52370311261126  0.22522218361836 -1.55327900520052
 1 -12.41478599359936  0.33867088218822 -3.74632347574757
 1 -11.65912211991199 -1.16396579297930 -3.34822561926193
 1 -13.52120019321932 -1.12764012211221 -3.39545340404040
 1 -9.98491603840384 -4.52897498939894 -0.52422822672267
 1 -9.10081199139914 -4.42736975047505 -2.10863138373837
 1 -8.54388609410941 -5.51451223112311 -0.73626828032803
 1 -3.75903163046305 -3.58620597189719 -0.42505556535654
 1 -1.72032890089009 -6.02509911361136  2.63647935193519
 1 -2.05868243994399 -4.37706744574457  3.44571902220222
 1 -3.20302135753575 -5.71799879987999  3.63797531773177
 1  2.81083287508751 -1.83374011511151 -1.81301843514351
 1  2.73160500340034 -0.28679011701170 -1.98136575587559
 1  4.03024446034603 -0.86147421792179  0.52954199859986
 1  5.29967523202320  1.73051074887489 -2.60504309170917
 1  5.79776674047405  0.09165512071207 -3.32573564066407
 1  3.81996848204820  0.58660146604660 -2.83637899479948
 1  6.56099619671967  1.32215535943594 -0.36830203060306
 1  6.14387221302130  0.02551696639664  0.77400709480948
 1  7.37325797889789 -1.57419146454645 -1.24238908500850
 1  7.61784153525353  0.02555806040604 -1.87810666836684
 1  8.94983942554255  0.88663651515152  0.17966922542254
 1  8.63531626152615 -0.56625371237124  0.98216106900690
 1  10.11756862216222 -0.34351415311531 -1.71280200310031
 1  9.00558774637464 -2.59209787258726 -1.12950217571757
 1  10.96999386038604 -2.58472014841484 -1.17726347194720
 1  9.99347778957896 -2.65482736023602  0.40574705320532
 1  11.08613280338034  0.92226985078508  0.15042850545055
 1  10.86117368676868 -0.62609109460946  1.12652317401740
 1  12.54932144014401 -1.66162004100410 -0.36202964576458
 1  12.57553787038704 -0.23099037193719 -1.46251957045705
 1  13.83141417691769  0.91849224502450  0.44690986508651
 1  14.01797663316332 -0.35877883188319  1.31504108030803
 1  15.15672717011701 -0.03423022322232 -1.51986863666367
 1  14.99059445444545 -2.69172745654565 -0.84203822432243
 1  16.57977471377138 -1.90488632813281 -0.82335372797280
 1  15.89067178477848 -2.29450906950695  0.82207490879088
 1  15.78998619021902  1.65181827052705  0.35906975057506
 1  16.39214553725373  0.34814862396240  1.42254425122512
 1  18.15838191549155 -0.41331981058106 -0.08907359205921
 1  17.58186091149115  0.96493945704570 -1.28517582218222
 1  18.07230893679368  2.55816454415442  0.54457095209521
 1  18.62331534573458  1.37269610641064  1.52217347294729
 1  20.50997922772277  0.52730346404640  0.08790172727273
 1  19.77738043524353  3.22205433753375 -1.22703767796780
 1  21.17977649484948  2.28773437723772 -1.78736405980598
 1  19.66678491429143  1.72421245784578 -2.14465964716472
 1  21.20162517561756  1.72854240454045  2.21344527232723
 1  22.04244808650865  2.44131224782478  0.50480238003800
 1  20.61748941164117  3.30835050555056  1.19188179257926
 1 -7.05989977247725  1.71610588258826  0.40112336913691
 1 -7.34717608420842 -0.33482835843584 -0.26776009620962

