%nproc=4
%Mem=2GB
# td=(NStates=1) B3LYP/SVP 

TD

0 1
 6 -5.14168701920192 -1.98167797379738  0.33563218831883
 6 -4.73748990719072  2.74422465146515  1.34670134623462
 6 -9.35167441104110  3.32710890719072 -0.20411502770277
 6 -9.86284813591359 -1.41797339193919 -0.89137528292829
 7 -5.22441918991899  0.40523698479848  0.60390784878488
 6 -4.45262335993599 -0.73426240984098  0.60956704230423
 6 -3.05015676937694 -0.62477296079608  1.01377462686269
 6 -3.10162431483148  0.83013813141314  1.68802330773077
 6 -4.42841779987999  1.40965801120112  1.16617852925293
 6 -3.06160265816582  0.87513581458146  3.30014987298730
 6 -2.04502984578458 -0.83123813791379 -0.12644603690369
 6 -0.64209259735974 -0.75465432023202  0.29952771787179
 6  0.32554706060606 -1.10671758905891 -0.68473433063306
 8  0.13104284018402 -1.44002369226923 -1.84415687028703
 8  1.55950102530253 -0.77333375187519 -0.32820781278128
 7 -7.01235441644164  2.77793253515352  0.45751634563456
 6 -5.89747392839284  3.43191992449245  1.01382550795080
 6 -6.22884415691569  4.80932901670167  1.02957450915092
 6 -7.57030009450945  5.01682300530053  0.59915514561456
 6 -8.01532698309831  3.69162776167617  0.25086642294229
 6 -5.09860901730173  5.80510429282928  1.39580558445845
 6 -8.06427301550155  6.36002572027203  0.41308636293629
 6 -9.04970249304930  6.66497578817882 -0.50005862216222
 7 -9.22344574387439  0.84231270587059 -0.35467244264426
 6 -9.87815959335934  2.07365066676668 -0.39302811351135
 6 -11.23012925092509  1.78772241174117 -0.81364543584358
 6 -11.44836027652765  0.51076511791179 -1.13112317391739
 6 -10.08294500290029 -0.09728677807781 -0.84702818321832
 6 -12.25554975217522  2.96443901300130 -0.88793322242224
 6 -12.67655775317532 -0.30450954935494 -1.47662989798980
 6 -12.69377384698470 -0.60949559595960 -2.99414659905991
 7 -7.45362848854885 -1.27787210171017 -0.17234357945795
 6 -8.61420740624062 -2.05449206340634 -0.52239916831683
 6 -8.17573118031803 -3.43661826332633 -0.62328606710671
 6 -6.82159418761876 -3.32321820612061 -0.32920502580258
 6 -6.46757529712971 -2.04184598369837 -0.08092593849385
 6 -9.05084907000700 -4.66198959895990 -0.85367787458746
 6 -5.77556367786779 -4.28238346524653  0.01387405700570
 8 -5.72625448154816 -5.51885839453945 -0.02509558915892
 6 -4.57040264486449 -3.44313142584258  0.35571082068207
 6 -3.99719213401340 -3.72492618781878  1.74622650795079
 8 -4.38946155785579 -3.30534149004900  2.80108057205721
 8 -3.03400591629163 -4.78823910521052  1.60227597059706
 6 -2.63574710501050 -5.43768467376738  2.78175464576458
 6  2.62807285068507 -1.00588927952795 -1.32777698299830
 6  3.93101721152115 -0.61100572397240 -0.63763037623762
 6  4.96176847704770  0.06625567316732 -1.10591599619962
 6  5.01549205940594  0.93980782248225 -2.42923546254625
 6  6.27609132123212  0.26184881318132 -0.32086354945495
 6  7.45867009420942 -0.37958729182918 -0.97530488388839
 6  8.83314679167917 -0.15884109100910 -0.11512639253925
 6  10.06361821652165 -0.69332381498150 -0.75842682258226
 6  10.00924471787179 -2.20869603540354 -0.87415152985299
 6  11.35424609920992 -0.34921459205921  0.12229976197620
 6  12.70583916851685 -0.49960843924392 -0.42752062926293
 6  13.84669107630763 -0.14240694379438  0.44355071767177
 6  15.22492431353135 -0.06945998179818 -0.29047288308831
 6  15.57585491309131 -1.55398956085609 -0.81452118761876
 6  16.29927252445245  0.52617352855286  0.55993925832583
 6  17.75931276997700  0.61936767066707 -0.12583709150915
 6  18.68866871787178  1.48789740874087  0.76799549244924
 6  20.19249914581458  1.56486211151115  0.14232699309931
 6  20.08580951045105  2.27384681588159 -1.22940934993499
 6  21.18270873647365  2.30004374047405  1.18606500720072
 1 -3.79954812241224  3.33289967426743  1.64738697699770
 1 -9.99806739173917  4.27913735023502 -0.22616129002900
 1 -10.70214855475548 -2.20793680368037 -0.99151904580458
 1 -2.71857790929093 -1.34870523462346  1.75254704940494
 1 -2.40806137373737  1.48714866596660  1.16248574697470
 1 -2.07949546544654  0.93273069476948  3.74450117541754
 1 -3.25174847514751  1.97311195479548  3.47726682788279
 1 -3.56202678207821  0.18964966726673  3.72428127382738
 1 -2.33956341024102 -1.83210708840884 -0.50651750805081
 1 -2.27564350295030 -0.10849337503750 -0.84225288598860
 1 -0.15497982138214  0.14644877077708  0.52645867636764
 1 -0.21733474637464 -1.31295047504750  1.24400151915191
 1 -4.10525518291829  5.84762289988999  0.89643278127813
 1 -5.30574179297930  6.91598671737174  1.34128972597260
 1 -4.68422019901990  5.68109795919592  2.42327338793879
 1 -7.77429752865287  7.09594662836284  1.07038834513451
 1 -9.46440183298330  6.02876086158616 -1.34302369836984
 1 -9.45950022922292  7.69651493679368 -0.46170587468747
 1 -12.51118566596660  3.42093259175918 -0.08743114171417
 1 -11.79693861616162  3.57866283098310 -1.83077029452945
 1 -13.19733713371337  2.58788440664066 -1.24093714061406
 1 -12.70413523942394 -1.21666179247925 -0.83759833363336
 1 -13.64662540484048  0.34416407780778 -1.17715139243924
 1 -12.67457197219722  0.32031904700470 -3.43914275767577
 1 -11.62181838953896 -1.09354875127513 -3.14536533323332
 1 -13.48446651985199 -1.27351470957096 -3.41212507120712
 1 -9.97852539933993 -4.63326541844184 -0.21714751865186
 1 -9.34102601280128 -4.68387540104010 -1.74628514911491
 1 -8.68395010051005 -5.63240402030203 -0.54361901540154
 1 -4.00445617291729 -3.52394974627463 -0.61618467826783
 1 -2.18267513551355 -6.30726733043304  2.54906061006101
 1 -2.09274584628463 -4.63962370137014  3.35633008330833
 1 -3.46892794819482 -5.59975697569757  3.66564808500850
 1  2.62783457525753 -2.08772551365137 -1.71219835313531
 1  2.31665350825083 -0.43629506750675 -2.26067368666867
 1  4.16475791169117 -1.04819288978898  0.42561160556056
 1  5.34937020152015  2.06207390519052 -2.28636122352235
 1  5.70852781658166  0.40507646284628 -3.04573764086409
 1  3.97726421162116  0.91713451935194 -2.79447480438044
 1  6.39419951705170  1.31963510741074 -0.32081728212821
 1  6.20315814161416 -0.33280886618662  0.67155684978498
 1  7.29208986208621 -1.52695674107411 -1.07000184628463
 1  7.90000975207521  0.06405190979098 -1.90889974767477
 1  9.00131457305731  1.00799865136514 -0.32684142564256
 1  8.82154488438844 -0.33568065506551  0.91969482238224
 1  10.37473433873387 -0.40967076877688 -1.77354807770777
 1  9.15744293189319 -2.33249191199120 -1.53950317581758
 1  11.05629249024903 -2.86123780018002 -1.08079382498250
 1  9.47169561136114 -2.53715559305931  0.20285676417642
 1  11.17754194429443  0.84426205000500  0.42235569816982
 1  11.09731730113011 -0.64178266376638  1.21295181688169
 1  12.66764327232723 -1.55163904290429 -0.68790223302330
 1  12.80141045764576 -0.09726699959996 -1.44800811931193
 1  13.44346538203820  0.88340873667367  0.63306848094809
 1  13.78287312281228 -0.74292724672467  1.25068464466447
 1  15.22383388078808  0.35650885068507 -1.13667031683168
 1  15.03824921992199 -1.97734601840184 -1.78311233173317
 1  16.56112284858486 -1.33040888038804 -1.18649004160416
 1  15.41209392699270 -2.38483810241024  0.17499020032003
 1  16.12166935853585  1.56887997669767  0.68924276787679
 1  16.37930425312531  0.07306111521152  1.53010500730073
 1  18.09602567986799 -0.45896437503750 -0.66558124282428
 1  17.53728645404540  1.09013197629763 -1.13971127572757
 1  18.20050175607561  2.54795352305231  0.95025152015202
 1  18.83342635683568  0.96888572537254  1.63664492009201
 1  20.58278650845085  0.66985771947195 -0.08708577147715
 1  19.57805050225022  3.20665279737974 -1.03285826002600
 1  21.07730624782478  2.77171277507751 -1.53205852925292
 1  19.76242447824782  1.67101713831383 -1.95976115731573
 1  21.03900891399140  1.72600215051505  2.14997892569257
 1  22.20089393109311  2.31146926352635  0.71091299109911
 1  20.81602926562656  3.24254392489249  1.36616922132213
 1 -7.00566434893489  1.81032530453045  0.37416067286729
 1 -7.64453582018202 -0.35539041464146 -0.07141046124612

