%nproc=4
%Mem=2GB
# td=(NStates=1) B3LYP/SVP 

TD

0 1
 6 -5.09900275077508 -2.00769057505751  0.49256788188819
 6 -4.75711186938694  2.71932216121612  1.52962963906391
 6 -9.17378662226223  3.35699189548955 -0.26701131733173
 6 -9.85089694079408 -1.35184677927793 -0.91837798319832
 7 -5.13511025902590  0.34642110321032  0.81481893989399
 6 -4.54044214181418 -0.85233421702170  0.88689477507751
 6 -3.03897565126513 -0.61335181868187  1.37529077847785
 6 -3.03913806620662  0.80695581318132  1.92305681108111
 6 -4.42131708980898  1.27644468986899  1.39318122952295
 6 -3.06075257315732  0.74124242524252  3.55493535153515
 6 -1.93777912071207 -0.77945295939594  0.36594320202020
 6 -0.53343173127313 -0.92055090989099  0.69713747884788
 6  0.40864537043704 -1.12992991029103 -0.53047890509051
 8  0.01566130203020 -1.28323801370137 -1.65071752635264
 8  1.70097517271727 -1.02165858435844 -0.06174116611661
 7 -7.00115329632963  2.77344208610861  0.49767036103610
 6 -5.82772695369537  3.35361209370937  1.04704883028303
 6 -6.08395966846685  4.77603568736874  1.17858941064106
 6 -7.31701476597660  4.99055037803780  0.50755598569857
 6 -7.81390684108411  3.68495709460946  0.15343667996800
 6 -5.10233939033903  5.69296307870787  1.68446445034503
 6 -7.85365195339534  6.31710142784278  0.21565661996200
 6 -8.73728125092509  6.66918620922092 -0.70962957925793
 7 -9.12473587288729  0.97856633123312 -0.59826680208021
 6 -9.72582435983598  2.13608691039104 -0.62902171287129
 6 -11.13248948694869  2.02615625512551 -1.10975504680468
 6 -11.33795923642364  0.64580862226223 -1.28905896749675
 6 -10.02805951435144  0.06143909450945 -0.90150363076308
 6 -12.15960015721572  3.11340390949095 -1.26642107120712
 6 -12.57714781218122 -0.08569766816682 -1.84977721272127
 6 -12.57742221182118 -0.49598424482448 -3.33576076047605
 7 -7.48785191089109 -1.21235555005501 -0.22977932303230
 6 -8.52712869836984 -1.97963457765777 -0.59877680608061
 6 -8.23267687488749 -3.36203080458046 -0.65818955745575
 6 -6.91077310551055 -3.49059494379438 -0.28672077737774
 6 -6.46538507810781 -2.16375817491749 -0.00238808470847
 6 -9.11291527662766 -4.59064246424642 -0.93014552135214
 6 -5.79851597309731 -4.33850907780778  0.18759142874287
 8 -5.76546840294029 -5.58000450915091  0.08231515191519
 6 -4.57019262386239 -3.48147526022602  0.44650990059006
 6 -4.04975739053905 -3.88957265246525  1.85703758905891
 8 -4.31362397409741 -3.41138209410941  2.96285674967497
 8 -3.26765928162816 -5.02943322462246  1.66862260526053
 6 -2.83069659996000 -5.55742664796480  2.95136160646065
 6  2.63096313971397 -1.12017070767077 -1.20821502680268
 6  4.01933604340434 -0.75923054645465 -0.60133674687469
 6  4.87636993719372  0.09377842544254 -1.22753815841584
 6  4.75681619181918  0.80150399209921 -2.57678021702170
 6  6.29122283438344  0.36129875817582 -0.43721518461846
 6  7.51739596679668 -0.26958629172917 -1.26159351275128
 6  8.71181465846585 -0.22250745764576 -0.28219309920992
 6  10.01156301100110 -0.70489497209721 -0.95381636153615
 6  9.96039983338334 -2.19406457225723 -1.40088420312031
 6  11.21157183178318 -0.34556422702270 -0.04624709270927
 6  12.61342992759276 -0.48794727312731 -0.64761263846385
 6  13.71982839003900  0.02729002590259  0.20688705130513
 6  15.12528434953495 -0.01840487628763 -0.47405124092409
 6  15.54219154675467 -1.60455461736174 -0.68685842134213
 6  16.19135173237324  0.75179609080908  0.37348061246125
 6  17.49932677137714  0.87113284718472 -0.12009651745175
 6  18.54876472747275  1.66594521352135  0.74847354025403
 6  20.04787468336833  1.70501612691269  0.25144790519052
 6  20.04130506000600  2.54834426562656 -1.09878628762876
 6  21.12800326592659  2.13217695379538  1.31765816651665
 1 -3.91222939053905  3.26541292559256  1.83008524682468
 1 -9.91966955195520  4.22308174467447 -0.31388006190619
 1 -10.36605494539454 -2.21901791179118 -1.45084497839784
 1 -2.94476052755275 -1.40438080218022  2.06663845854585
 1 -2.20002056965697  1.32413236433643  1.64830432883288
 1 -2.18740625652565  0.35571299299930  4.04613133843384
 1 -3.24754805510551  1.72149679327933  4.08368746994699
 1 -3.77865844524452 -0.03734303200320  3.96766561226123
 1 -2.14976443034303 -1.76410028772877 -0.18719557585759
 1 -1.91878781738174 -0.08644116981698 -0.45206386708671
 1 -0.41378570197020  0.02616674257426  1.35517154765477
 1 -0.43383639653965 -1.91540072007201  1.41762888188819
 1 -4.01696635403540  5.39793793139314  1.39408254625463
 1 -5.47386860566057  6.81907702640264  1.35515111211121
 1 -5.17284906190619  5.50119996939694  2.87644870547055
 1 -7.49659975887589  7.07528456215622  0.98323963026303
 1 -9.06076146894689  5.87277526302630 -1.46151554755476
 1 -9.29735401460146  7.48646393169317 -0.64115381948195
 1 -12.56983153055305  3.53777427592759 -0.20773317191719
 1 -11.72779170147015  3.78817378207821 -1.88392561006101
 1 -12.92703010301030  2.61955757395740 -1.78086113301330
 1 -12.59237406330633 -1.10743086938694 -1.20330490429043
 1 -13.46001674397440  0.51010067146715 -1.62784646194619
 1 -12.49801431643164  0.54618163326333 -3.87002584598460
 1 -11.90491669936994 -1.35821521792179 -3.73406420312031
 1 -13.77860593379338 -0.87597495559556 -3.53157701640164
 1 -10.09627717451745 -4.54807689958996 -0.64762056595660
 1 -9.08399030923092 -4.72539955345535 -2.22969348994899
 1 -8.45512721822182 -5.59160994089409 -0.42638729222922
 1 -3.75550127742774 -3.87568491979198 -0.23618667846785
 1 -2.10955782378238 -6.49869647334734  2.99347505150515
 1 -2.39446601830183 -4.80663040204020  3.54885933623362
 1 -3.76153720912091 -5.98099509950995  3.66240776097610
 1  2.69147093889389 -2.06403314441444 -1.84844197749775
 1  2.62052389528953 -0.39818125612561 -2.09649726902690
 1  4.20836227212721 -1.31688975947595  0.25880492489249
 1  5.11049631413141  1.70998869666967 -2.34913750115011
 1  5.23167013081308  0.23177913311331 -3.38305137223722
 1  3.58478496369637  0.87052985888589 -2.67419277617762
 1  6.40689078617862  1.51020416431643 -0.10448564896490
 1  6.24932275807581 -0.17617320262026  0.67309700380038
 1  7.03003365646565 -1.24907895329533 -1.39968481458146
 1  7.61567131823182  0.57341284588459 -2.06302516021602
 1  8.76392083368337  0.82876072757276 -0.08770751225123
 1  8.49293202310231 -1.01673876087609  0.56312916581658
 1  9.96248311361136 -0.10247004870487 -1.90672139503950
 1  9.17580476807681 -2.56483514631463 -2.03969319481948
 1  10.94604146514652 -2.67736941334133 -1.59983572917292
 1  9.63769221102110 -2.71607348484848 -0.49725324682468
 1  11.21443563366337  0.54008163196320  0.25779924252425
 1  11.14943251265127 -0.89339782528253  0.89030955265527
 1  12.86903341134113 -1.57315119411941 -1.00699414221422
 1  12.57888820542054  0.28647137423742 -1.60127344584458
 1  13.52296333183318  0.89272966876688  0.38472364646465
 1  13.63442827832783 -0.65661861586159  1.09566914311431
 1  15.01637313471347  0.12171537133713 -1.50418706850685
 1  14.79635503050305 -2.19759804360436 -1.39298331883188
 1  16.59496623292329 -1.85915175467547 -0.98602999559956
 1  15.43620633823382 -2.12006162476248  0.24734743604360
 1  15.89779697129713  1.70967405610561  0.55161900550055
 1  16.24643096579658  0.12105591469147  1.27755975277528
 1  17.85219129642964 -0.21735021362136 -0.30426511121112
 1  17.47507023242324  1.33275623872387 -1.24363166776678
 1  18.18154986088609  2.79415814351435  0.54817131213121
 1  18.34743775797580  1.28655749254925  1.73196445204520
 1  20.52673090289029  0.62955368906891 -0.03946100900090
 1  19.57254995219522  3.61241337343734 -1.10028500270027
 1  20.88947746494649  2.62751835563556 -1.61361668506851
 1  19.35116335213521  2.02841287788779 -1.97456263746375
 1  20.82171718481848  1.59404895519552  2.23413734153415
 1  22.15525936763676  2.00746886348635  0.87035893569357
 1  21.08648631133114  3.19770944144414  1.69411201560156
 1 -7.02182596509651  1.74277854985499  0.55302855965597
 1 -7.66242760936094 -0.21116599219922  0.06225290509051

