%nproc=4
%Mem=2GB
# td=(NStates=1) B3LYP/SVP 

TD

0 1
 6 -5.14918776927693 -1.84214402040204  0.26235486058606
 6 -4.76047220542054  2.82624285328533  1.31101777787779
 6 -9.50565980958096  3.32218841514151 -0.20900551675168
 6 -9.84638648974897 -1.45602719731973 -0.86922306770677
 7 -5.20135688368837  0.54352081318132  0.89455691369137
 6 -4.54784288188819 -0.62963194679468  0.75024110971097
 6 -3.10675242894289 -0.51719220272027  1.19502275167517
 6 -3.10189434183418  0.93270838843884  1.81610611601160
 6 -4.44806976507651  1.53800084548455  1.37781969336934
 6 -2.90005650355035  1.00736903790379  3.33067292529253
 6 -1.98556389918992 -0.60031504560456  0.09800640834083
 6 -0.49996838493849 -0.62153100790079  0.58988675377538
 6  0.33779828572857 -0.99078599589959 -0.64392024922492
 8  0.06246598249825 -1.50336002590259 -1.62100455505551
 8  1.66073114831483 -0.59542596109611 -0.21987697969797
 7 -7.08223140414041  2.81055579747975  0.37023761776178
 6 -6.03280746174617  3.38205493799380  0.83718784418442
 6 -6.35292656515652  4.81261934573457  1.03394494619462
 6 -7.64807787228723  5.02762408540854  0.51248647874787
 6 -8.11063651405141  3.68224682358236  0.10784212051205
 6 -5.49214837123712  5.83565734813481  1.59725572947295
 6 -8.35032162036204  6.28280799849985  0.37301235553555
 6 -9.29908743154316  6.65191448204820 -0.44999361566157
 7 -9.25571897119712  0.84777325192519 -0.46798377377738
 6 -9.94924670207021  2.08299160086009 -0.42225103580358
 6 -11.34698093609361  1.75689932943294 -0.74777884918492
 6 -11.55528096859686  0.41058509990999 -0.91510157175718
 6 -10.23684039243924 -0.10922797219722 -0.74143762416242
 6 -12.36748094529453  2.80329289838984 -0.91423585268527
 6 -12.68836893429343 -0.41890098849885 -1.44708694369437
 6 -12.65911038063806 -0.65792043844384 -3.02057924232423
 7 -7.51263438913891 -1.20695501000100 -0.34845119021902
 6 -8.57855384088409 -1.96012262646265 -0.63291021942194
 6 -8.13195680288029 -3.35348995049505 -0.70098383688369
 6 -6.77546957515752 -3.36914279857986 -0.40704280958096
 6 -6.45828436803680 -2.03195499459946 -0.07456530243024
 6 -8.99756374147415 -4.60198359835984 -0.98063056985699
 6 -5.66578269976998 -4.21875710261026 -0.02952028242824
 8 -5.47784964106411 -5.45022153085309 -0.12954603420342
 6 -4.50887649224922 -3.23921103380338  0.31048629822982
 6 -3.79474188898890 -3.67965166036604  1.64296618191819
 8 -4.17372998469847 -3.29173012891289  2.76100656465647
 8 -2.92170468616862 -4.63570385168517  1.39202494549455
 6 -2.33954748504850 -5.29990089538954  2.55637210751075
 6  2.77826787018702 -0.93797248784878 -1.22122632793279
 6  4.11330544034403 -0.77146176957696 -0.65657227042704
 6  5.03350565076508 -0.00045099749975 -1.15316072067207
 6  4.97227773797380  0.68219206090609 -2.45362790179018
 6  6.29791350345034  0.12869549784978 -0.47226868996900
 6  7.58586281348135 -0.42972230533053 -1.11801915531553
 6  8.87482095909591 -0.30447565446545 -0.20476535643564
 6  10.21429328402840 -0.81548603120312 -0.68925990589059
 6  10.07635142854286 -2.42306747254726 -0.81672578727873
 6  11.38861953655366 -0.47319699029903  0.06835436743674
 6  12.72352093669367 -0.75941441984198 -0.51154903210321
 6  13.88089449664967 -0.33752645574557  0.35433179577958
 6  15.19209103020302 -0.33110614641464 -0.29619345514551
 6  15.79906723432343 -1.72712687458746 -0.56884662016202
 6  16.27131972917292  0.45047595879588  0.53853711811181
 6  17.68445528422842  0.58387412131213 -0.20905541334133
 6  18.58341819281928  1.50658927792779  0.66520521342134
 6  20.00478037393739  1.70115574087409  0.19422218261826
 6  20.19336026552655  2.31376080728073 -1.30478688768877
 6  20.82782324792479  2.46656039213921  1.22523892459246
 1 -4.11785995359536  3.49572595689569  1.62566480478048
 1 -10.12706029102910  4.02836227272727 -0.28362703660366
 1 -10.72217055695570 -2.13055906590659 -1.16555644954495
 1 -2.85386143764376 -1.09356972107211  1.99223101780178
 1 -2.17696826442644  1.51612156325633  1.35571506990699
 1 -1.74452196809681  0.92077949964997  3.51901862716272
 1 -2.93110641094110  2.11232587618762  3.64541364256426
 1 -3.52621320072007  0.23677437973797  3.92624146984698
 1 -2.24905435933593 -1.44545842354235 -0.56683353965396
 1 -2.17473341194119  0.36524399869987 -0.41677033773377
 1 -0.15034935833583  0.09132325822582  1.13619965046505
 1 -0.53147616051605 -1.32206138613861  1.38583570257026
 1 -4.41785644304430  5.67865600320032  1.30717385538554
 1 -5.88951016981698  6.96924204290429  1.22548814581458
 1 -5.56412818981898  5.81400124952495  2.92698375897590
 1 -8.02397249614962  6.89443647734773  1.26574788108811
 1 -9.63905929872987  6.14064204970497 -1.31384078007801
 1 -9.56296057525753  7.63173845914592 -0.47641734583458
 1 -12.39133368076808  3.73775427392739 -0.10321271987199
 1 -12.02718164046405  3.31244620932093 -1.70916813431343
 1 -13.34834223422342  2.37967358555856 -1.04401744864486
 1 -12.51179600550055 -1.23845397169717 -0.90229480328033
 1 -13.54341508380838  0.09219888128813 -1.16236991429143
 1 -12.64487900290029  0.27271428652865 -3.53576241964196
 1 -11.64906111381138 -1.11256065246525 -3.25267606430643
 1 -13.58198627182718 -1.28340569866987 -3.33118697739774
 1 -9.96573412021202 -4.58555064696470 -0.51279708360836
 1 -9.30429233943394 -5.03206021952195 -2.18233875447545
 1 -8.32765447094710 -5.44920570047005 -0.66258091159116
 1 -3.83398912621262 -3.33387073837384 -0.54815787558756
 1 -1.80121698969897 -6.26307291099110  2.35202090609061
 1 -1.80058663036304 -4.67945768476848  3.05585003530353
 1 -3.13301435683568 -5.67134413441344  3.17280880108011
 1  2.50015180698070 -2.03480022112211 -1.69548668196820
 1  2.62034387728773 -0.22553399139914 -2.14260187948795
 1  4.22681411731173 -1.12863093359336  0.38454749914992
 1  5.17009227372737  1.75251294909491 -2.09713230063006
 1  5.88114507830783  0.30738669386939 -3.10832389948995
 1  3.89778626382638  0.71259406530653 -3.07834319121912
 1  6.52363246034603  1.17040018391839 -0.37452265266527
 1  6.30111793759376 -0.17424300960096  0.48152784688469
 1  7.47065771887189 -1.51265531093109 -1.25482032813281
 1  7.80735048614862 -0.03787828322832 -2.12759161686169
 1  9.02072651425143  0.88827667916792  0.03846510501050
 1  8.56533926382638 -0.79359644664466  0.79815266816682
 1  10.47445431073107 -0.51389119081908 -1.86019674257426
 1  9.35660284788479 -2.63470213301330 -1.58174740024002
 1  10.99225608660866 -2.60917259365937 -1.24446019161916
 1  9.88362680448045 -3.00255213271327  0.17954443294329
 1  11.34155834593459  0.65265288908891  0.05839930253025
 1  11.30129769916992 -0.81826031153115  1.25111563326333
 1  12.90223673167317 -1.87550142914291 -0.87212065486549
 1  12.84718503510351 -0.38973624652465 -1.51522484098410
 1  13.61318235373537  0.79700009580958  0.60782595669567
 1  13.92809764526453 -0.78523147714771  1.36333590979098
 1  14.97098859625963  0.45294849464947 -1.26203285308531
 1  14.84470986598660 -2.48535681948195 -1.06282030253025
 1  16.80891762806281 -1.75046088558856 -1.10445183778378
 1  16.02924564216422 -2.23944356295630  0.48416111741174
 1  15.93290048164816  1.59474256295630  0.66137998159816
 1  16.34883120582058  0.01553536263626  1.53488548534854
 1  18.34820089738974 -0.32682116071607 -0.14339902460246
 1  17.69561228662866  0.91422438553855 -1.31789909450945
 1  18.18089979587959  2.41700042774277  0.79297579257926
 1  18.51576459065907  1.14227306410641  1.73059431503150
 1  20.43526175597560  0.69447018071807  0.11823476057606
 1  19.69599229642964  3.37285941804180 -1.38749372357236
 1  21.23446196339634  2.39471507530753 -1.46168149154915
 1  19.77586582238224  1.58977901450145 -2.13194837603760
 1  21.02219723282328  1.73502305260526  2.06443037083708
 1  21.89606344804480  2.79464758135814  0.92706460626063
 1  20.48032569526953  3.54437410791079  1.57977058145815
 1 -7.11416519901990  1.73987825982598  0.44471772857286
 1 -7.82323368996900 -0.10758563416342 -0.29892321252125

