%nproc=4
%Mem=2GB
# td=(NStates=1) B3LYP/SVP 

TD

0 1
 6 -5.06720957145715 -1.96848665466547  0.67113573867387
 6 -4.68365452365237  2.80472070107011  1.46478315441544
 6 -9.33078232183218  3.25374157045705 -0.19669428562856
 6 -9.71544339543954 -1.49679127372737 -1.06605275067507
 7 -5.21965871387139  0.35019148024802  0.99211666966697
 6 -4.46432453005301 -0.80782976657666  0.91750783638364
 6 -3.06937869156916 -0.48840932443244  1.34380763016302
 6 -3.10820497289729  0.81401651925193  1.99097360276028
 6 -4.39897485558556  1.35246229162916  1.44089600100010
 6 -3.18596509440944  0.85857415841584  3.49278913691369
 6 -2.07491283408341 -0.68148316241624  0.22199880758076
 6 -0.57457584568457 -0.86243509830983  0.65920368546855
 6  0.24021852775278 -0.84423134043404 -0.64204006120612
 8 -0.11000126422642 -1.21855154505451 -1.73830628522852
 8  1.51376645184518 -0.45884230273027 -0.30287527952795
 7 -6.98148132913291  2.69262400430043  0.56939753375338
 6 -5.92397657865787  3.37531426392639  1.09282340774077
 6 -6.21375264776478  4.74706279007901  1.03663521522152
 6 -7.55557862236224  4.85700702370237  0.49081431153115
 6 -8.09952540294029  3.55993459235924  0.25623695999600
 6 -5.37230638703870  5.85456923932393  1.54823082698270
 6 -8.12662925112511  6.16202592029203  0.35504055835584
 6 -8.93626114891489  6.53907319791979 -0.66112472877288
 7 -9.27226062536254  0.81124959955996 -0.59521649704970
 6 -9.77573935133513  1.97138043974397 -0.57343615431543
 6 -11.24679091709171  1.88600223972397 -1.14013808510851
 6 -11.34085952645265  0.51395543694369 -1.28903896549655
 6 -10.05969267766777 -0.07754480388039 -1.01724520492049
 6 -12.18152234943494  2.96705927502750 -1.46471090019002
 6 -12.43760385778578 -0.28664776317632 -1.97427966296630
 6 -12.31129559915992 -0.45681032743274 -3.46483366776678
 7 -7.41288441414141 -1.31252556705671 -0.12813915901590
 6 -8.52103808930893 -2.00327694189419 -0.69421635003500
 6 -8.13315692289229 -3.39182378387839 -0.68061179967997
 6 -6.72405443364336 -3.41042692699270 -0.25496760206021
 6 -6.41451999159916 -2.11651345044504  0.11043319741974
 6 -8.91990597569757 -4.60297369736974 -0.97351985878588
 6 -5.65312143364336 -4.37880310721072  0.05570824042404
 8 -5.48214007010701 -5.55615212391239 -0.06535961556156
 6 -4.48901450605061 -3.36420353305331  0.66269151875188
 6 -4.00649306410641 -3.87312100730073  1.95861774707471
 8 -4.13654626632663 -3.28152910881088  3.05855631963196
 8 -3.40002251795180 -5.04724500580058  1.74899064206421
 6 -2.79356288658866 -5.60511141644164  2.99031550185018
 6  2.51689173257326 -0.66421511211121 -1.38135234053405
 6  3.93614772457246 -0.59748437183718 -0.58049466266627
 6  4.94911721192119  0.25888493609361 -0.94989039363936
 6  4.81852236243624  1.20421426312631 -2.14712725172517
 6  6.23508722082208  0.25766839513951 -0.09428089118912
 6  7.48942316951695 -0.12059139223922 -0.92463981738174
 6  8.74481795879588 -0.10829603650365 -0.15992087198720
 6  9.98865071977198 -0.57939242184218 -0.84038501840184
 6  9.93123691709171 -2.04365953175318 -1.21534564926493
 6  11.23594426902690 -0.20633030363036  0.00868840084008
 6  12.68495708030803 -0.55405388378838 -0.72573045024502
 6  13.86094250145015 -0.05479818291829  0.04717107970797
 6  15.23948576967697 -0.21448448424842 -0.60899473527353
 6  15.49786711431143 -1.72388655055506 -0.92182191769177
 6  16.27853045024503  0.55700661186119  0.25358862326233
 6  17.72484932363236  0.56857259115912 -0.30487499529953
 6  18.65629548054805  1.36863548254825  0.54939363226323
 6  20.22777267316732  1.45761138643864  0.20950371077108
 6  20.39734066356636  2.01414084528453 -1.14844125312531
 6  20.94503496909691  2.08768250435044  1.29745614631463
 1 -4.06903507110711  3.26068245254526  2.30722296059606
 1 -10.01663924892489  4.00448988548855 -0.11580025392539
 1 -10.39113745364537 -2.15121113111311 -1.46943683758376
 1 -2.79062511401140 -1.37799816391639  1.93388518321832
 1 -2.21402196979698  1.53988393949395  1.69038853725373
 1 -2.21144866076608  0.35793321502150  3.92558928422842
 1 -3.40320362066207  1.70545518911891  3.94207330853085
 1 -4.05412599199920  0.16403710601060  3.91738058375838
 1 -2.26337579147915 -1.55625950365036 -0.54741159745975
 1 -2.17542348094810  0.30709818411841 -0.40493915461546
 1 -0.28806312971297 -0.08572444654465  1.51084711521152
 1 -0.36077909080908 -2.07500668066807  1.16334345334533
 1 -4.24905956335634  5.93115125272527  1.21854499249925
 1 -5.87393861266127  6.95742086078608  1.25076067306731
 1 -5.54587636463646  5.74604445384538  2.77962902350235
 1 -7.92485258415842  6.94654168786879  1.16451775807581
 1 -9.23608900170017  5.87092507800780 -1.45422481848185
 1 -9.39851413061306  7.63222850815082 -0.71653135723572
 1 -12.55861040844084  3.59620011851185 -0.64537693629363
 1 -11.61539046134614  3.88955392009201 -2.03424064156416
 1 -12.97596499649965  2.54715033323332 -2.20844389128913
 1 -12.59541436733673 -1.35299542584258 -1.38214278807881
 1 -13.58186892919292  0.14780444184418 -1.78720239753975
 1 -12.08277279227923  0.41576859195920 -3.98862770617062
 1 -11.71437764546455 -1.38839823622362 -3.63815461216122
 1 -13.41649972317232 -0.67176453455345 -3.99305316401640
 1 -10.03670121692169 -4.42409450135013 -0.43615941984198
 1 -9.39248115831583 -4.58468548204821 -2.04236475707571
 1 -8.36244795029503 -5.46186696659666 -0.44534918841884
 1 -3.62838856615662 -3.33450080138014 -0.16386944674467
 1 -2.29284615261526 -6.49578618231823  2.52476818081808
 1 -2.14577114881488 -5.06302604160416  3.63188763906391
 1 -3.51108216361636 -6.00275727572757  3.88476999719972
 1  2.47714950675068 -1.77049379047905 -1.63745087838784
 1  2.33022486538654  0.17083564556456 -2.20194781408141
 1  4.24718615451545 -1.36080415091509  0.11405044944494
 1  5.26583184768477  2.22345004280428 -1.91479406680668
 1  5.33644060786079  0.77885384058406 -3.09830289738974
 1  3.78803528872887  1.33522632853285 -2.59462481938194
 1  6.34332442954295  1.36956009990999  0.44162896249625
 1  6.13566139193919 -0.70998658395839  0.71869156325633
 1  7.39927058015802 -1.15091913731373 -1.22163700980098
 1  7.42123187428743  0.48974447904791 -1.87889674737474
 1  8.87830227182718  0.84770262176218  0.22938419691969
 1  8.71992472237224 -0.66431351835184  0.82818567146715
 1  9.80037690299030  0.13875407370737 -1.69181990489049
 1  9.12662985058506 -2.38768743154315 -1.96418564406441
 1  10.79453631463146 -2.50442211861186 -1.78926467206721
 1  10.03059150095009 -2.58446032353235 -0.14484800630063
 1  11.39085327542754  0.84311193499350  0.12311577417742
 1  11.38755632503250 -0.58323680918092  0.88826934863486
 1  12.86202271027103 -1.51565544454445 -0.88286172897290
 1  12.80619093569357 -0.13650092299230 -1.78455177367737
 1  13.53344437993799  1.04067446324632  0.40405557965797
 1  13.90794563006301 -0.52959591359136  1.02936251245125
 1  15.33304480188019  0.37021022082208 -1.51665831563156
 1  14.71148654365437 -2.07374565836584 -1.83651767226723
 1  16.62321905820582 -2.00348618811881 -1.11986337893789
 1  15.17345006260626 -2.44609422802280 -0.00264756345635
 1  15.81798899049905  1.43868695739574  0.33563740734073
 1  16.44788111081108  0.17115092419242  1.42429442624262
 1  18.07906398369837 -0.29100757935794 -0.52708739343934
 1  17.52657538293829  1.05099806290629 -1.29426673127313
 1  18.16581828772878  2.40122885058506  0.77045354035404
 1  18.70410342454246  0.91505034183418  1.62830408600860
 1  20.65563379317932  0.58766950065007  0.01541447854785
 1  20.40405310251025  3.08641077317732 -1.15182015621562
 1  21.27761627882788  1.79469507330733 -1.58028335173517
 1  19.86261449724973  1.56849688628863 -1.91931711291129
 1  20.73620863396340  1.49397894819482  2.34169809760976
 1  22.00302414411441  2.48325644224422  0.99682158195820
 1  20.54139180188019  3.18538820932093  1.58979158355836
 1 -7.20656443894389  1.71606587858786  0.49367262406241
 1 -7.28157952455246 -0.33752862846285  0.02487916771677

