%nproc=4
%Mem=2GB
# td=(NStates=1) B3LYP/SVP 

TD

0 1
 6 -5.28472132263226 -1.94451425742574  0.42646127122712
 6 -4.69983614181418  2.63048327732773  1.64617129322932
 6 -9.21065030863086  3.39004520082008 -0.19969458565857
 6 -9.79217106820682 -1.30727232183218 -1.07898404380438
 7 -5.18996574457446  0.36849331043104  0.86842430043004
 6 -4.57131522912291 -0.83889287288729  0.85494157975798
 6 -3.12675442914291 -0.64596508000800  1.31799504890489
 6 -2.99755390779078  0.75616073367337  1.91238574397440
 6 -4.43471842994299  1.27773481888189  1.37855976737674
 6 -3.05641213911391  0.62968126912691  3.49095895389539
 6 -2.12631797459746 -0.78464347844784  0.11053766146615
 6 -0.66231461956196 -0.87917677247725  0.63923168826883
 6  0.30711521742174 -1.09527644494449 -0.52012786998700
 8 -0.01448171227123 -1.52552224212421 -1.61196365096510
 8  1.61314638983898 -0.94215063356336 -0.15791078307831
 7 -6.92675585658566  2.80467520942094  0.61879247324732
 6 -5.83882806380638  3.44577130963096  1.14814894029403
 6 -6.03959523202320  4.75929401320132  1.13723527522752
 6 -7.35786885138514  4.99977130013001  0.58346357645765
 6 -7.84379983038304  3.71382998189819  0.21190252655266
 6 -5.16874603100310  5.75678946134613  1.71161716561656
 6 -7.93105969416942  6.25288500620062  0.37498255255526
 6 -8.80862838563856  6.68487777837784 -0.60831944824482
 7 -9.11458485778578  0.96355483008301 -0.49749672507251
 6 -9.76290806820682  2.14072737443744 -0.57816662736274
 6 -11.14718095609561  2.10042368186819 -1.08656272757276
 6 -11.31424686518652  0.75966000740074 -1.43624368596860
 6 -9.97064377277728  0.12428537913791 -1.07845132553255
 6 -12.19083328052805  3.15832840194019 -1.26359078817882
 6 -12.44938503590359  0.00226112771277 -2.01083331833183
 6 -12.22885735533553 -0.41245589198920 -3.57926511091109
 7 -7.41706483218322 -1.24177849234924 -0.30306665176518
 6 -8.53495948144814 -1.93856047024702 -0.76165309370937
 6 -8.25026863406341 -3.41174577607761 -0.72351609010901
 6 -6.89171119931993 -3.41163704800480 -0.30776288158816
 6 -6.49180772037204 -2.07634943404340 -0.06078392429243
 6 -9.27519150425042 -4.51833523352335 -0.94307681448145
 6 -5.83951007250725 -4.30445567246725  0.14234690429043
 8 -5.95167702380238 -5.50159666836684  0.13485040544054
 6 -4.60355596019602 -3.42804991769177  0.67122237183718
 6 -4.09021143594359 -3.88858255345535  1.97558944424442
 8 -4.39173178487849 -3.39914086998700  2.98120858485849
 8 -3.25599811551155 -4.90143042434243  1.75069081208121
 6 -2.89370290059006 -5.58100900620062  2.99970644094409
 6  2.62440248364836 -1.17163585418542 -1.26787099239924
 6  4.04122823262326 -1.00225484888489 -0.54812142534253
 6  4.94271657185719 -0.25360631303130 -0.98682408700870
 6  4.94603511371137  0.64903874557456 -2.30381292029203
 6  6.31507521962196 -0.10052742444244 -0.23289475257526
 6  7.57873210041004 -0.52674200730073 -0.95186253965397
 6  8.79690316731673 -0.48753396029603 -0.22995787568757
 6  10.07297915261526 -0.87085156775678 -0.90726170607061
 6  10.15708950235024 -2.35067023282328 -1.15254936963696
 6  11.31779245384538 -0.31637130773077 -0.13605607360736
 6  12.61788037263726 -0.59549802820282 -0.65116299349935
 6  13.76013242044204 -0.05426812991299  0.02219858245825
 6  15.20078189928993 -0.16728976477648 -0.55479931573157
 6  15.72578990659066 -1.54361852375237 -0.61627136263626
 6  16.20320291749175  0.72154306550655  0.21584484888489
 6  17.62102894159416  0.98161389528953 -0.19371387918792
 6  18.56543639463946  1.84214283328333  0.70174886778678
 6  20.06145604150415  1.98670429572957  0.05163792419242
 6  20.15045597509751  2.84973440464046 -1.20811722072207
 6  20.81957242284228  2.61374511061106  1.12583898459846
 1 -3.90015818341834  3.14819120342034  2.10357259555956
 1 -9.69565715071507  4.20001943844384 -0.43356203010301
 1 -10.80038837873787 -1.92514852485248 -1.14128402230223
 1 -2.85467151865187 -1.42198256235624  2.05352714741474
 1 -2.20863143074307  1.36392634373437  1.51400089848985
 1 -2.05246276217622  0.30295771747175  3.68144486978698
 1 -3.22302560286029  1.64650929452945  3.94420352155216
 1 -3.80249082848285 -0.08243754145415  3.93328217391739
 1 -2.40625007890789 -1.58507238493849 -0.61904876117612
 1 -2.16060199879988  0.00687816211621 -0.76394505520552
 1 -0.38302262566257  0.01895602150215  1.04971100160016
 1 -0.61192420532053 -1.60602978297830  1.41429854885489
 1 -3.97472212961296  5.46377451505150  1.33348648664866
 1 -5.68225944474447  6.72618773747375  1.41242683968397
 1 -5.32467424442444  5.81113096249625  2.84280534113411
 1 -7.71633173207321  7.02894992869287  1.23394470077008
 1 -9.16186157895789  6.04632261776178 -1.45077447344734
 1 -9.29939421862186  7.54691997729773 -0.38819852395240
 1 -12.28894344174417  3.65359585808581 -0.34814721332133
 1 -11.74812373467347  3.89497446214622 -1.78973619111911
 1 -13.12969036903690  3.09377499569957 -1.78460150705071
 1 -12.65023984988499 -0.89131925822582 -1.45743031683168
 1 -13.40300104240424  0.68523818521852 -1.71392506980698
 1 -12.25841035603560  0.43456047114711 -4.30350919431943
 1 -11.30108631633163 -0.93963335973597 -3.70632142884288
 1 -13.04683275647565 -1.12823018111811 -4.04557841654166
 1 -10.01121866866687 -4.75357744964496 -0.08410421432143
 1 -9.90737264746475 -4.65276228972897 -2.06940746134613
 1 -8.79379108460846 -5.51443222312231 -0.92928758225823
 1 -3.75888161546155 -3.75100245154515 -0.08188124792479
 1 -2.17516438443844 -6.29798640234023  2.76092179617962
 1 -2.50490706240624 -4.76743648264826  3.42965741604160
 1 -3.86493754915492 -5.82719971997200  3.66773829402940
 1  2.46007779957996 -2.21546828792879 -1.62607974127413
 1  2.37238908180818 -0.38457989598960 -1.95455307460746
 1  3.94617605350535 -1.39315738623862  0.46169521392139
 1  5.40745601010101  1.59440713851385 -2.05913850125013
 1  5.33909087288729  0.04441039623962 -3.06625969306931
 1  3.93728021322132  0.79853265916592 -2.66886224312431
 1  6.51563166026603  0.91142428632863 -0.10328552895290
 1  6.11257908370837 -0.55391097639764  0.81405109920992
 1  7.53790444354435 -1.67302134753475 -1.39017386348635
 1  7.70021977307731 -0.14608910431043 -2.01625048274828
 1  8.79148358995899  0.65279313081308  0.21393265176518
 1  8.74584731463146 -1.14231131813181  0.66285913881388
 1  10.03818068336834 -0.36628643034303 -1.76191691459146
 1  9.38554574217422 -2.72209087188719 -1.77814704020402
 1  11.06324318531853 -2.80088176457646 -1.65393113871387
 1  9.93385182698270 -3.22319419691969 -0.35672919441944
 1  10.90769495959596  0.88767639143914  0.13010647324732
 1  11.27672524192419 -0.91993047854786  0.74393491519152
 1  12.73544005200520 -1.66657053605361 -0.93070651345134
 1  12.57957827442744 -0.37464473737374 -1.78097141564156
 1  13.67235827132713  1.03031342714271  0.17468264236424
 1  14.14057889338934 -0.34989794379438  1.07997757395740
 1  15.42749424682468  0.16232943274327 -1.56383303310331
 1  14.87043243824382 -2.06649493329333 -1.22972699319932
 1  16.60169690599060 -1.76100193969397 -1.33599499209921
 1  15.82305502310231 -1.97524714331433  0.33562626392639
 1  15.75151234283428  1.73800688938894  0.19897374097410
 1  16.08975529822983  0.42725653475348  1.38328032483248
 1  18.09794587188719 -0.01284976357636 -0.38137282198220
 1  17.68804152955295  1.38267123022302 -1.17796510111011
 1  18.39119082498250  2.86109483718372  0.69373586858686
 1  18.55920893509351  1.54460329712971  1.75890714631463
 1  20.52272050185019  0.97982871657166 -0.02191925482548
 1  19.65335803300330  3.83729586168617 -0.92020699489949
 1  21.27874639183918  2.84018962276228 -1.58768409180918
 1  19.70571880768077  2.31500153675368 -1.97521270247025
 1  20.61476648974898  2.04038358865887  2.08495242304230
 1  21.93532737443744  2.77640575717572  0.72804470427043
 1  20.57992565526553  3.74913458395840  1.34896750115012
 1 -7.23202698519852  1.79455372737274  0.65651890869087
 1 -7.68546991359136 -0.25453032863286 -0.10970429062906

