%nproc=4
%Mem=2GB
# td=(NStates=1) B3LYP/SVP 

TD

0 1
 6 -5.10919376987699 -2.00309011501150  0.46655528062806
 6 -4.75216137433743  2.80045027402740  1.33721039713971
 6 -9.35832507610761  3.42698889518952 -0.28717333353335
 6 -9.83505535663566 -1.28945053965397 -0.88998514391439
 7 -5.15457220522052  0.38378483958396  0.82044950295030
 6 -4.43619171677168 -0.76014499809981  0.88825491109111
 6 -3.03308506220622 -0.58223870737074  1.21644489388939
 6 -3.05059921232123  0.83292841044104  1.88263276867687
 6 -4.37057201530153  1.39551659705971  1.37392930433043
 6 -3.01420791869187  0.85533383438344  3.39704956295630
 6 -2.09505484828483 -0.76261127522752  0.08809541724172
 6 -0.63944233233323 -0.79421827662766  0.50646841194119
 6  0.40767527342734 -0.96001291859186 -0.50686654385439
 8  0.13872360826083 -1.56914660456046 -1.49525197979798
 8  1.60377545274527 -0.74803122162216 -0.13614860686069
 7 -7.02765594659466  2.76231097299730  0.22166276027603
 6 -5.91923610461046  3.33818055055506  0.83697782318232
 6 -6.22403367586759  4.89061714551455  0.89645119681968
 6 -7.49053211771177  4.98931025402540  0.36225145524552
 6 -8.07233268366837  3.70601920082008  0.03907524382438
 6 -5.37214637103710  5.80172395479548  1.52695869976998
 6 -8.19339592779278  6.27537725542554  0.20993604790479
 6 -9.11788931173117  6.61727101770177 -0.66228484478448
 7 -9.30003340264026  1.00146862146215 -0.46787376277628
 6 -9.89473125052505  2.16830013171317 -0.60794960566057
 6 -11.37140337833783  1.91157479697970 -0.92351642294229
 6 -11.45608104860486  0.56128016941694 -1.04046410801080
 6 -10.06784349274928  0.03137608820882 -0.85548902930293
 6 -12.41434563176318  3.03256582568257 -1.11423585268527
 6 -12.75441553895389 -0.19034813321332 -1.32361459645965
 6 -12.78196266586659 -0.53676832323232 -2.84743192759276
 7 -7.51023414911491 -1.17682199669967 -0.30748709380938
 6 -8.57488347384738 -1.98950556475648 -0.59001592999300
 6 -8.21767537473747 -3.40074467596760 -0.61021475997600
 6 -6.90177220542054 -3.48041392569257 -0.25056716201620
 6 -6.44787332693269 -2.03346514561456  0.02480463456346
 6 -9.08231221632163 -4.60196359635964 -0.97878038483848
 6 -5.77930405190519 -4.31752697959796 -0.09299663006301
 8 -5.59595145124513 -5.57099360806081 -0.28447152675268
 6 -4.53282888748875 -3.39703681638164  0.33314856445645
 6 -3.92429484428443 -3.87147084228423  1.65705759105911
 8 -4.09558216991699 -3.53504446034603  2.83728419241924
 8 -3.11302381808181 -4.86172645394540  1.47228297129713
 6 -2.28112164246425 -5.42839374467447  2.56869333963396
 6  2.68566861026103 -1.15434412501250 -1.06114031933193
 6  4.02884699449945 -0.64634925832583 -0.47425403860386
 6  4.96129843004300  0.16751579917992 -0.86269167376738
 6  4.80691120132013  0.89285312701270 -2.12967550655066
 6  6.26451016311631  0.28488111641164 -0.22355381848185
 6  7.49079330653065 -0.31295062816282 -0.98527588098810
 6  8.83615709270927 -0.15154036093609 -0.13626850675068
 6  10.13241509620962 -0.72126660926093 -0.92321330123012
 6  9.99095288868887 -2.23953911971197 -1.19461357605761
 6  11.32804347894789 -0.40337000760076  0.09343687568757
 6  12.65485407000700 -0.66579505790579 -0.58579645684568
 6  13.85473188038804 -0.15558826192619  0.31353771637164
 6  15.12405422652265 -0.09212224802480 -0.44306814261426
 6  15.67096442404240 -1.51638580048005 -0.75842557805781
 6  16.23650624782479  0.52836374757476  0.43826709110911
 6  17.81065790449045  0.63267900180018 -0.17648215601560
 6  18.74162401340134  1.54994361336134  0.73106179907991
 6  20.14380427632763  1.56915254055406  0.22477523792379
 6  20.11937286678668  2.32735216641664 -1.20812722172217
 6  21.25593605920592  2.30832456855686  1.22172857355736
 1 -4.11246941454145  3.56003238753875  1.85397763606361
 1 -10.14276186118612  4.32452188868887 -0.27336601050105
 1 -10.68959729962996 -2.12301831183118 -1.11471136503650
 1 -2.93163921542154 -1.38841920602060  1.99300109480948
 1 -2.09425999359936  1.51164111521152  1.56554605300530
 1 -2.08434595049505  0.23048046974697  3.67194391969197
 1 -3.24673797409741  1.93898854245425  3.86269537073707
 1 -3.69529010841084  0.20924162646265  3.78089693539354
 1 -2.09846930083008 -1.85971984968497 -0.16772362866287
 1 -2.16852279087909 -0.23385591129113 -0.86699536023602
 1 -0.47034135753575  0.17377150305031  1.19426545704571
 1 -0.52267528042804 -1.58256743674367  1.34520163916392
 1 -4.45304996239624  6.17962610021002  0.55040817881788
 1 -5.92269348814881  6.69955507420742  1.98868446544654
 1 -4.88451022802280  5.15387523692369  2.40311137173717
 1 -7.65117521642164  6.92014904860486  0.95858716501650
 1 -9.49878527132713  5.83094107960796 -1.35370476647665
 1 -9.62655693489349  7.47868315361536 -0.72247195129513
 1 -12.43743829122912  3.58244874337434 -0.22777517611761
 1 -12.07826674897490  3.64557952265227 -2.08456567406741
 1 -13.46922432243224  2.56345196339634 -1.31979502640264
 1 -12.59229405530553 -1.14788491479148 -0.63611818561856
 1 -13.59094983728373  0.30563022442244 -1.00791446874687
 1 -13.05475999099910  0.19659667476748 -3.70083892729273
 1 -11.85979218691869 -1.34678407480748 -3.02940373707371
 1 -13.69395746894689 -1.14482184028403 -2.99319317801780
 1 -9.93662120892089 -4.62256434833483 -0.20133593749375
 1 -9.56125803600360 -4.22823983748375 -1.86231675227523
 1 -8.63045475097510 -5.54869564946495 -0.98224287778778
 1 -3.68698442574257 -3.46307365866587 -0.41938499829983
 1 -1.68939580758076 -6.34737134083408  2.21875757975798
 1 -1.78111468316832 -4.53705344434443  3.10990544084408
 1 -2.92789384478448 -6.07548454845484  3.40083160336034
 1  2.84673646544654 -2.28472521362136 -1.14505163846385
 1  2.33331517441744 -0.77312875087509 -2.22128974827483
 1  4.26624806070607 -1.04189225972597  0.45513455785579
 1  5.02064732923292  2.02815051285129 -2.08322090949095
 1  5.25240220402040  0.70079603480348 -2.97204027112711
 1  3.79013549874988  0.82204501040104 -2.54722007890789
 1  6.46370646774677  1.32430557445745 -0.13377857825783
 1  6.20384821062106 -0.10751633693369  0.76029572367237
 1  7.30391104420442 -1.53529757515752 -1.28325317141714
 1  7.52413216431643  0.31350685528553 -1.86172503020302
 1  8.94102854445445  0.89424727622762 -0.11063980548055
 1  8.80929365926593 -0.42181926892689  1.06392924582458
 1  10.20236710201020 -0.16046584828483 -1.81493221612161
 1  9.02605979357936 -2.34911357415742 -1.80669989548955
 1  10.88708556955696 -2.69396107250725 -1.85262100770077
 1  9.72783122492249 -2.68474035153515 -0.20781430293029
 1  11.21470566066607  0.66210383418342  0.11780524312431
 1  11.17858542794279 -0.87431591709171  1.03763428512851
 1  12.82303881188119 -1.79685356435644 -0.90687413021302
 1  12.73568388498850 -0.11080835373537 -1.64468778727873
 1  13.54403543904390  0.75236563236324  0.67396257035704
 1  13.65661049654966 -0.71011396539654  1.30844042024202
 1  15.11110260766077  0.53552675247525 -1.32423907370737
 1  15.06204159915992 -2.07467575137514 -1.66921094159416
 1  16.59789652595260 -1.47177301680168 -1.23283467606761
 1  15.80300301790179 -2.33928354695470 -0.01006830553055
 1  16.06507369896990  1.56863995269527  0.48909275287529
 1  16.32656897959796 -0.21945813671367  1.36595859265927
 1  18.22905898319832 -0.38448692729273 -0.37172185688569
 1  17.70400312571257  1.08027099019902 -1.10413771837184
 1  18.32034374027403  2.45113384108411  0.62197869286929
 1  18.51201421562156  1.16749558635864  1.68055931153115
 1  20.46166439623963  0.50787152085209  0.24346728382838
 1  19.49039173637364  3.33060519261926 -1.12072704690469
 1  21.20592911011101  2.46564216801680 -1.38678400180018
 1  19.57632586838684  1.70589062566257 -1.92171735293529
 1  21.02570758385839  1.99523907420742  2.22031595939594
 1  22.21614545624562  1.96681479807981  0.83276517631763
 1  21.03701136383638  3.42495216571657  1.01508411281128
 1 -7.07586136863686  1.88762303430343  0.26305956275628
 1 -7.50333169976998 -0.17290216581658 -0.47658097829783

