%nproc=4
%Mem=2GB
# td=(NStates=1) B3LYP/SVP 

TD

0 1
 6 -5.07288013851385 -1.87735754175418  0.37288591369137
 6 -4.92427858605861  2.77640786978698  1.43085976207621
 6 -9.54537378097810  3.30782697899790 -0.23061767796780
 6 -9.90686253735374 -1.50588218281828 -0.92305845124512
 7 -5.17790453845385  0.40298675977598  0.77650510851085
 6 -4.43802189978998 -0.73141212481248  0.76525261086109
 6 -2.93272502620262 -0.47102758625863  1.20056330573057
 6 -3.13827798019802  0.92071718931893  1.81559606500650
 6 -4.55406036413641  1.39980702610261  1.28532044344434
 6 -2.88884538243824  1.01320962196220  3.43323318131813
 6 -2.03536887968797 -0.51610662476248 -0.05741913421342
 6 -0.59519790789079 -0.58023687848785  0.38690645574557
 6  0.37913241914191 -0.77101401870187 -0.81081693889389
 8  0.07082681858186 -1.12782247214721 -1.91357381198120
 8  1.65442051725173 -0.50459687818782 -0.28070306230623
 7 -7.20422360336034  2.75939068096810  0.56548714271427
 6 -6.11092527352735  3.40346707920792  1.07171129652965
 6 -6.38150942344234  4.78889697349735  1.15076662836284
 6 -7.66719978447845  4.93174449744974  0.66085131523152
 6 -8.16516196659666  3.65296389528953  0.11385272157216
 6 -5.48210736713671  5.82375615801580  1.63277928182818
 6 -8.43093968216822  6.24837455515551  0.45278033233323
 6 -9.32448997179718  6.49536882748275 -0.56710532683268
 7 -9.26136953625362  0.83638211281128 -0.35532250765077
 6 -9.94882666006601  1.99138243994399 -0.52814162486249
 6 -11.34158039603960  1.71676531603160 -0.82829690099010
 6 -11.45700114061406  0.35829987138714 -0.99316937853785
 6 -10.08799550795080 -0.12460951035104 -0.76894037443744
 6 -12.29696389358936  2.85065763486349 -1.18239266836684
 6 -12.59485958335834 -0.38019711811181 -1.61240347534753
 6 -12.51832630223022 -0.58031267766777 -3.07225440984098
 7 -7.46966009170917 -1.28827314181418 -0.22543888898890
 6 -8.67181316681668 -2.05189180338034 -0.47759468786879
 6 -8.23338694589459 -3.43225782728273 -0.58443218171817
 6 -6.86666869506951 -3.43817970227023 -0.17488959425943
 6 -6.42415095469547 -2.11232303140314 -0.03524137003700
 6 -9.09055304040404 -4.65821922192219 -0.85790829762976
 6 -5.75245136663666 -4.27757298419842 -0.01858918931893
 8 -5.68718057415742 -5.49745625432543 -0.02300538013801
 6 -4.45518112271227 -3.29926703940394  0.33043829342934
 6 -3.71388380318032 -3.74912860806081  1.61992387768777
 8 -4.00944355605561 -3.28499945584558  2.76180664466447
 8 -2.82956547224722 -4.67420770207021  1.30850659365937
 6 -2.11541507180718 -5.27284819011901  2.37045351565156
 6  2.70337038043804 -0.93973266386639 -1.19461366666667
 6  4.08643275307531 -0.66198082148215 -0.68186479967997
 6  4.97893019321932  0.15687473507351 -1.14322972757276
 6  4.96223673387339  0.74963880558056 -2.53657619661966
 6  6.29901361346135  0.39923255155516 -0.33611507460746
 6  7.54864909210921 -0.21858119121912 -0.99832718611861
 6  8.84973845084509  0.09878467156716 -0.24899977987799
 6  10.15698755345535 -0.65317980058006 -0.74077505740574
 6  10.08157195059506 -2.19534470027003 -0.51626574127413
 6  11.29100977557756 -0.10416008660866 -0.04277674567457
 6  12.63873245784579 -0.73587206560656 -0.45251312851285
 6  13.86060246744674 -0.00664336743674  0.22236859945995
 6  15.21325314641464 -0.37167020282028 -0.31937577337734
 6  15.59382671027103 -1.90546470837084 -0.18642837833783
 6  16.32522511971197  0.38910982218222  0.44465773017302
 6  17.70708754745474  0.40756649054905 -0.17161166896690
 6  18.76389624062406  1.33174179317932  0.70169886278628
 6  20.14136403230323  1.38767439273927  0.11502426282628
 6  20.32883381288129  1.82210164136414 -1.34123053205321
 6  20.95478594419442  2.29330306640664  1.09265566626663
 1 -4.15579374697470  3.28741512581258  1.81328356665667
 1 -10.35689327432743  4.22978241474147 -0.29033770767077
 1 -10.67983632353235 -2.29941595159516 -0.92361225512551
 1 -2.58063411491149 -1.24525488958896  1.96555835053505
 1 -2.32022258985899  1.59946989808981  1.40190968936894
 1 -1.89935745164516  0.46604402610261  3.55749247454745
 1 -2.90068336863686  1.89794443804380  3.94381348254825
 1 -3.71502208160816  0.36147684998500  3.75493433913391
 1 -2.19830928482848 -1.41433531123112 -0.53023988028803
 1 -2.29677561616162  0.35082255655566 -0.86427508820882
 1 -0.29711403480348  0.33300742664266  1.03301933243324
 1 -0.40713372627263 -1.32421160116012  1.08546566556656
 1 -4.61489614701470  6.00754889248925  0.96148928692869
 1 -5.84683590239024  6.91410652935294  1.85891148814881
 1 -4.91502327932793  5.42436228562856  2.62094315491549
 1 -8.14010410931093  6.94365139883988  1.19798110441044
 1 -9.80386577937794  5.82432041754175 -1.36923631963196
 1 -9.83450772997300  7.42633791909191 -0.49138884298430
 1 -12.43984853225323  3.60271076957696 -0.32374477307731
 1 -11.94944386668667  3.41730669536954 -2.00900811831183
 1 -13.18167556755676  2.49383500170017 -1.64504755165517
 1 -12.80519534543454 -1.34369449574958 -1.10190476427643
 1 -13.33230397269727  0.31474113551355 -1.34071774907491
 1 -12.54791930693069  0.30550756585659 -3.64712355575558
 1 -11.59549575727573 -1.13147254365437 -3.44883568026803
 1 -13.54376244944495 -0.82728008610861 -3.42413627232723
 1 -9.71814936173617 -4.95359745164517 -0.02355815971597
 1 -9.72311422162216 -4.33898091159116 -1.71972249284928
 1 -8.32474417991799 -5.54603538343834 -1.27819247274728
 1 -3.76737246454646 -3.37032438373837 -0.49517257705771
 1 -1.51975884388439 -6.30141674537454  2.05015071907191
 1 -1.16363293499350 -4.57229696869687  2.77391184148415
 1 -2.82608366376638 -5.59753675367537  3.19189070927093
 1  2.23727551935194 -2.09010575167517 -1.60714784808481
 1  2.65100694359436 -0.23010444844484 -2.13124074337434
 1  4.08443987988799 -0.94433250375037  0.25788483288329
 1  5.24469973447345  1.76421411921192 -2.60148273567357
 1  5.89952691649165  0.00714666986699 -3.03252631973197
 1  4.09369585478548  0.42135494139414 -3.08973433033303
 1  6.47018711581158  1.46103924782478 -0.14145934633463
 1  6.24727255305531  0.11214562926293  0.75112480658066
 1  7.08756941004100 -1.39472351775178 -1.21774662076208
 1  7.58940869196920  0.27236274087409 -1.90424928262826
 1  9.08901334293429  1.26226407790779 -0.30706944844484
 1  8.77152988288829 -0.11270835783578  1.02739559245925
 1  10.25088195349535 -0.53487328902890 -1.94019474237424
 1  9.09906709430943 -2.75216387918792 -1.16430565606561
 1  11.06662352335234 -2.94683636003600 -0.75009075467547
 1  9.71218966076608 -2.24622650015002  0.73431991049105
 1  11.42228641874187  0.99959758355836 -0.26014255165517
 1  11.29299686908691 -0.16007449294929  1.03814433613361
 1  12.63317982598260 -1.90310418941894 -0.06353979677968
 1  12.65048536513651 -0.74949222212221 -1.64957827632763
 1  13.33034406990699  0.99365976177618 -0.02751757765777
 1  13.64513934943494 -0.20698365236524  1.42574215041504
 1  15.15192669006901  0.15028822862286 -1.39469611941194
 1  14.88986438143814 -2.65128341214121 -0.70472449294929
 1  16.66859359565957 -2.03457929742974 -0.55160655325533
 1  15.59691240884088 -2.10695031363136  1.07053975527553
 1  16.07287447904790  1.48532162086209  0.52266611021102
 1  16.31164748744875  0.21572538163816  1.67165916271627
 1  18.05769184648465 -0.64619309790979 -0.02505719041904
 1  17.74560728612861  0.77869083218322 -1.21585889048905
 1  18.23955566146615  2.45005373307331  0.69976647164716
 1  18.76746976117612  1.01179001580158  1.84072532813281
 1  20.72129035883588  0.34000473417342  0.25679861696170
 1  20.35975867306731  2.89452158425843 -1.54020899509951
 1  21.41216973417341  1.65922152595260 -1.64770009340934
 1  19.47788602440244  1.45278531513151 -2.16349153035304
 1  20.84246926002600  2.14657420772077  2.11282521032103
 1  21.97392123382338  2.44357247384739  0.65771767156716
 1  20.49671733443344  3.26721639213921  1.05146775117512
 1 -7.21348513101310  1.69356362836284  0.34220747754775
 1 -7.54580594719472 -0.08050292589259 -0.09059237943794

