%nproc=4
%Mem=2GB
# td=(NStates=1) B3LYP/SVP 

TD

0 1
 6 -5.10427327782778 -1.90003980998100  0.38634725982598
 6 -4.65564172237224  2.76578680768077  1.38063473957396
 6 -9.25510475407541  3.37142333863386 -0.25229984618462
 6 -9.83284513561356 -1.38998059265927 -0.90298644404440
 7 -5.17422417041704  0.42827928902890  0.81538899689969
 6 -4.50682878047805 -0.72110109370937  0.89153523912391
 6 -3.08708046174617 -0.65159564306431  1.32927617701770
 6 -3.13897805020502  0.73201831943194  2.01369587498750
 6 -4.35459041714171  1.41028807420742  1.30468237963796
 6 -3.12267876577658  0.80226852785279  3.45711556955696
 6 -2.17394273707371 -0.65281029512951  0.11063767146715
 6 -0.67927631573157 -0.73247210201020  0.48863662876288
 6  0.39668417431743 -1.04601151845185 -0.58687454465447
 8  0.06492622852285 -1.54653434333433 -1.65455791039104
 8  1.69551462666267 -0.90159657815782 -0.19497448944894
 7 -7.01267444844484  2.72118686058606  0.64429502350235
 6 -5.75847002800280  3.37740447294729  1.04845897129713
 6 -6.07356862936294  4.84165224902490  1.03713526522652
 6 -7.33748681318132  5.02922424542454  0.48961419151915
 6 -7.88424387478748  3.68358695759576  0.24285562186219
 6 -5.13489264566457  5.93324710711071  1.63829983388339
 6 -8.03874046224622  6.30210992869287  0.33303835813581
 6 -8.95347287008701  6.60596988758876 -0.66135475177518
 7 -9.14072747204720  0.92111058565857 -0.36817379277928
 6 -9.79826160356036  2.15635893759376 -0.44238304900490
 6 -11.17495373337334  1.93724736423642 -1.00481455275528
 6 -11.32811825232523  0.64228827022702 -1.10922098369837
 6 -10.12641935033503 -0.01189823922392 -0.74070755115512
 6 -12.08068226542654  3.09701227032703 -1.11922635173517
 6 -12.65311540894089 -0.02502160056006 -1.52660489548955
 6 -12.52167663726373 -0.21041568796880 -3.06576376077608
 7 -7.54362748844884 -1.21207552205221 -0.04443078817882
 6 -8.62648863436344 -1.99748636283628 -0.61243817221722
 6 -8.14385799299930 -3.33104770627063 -0.60692443094309
 6 -6.93316534473447 -3.38387427172717 -0.30046215151515
 6 -6.47074561416142 -1.99401120022002  0.03011516561656
 6 -9.11171515661566 -4.56547994799480 -0.83985649244924
 6 -5.75214133563356 -4.32362758965897 -0.08365569596960
 8 -5.75251710781078 -5.48705521422142 -0.16408948854885
 6 -4.54242984758476 -3.33223033573357  0.30952620222022
 6 -3.94441685648565 -3.87991168636864  1.61436332163216
 8 -4.07180979267927 -3.46738769466947  2.69701016501650
 8 -3.26617913361336 -4.95697597889789  1.37061280428043
 6 -2.82299582988299 -5.68567947324732  2.55434190449045
 6  2.73517356075608 -1.36606529712971 -1.17859206450645
 6  3.96239034883488 -0.82262688608861 -0.61497811101110
 6  4.97103940414041 -0.15132608500850 -1.42091749634964
 6  4.92460297049705  0.08235207690769 -2.97406994599460
 6  6.23286699879988  0.27613024132413 -0.58580004310431
 6  7.56773100030003 -0.50836016911691 -1.02648000140014
 6  8.80375385238524 -0.18420362726273 -0.16213109300930
 6  10.08680053475348 -0.83327781038104 -0.79518049794980
 6  10.05522931633163 -2.33467863366337 -0.61147526222622
 6  11.36484715931593 -0.37334700530053 -0.01709417741774
 6  12.59747833243324 -0.59567804620462 -0.71579945714571
 6  13.85647205440544 -0.07264996809681  0.16013237583758
 6  15.27416923802380 -0.17584061986199 -0.33923775957596
 6  15.69884721232123 -1.65476963886389 -0.33309304480448
 6  16.13991658885889  0.79968087928793  0.42610587498750
 6  17.67075391409141  0.71629736363636 -0.03847835563556
 6  18.55708555955595  1.76302492149215  0.76190488338834
 6  20.00479037493749  1.89688531383138  0.22565532593259
 6  19.98317924742474  2.31695112631263 -1.19586599559956
 6  20.78026849244925  2.93936767286729  1.09170557125713
 1 -3.81463963156316  3.51790817511751  1.51980421872187
 1 -9.96634421942194  4.15718515501550 -0.32886156005601
 1 -10.64748308820882 -2.01684769476948 -0.94048394229423
 1 -2.78441449294930 -1.56531689578958  2.09463125782578
 1 -2.31977254485449  1.40873082418242  1.63857335573557
 1 -2.14683219911991  0.37271469316932  3.93387011231123
 1 -3.03449674997500  1.76288093169317  3.84527362856286
 1 -3.90901148054806  0.22787348964896  3.95992483818382
 1 -2.43181263516352 -1.53990786848685 -0.81242809910991
 1 -2.23796973557356  0.25397287158716 -0.50958961966197
 1 -0.16402072547255  0.24661878777878  1.01358738923892
 1 -0.39339235213521 -1.53748292829283  1.33898101710171
 1 -4.14934959235924  5.95839397699770  1.16237937593759
 1 -5.62800401920192  6.81513663236324  1.65483108010801
 1 -4.93257503450345  5.67134698409841  2.73965502610261
 1 -7.81626172507251  7.04421145484548  1.02466377267727
 1 -9.34425981878188  5.95007299279928 -1.46798619461946
 1 -9.23274755395540  7.61838712401240 -0.58666837093709
 1 -12.26666121352135  3.74598509700970 -0.03693609220922
 1 -11.93878280058006  4.11677664236424 -1.77747496499650
 1 -13.06706410641064  2.63290890909091 -1.35498854575458
 1 -13.02800762666267 -0.89050917721772 -1.03929850365036
 1 -13.59310005230523  0.68573823522352 -1.44157783508351
 1 -12.26208072307231  0.66586360146015 -3.66875571897190
 1 -11.68017422512251 -0.90453985038504 -3.33887468416842
 1 -13.38171624482448 -0.90742810091009 -3.47527138583858
 1 -9.95917346414642 -4.70636272817282 -0.16610241414141
 1 -9.72817472767277 -4.65068208170817 -1.77866838743874
 1 -8.56871857735774 -5.44090487038704 -0.62203685718572
 1 -3.90687641494149 -3.40092744404440 -0.46375943574357
 1 -1.93229009700970 -6.35816241994200  2.10756646064606
 1 -2.45588215991599 -4.89418915791579  3.26118056835684
 1 -3.67717877327733 -6.27096409640964  2.98865038523852
 1  2.48439023082308 -2.61310805190519 -1.05575270857086
 1  2.55410725362536 -1.12324376237624 -2.31162878217822
 1  4.32171360726073 -1.01834990549055  0.29943898829883
 1  5.22957822232223  1.08827652545254 -3.53165575297530
 1  5.37859482328233 -0.75855990079008 -3.63839690679068
 1  3.81511799699970  0.09596240214021 -3.48450380728073
 1  6.53329342644264  1.42938608250825 -0.80758595899590
 1  6.06344417021702  0.22868728342834  0.69088878297830
 1  7.14196484958496 -1.59689373477348 -0.69782462856286
 1  7.81190094119412 -0.37059155455546 -2.10396925462546
 1  8.87307174877488  0.85739359085909 -0.24810355185519
 1  8.66448917881788 -0.34627171417142  0.86981983488349
 1  10.09481634693469 -0.68887868956896 -1.76360708360836
 1  9.13937112471247 -2.77302596539654 -0.99620884638464
 1  10.95537239823982 -2.84602627902790 -0.94452019761976
 1  9.92225066686669 -2.66199807730773  0.37533401190119
 1  11.25020921102110  0.78382600640064  0.24698816141614
 1  11.29549711911191 -0.94345283078308  0.80336085778578
 1  13.02359886788679 -1.65972985198520 -1.07708115091509
 1  12.57741805840584 -0.05885315821582 -1.71285460396040
 1  13.67209824532453  1.04162455825583  0.30834600870087
 1  13.58460329582958 -0.60804375837584  1.06948652485249
 1  15.30760225762576  0.21123432323232 -1.32495914571457
 1  15.29921531653165 -2.33261154495450 -1.02320634113411
 1  16.79089582588259 -1.70268610811081 -0.64769616221622
 1  15.86881959955996 -2.00025964456446  0.50594329562956
 1  15.84885207680768  2.12816590529053  0.30969481308131
 1  16.15113143584358  0.50712452155215  1.38757075387539
 1  18.04964104140414 -0.19267774637464  0.31922723802380
 1  17.65753847924793  0.87465042814281 -1.12464976957696
 1  18.10435214111411  2.77650637833783  0.54308080308031
 1  18.27461047524752  1.62433126992699  1.92953420902090
 1  20.42514074387439  0.77406814051405  0.46028896599660
 1  19.29398209540954  3.24123625572557 -1.27174214841484
 1  21.14984350155015  2.49040464426443 -1.41656698009801
 1  19.42186042184218  1.48592862946295 -1.68454363556356
 1  20.80630564366437  2.66199574987499  2.25639956775678
 1  21.76212005370537  3.03378149474948  0.77693959375938
 1  20.33562122482249  4.13504317481748  0.89852245664566
 1 -7.06526030853085  1.74354862686269  0.45103836063606
 1 -7.62738410501050 -0.26056093169317  0.05497217701770

