%nproc=4
%Mem=2GB
# td=(NStates=1) B3LYP/SVP 

TD

0 1
 6 -5.15981883238324 -1.99054886088609  0.43633225832583
 6 -4.69218537673767  2.78666889588959  1.37679435553555
 6 -9.27909715331533  3.39659585588559 -0.27083169936994
 6 -9.82471432253225 -1.38313990859086 -1.00614676007601
 7 -5.21868861686169  0.40912737383738  0.90976843484348
 6 -4.47318541614161 -0.81119010261026  0.80384647024702
 6 -3.02652440614061 -0.53811429492949  1.26411966136614
 6 -3.08187233963396  0.84799991759176  1.78747325272527
 6 -4.37953291139114  1.43874091949195  1.33569548094809
 6 -2.88130462836284  0.81105940694069  3.31795165316532
 6 -2.07094243704370 -0.68857387148715  0.17062367006701
 6 -0.59144753285329 -0.80073892869287  0.55819358445845
 6  0.35204971087109 -1.02549946724672 -0.59969582678268
 8  0.11676141204120 -1.53240293019302 -1.64707716231623
 8  1.64768984418442 -0.66133255175518 -0.17656264826483
 7 -6.93649683068307  2.74496923882388  0.48534912891289
 6 -5.86921110211021  3.40263699619962  0.93345747114711
 6 -6.12833410591059  4.81392947674768  0.98642019371937
 6 -7.31946501100110  5.04455577857786  0.46951218131813
 6 -7.94884033443344  3.73583218211821  0.14827616391639
 6 -5.15190434683468  5.94047783018302  1.44188019191919
 6 -7.95787237543754  6.31019073677368  0.45793084738474
 6 -8.86070359315932  6.61524081468147 -0.49095771207121
 7 -9.17073047234723  0.99552802740274 -0.38552552795280
 6 -9.78184996239624  2.19337263896390 -0.54987379807981
 6 -11.16375261326133  1.98899253875388 -1.02956702800280
 6 -11.27227266776678  0.64828887028703 -1.24258432003200
 6 -9.97979468786879  0.00881383198320 -0.90481396179618
 6 -12.18974317151715  3.07691026012601 -1.14734916401640
 6 -12.53433353075308 -0.13931302970297 -1.58372060706071
 6 -12.70685515511551 -0.38104275067507 -3.10633781818182
 7 -7.55462858855886 -1.32889720422042 -0.14685103020302
 6 -8.64053003850385 -1.99425603980398 -0.57846477487749
 6 -8.24948855605560 -3.45955055655566 -0.62819655815582
 6 -6.93147517571757 -3.40882676697670 -0.21710381568157
 6 -6.52725126472647 -2.08459025812581  0.01501365546555
 6 -9.11077506260626 -4.59330273027303 -0.96842934973497
 6 -5.71353747524752 -4.28167339423942 -0.04127145754575
 8 -5.62712456855686 -5.45812232093209 -0.26690977057706
 6 -4.56136174077408 -3.39512662536254  0.47696294589459
 6 -4.16336875167517 -4.00802449764977  1.81364324962496
 8 -4.34637724942494 -3.58182913881388  2.94251471547155
 8 -3.48821133683368 -5.07544782608261  1.61623736673667
 6 -3.00662419271927 -5.91074197949795  2.72537900820082
 6  2.60189023242324 -0.98106679727973 -1.15988019331933
 6  3.92331644144414 -0.71055567896790 -0.54032064526453
 6  5.05382768296830 -0.13955490789079 -1.09293469806981
 6  4.90831134133413  0.56616045774577 -2.44902744174417
 6  6.24470818291829  0.07767039533953 -0.30791225432543
 6  7.60156438363836 -0.58281761486149 -0.97759511291129
 6  8.79980345734574 -0.20992619951995 -0.11747662756276
 6  10.07476933163316 -0.79692417501750 -0.75678665856586
 6  10.04527832123212 -2.37680284608461 -0.86343045774577
 6  11.31030170477048 -0.44418408900890  0.09364689668967
 6  12.75580416501650 -0.68648712711271 -0.54218209540954
 6  13.78923533073307 -0.01670437353735  0.28111447404740
 6  15.20117193829383 -0.07811084688469 -0.50856469226923
 6  15.74489181678168 -1.52564672657266 -0.75662539803980
 6  16.31702429962996  0.66097700890089  0.43348661306131
 6  17.68384522322232  0.77954368826883 -0.21540604840484
 6  18.58791864286428  1.76224484348435  0.65616430933093
 6  20.07572746864686  1.89323494879488  0.13523628402840
 6  20.07989891939194  2.46941637283728 -1.24079048804880
 6  20.95007547314732  2.69410314641464  1.14256065676568
 1 -4.02243041064106  3.60715710001000  1.66194843314331
 1 -9.83733131813181  4.26293573007301 -0.28122679657966
 1 -10.64227256715672 -1.98407441744174 -1.42833272717272
 1 -2.61843789528953 -1.06830719481948  2.14240603530353
 1 -2.29956052365237  1.36556650775077  1.34527402580258
 1 -1.88373588948895  0.39396681838184  3.61047777307731
 1 -3.06846014631463  1.80478512211221  3.60699980118012
 1 -3.68650923032303  0.32382308460846  3.72951179687969
 1 -2.43159261316132 -1.80480435813581 -0.41824868116812
 1 -2.27376331493149  0.00413788808881 -0.55930459115912
 1 -0.29602392579258  0.24936906280628  1.00776680718072
 1 -0.45418843174317 -1.82083126312631  1.34558167716772
 1 -4.29981463886389  6.32405054265427  0.72772591059106
 1 -5.71694291309131  6.93462858155816  1.64482007900790
 1 -4.76614839183918  5.54430427982798  2.41195225582558
 1 -7.68833893279328  7.11393842754275  1.03279458575858
 1 -9.14900029282928  6.01276926242624 -1.44545394139414
 1 -9.40571485068507  7.68590387568757 -0.56938664276428
 1 -12.49246379377938  3.45639613811381 -0.02224462306231
 1 -11.56988591089109  4.00666563126313 -1.57995521302130
 1 -13.11227862786279  2.87145276347635 -1.86183923082308
 1 -12.32853767966797 -1.12648277457746 -0.94528910271027
 1 -13.59535027732773  0.50298996039604 -1.26725040234023
 1 -12.68554306930693  0.70128714381438 -3.55110395379538
 1 -11.79253546124613 -0.90906030243024 -3.41748254495450
 1 -13.57364543774377 -1.10404776287629 -3.18042190089009
 1 -10.08250579737974 -4.63798589048905 -0.44720052395239
 1 -9.37976988718872 -4.59382639613961 -1.98531905250525
 1 -8.58038974447445 -5.59946072597260 -0.87227188068807
 1 -3.82038776607661 -3.57620497179718 -0.42354541434143
 1 -2.06993386138614 -6.49277588128813  2.16837254125413
 1 -2.60926749844984 -5.16608634763476  3.47629207950795
 1 -3.97142819821982 -6.34570157015701  3.12913443364336
 1  2.35711750355035 -2.08293503460346 -1.42003913721372
 1  2.26062790569057 -0.23767520552055 -1.90153777307731
 1  4.15673710961096 -1.24655272577258  0.36638568296830
 1  4.99034429892989  1.65501319911991 -2.51420400780078
 1  5.49458642244224 -0.10536458125813 -3.21021408850885
 1  3.87658414361436  0.44115692159216 -2.91176653355336
 1  6.17883798089809  1.15297844174417 -0.26969216961696
 1  6.21461928772877 -0.23594918021802  0.65172486658666
 1  7.38658931203120 -1.69230327572757 -1.10811565766577
 1  7.84620437153715 -0.10383487888789 -1.97414627232723
 1  9.08857329892989  0.80480833233323 -0.21995073657366
 1  8.63813654355436 -0.77478456545655  0.86917977087709
 1  10.01137800310031 -0.15858566026603 -1.81597232013201
 1  9.10963815141514 -2.88358702150215 -1.35531475697570
 1  11.00270713171317 -2.89890156655666 -1.21676742234223
 1  9.85094353615361 -2.86536841434143  0.13684016251625
 1  11.21010520062006  0.77784540834083  0.27456091869187
 1  11.17113468286829 -1.11701018651865  1.06374689638964
 1  13.02918942694269 -1.65029890889089 -0.78302174497450
 1  12.57738805540554 -0.19723699659966 -1.61011432993299
 1  13.50425146064606  1.08222861866187  0.15057023112311
 1  13.81017585308531 -0.54551750575058  1.25458503470347
 1  15.18777027442744  0.57724092389239 -1.28923557335734
 1  15.25277067206721 -2.13783206700670 -1.43542756325633
 1  16.64919165546555 -1.42888872837284 -1.36495788838884
 1  15.87841055865587 -2.24072369096910  0.19989269056906
 1  15.96180337193719  1.76539962866287  0.55498934253425
 1  16.29662598529853 -0.00836702760276  1.42382437923792
 1  18.19693577087709 -0.15282376097610 -0.32169685438544
 1  17.40055278067807  1.01606456955696 -1.21497880248025
 1  17.93983568946895  2.66887561526153  0.56337283228323
 1  18.42769578377838  1.22667150395040  1.68407966356636
 1  20.55452368216822  0.81914264796480  0.08886182328233
 1  19.40321301850185  3.41501363346335 -1.30460543474347
 1  21.10327884508451  2.95754135793579 -1.83842916631663
 1  19.64357259305931  1.78588862546255 -1.95747092829283
 1  20.95790080318032  2.35430498079808  2.29170309810981
 1  22.04684852655265  2.60579869646965  0.99659155895590
 1  20.81255891859186  3.86676634713471  0.96282888728873
 1 -7.11324510701070  1.77504177617762  0.24498775557556
 1 -7.74728609520952 -0.31436631223122 -0.03433675387539

