%nproc=4
%Mem=2GB
# td=(NStates=1) B3LYP/SVP 

TD

0 1
 6 -5.12133498399840 -2.01506131213121  0.44637326242624
 6 -4.64728088628863  2.65216544554455  1.34185086118612
 6 -9.19799904350435  3.48066426272627 -0.22940755695570
 6 -9.81695354645464 -1.30373196779678 -1.04736088148815
 7 -5.06589333733373  0.40158661976198  0.73708116611661
 6 -4.55296339393939 -0.87972695629563  0.86425251085109
 6 -3.07145889958996 -0.75152563606361  1.32394564396440
 6 -2.99572372477248  0.66884200180018  1.86100060546055
 6 -4.32509746784678  1.38221526692669  1.36601851325133
 6 -2.90781727962796  0.76066436743674  3.33677353535354
 6 -2.10009535233523 -0.95552056615662  0.16788339603960
 6 -0.63605199329933 -0.94162301710171  0.55361312641264
 6  0.42937744364436 -1.35708262556256 -0.41047690489049
 8  0.21504124002400 -1.99913960386039 -1.46113856845685
 8  1.59197427262726 -0.89265568406841 -0.00835582758276
 7 -7.00334351535153  2.89435417731773  0.41564215821582
 6 -5.83652783378338  3.36131286378638  0.99258338373837
 6 -6.05157643014301  4.83079116291629  0.95924747644765
 6 -7.30880394489449  5.05122644564456  0.44536976707671
 6 -7.94230968136814  3.75581418031803  0.16662799909991
 6 -4.99051820822082  5.75365914831483  1.41051705560556
 6 -7.76554314251425  6.36060577827783  0.15842089638964
 6 -8.78407593039304  6.66411570217022 -0.70216883318332
 7 -9.12107550685069  1.00207868246825 -0.45068204360436
 6 -9.74226600400040  2.17647094879488 -0.53855266596660
 6 -11.14353059105911  2.02777641714171 -0.87929200050005
 6 -11.35114055455545  0.67585162656266 -1.14319438103810
 6 -10.09742645104511  0.01476442704270 -0.83547702810281
 6 -12.27463166036604  3.07431000010001 -0.97534196329633
 6 -12.56025612301230  0.07324822642264 -1.53086532153215
 6 -12.85940040964097 -0.07167181358136 -3.11784896929693
 7 -7.49226235193519 -1.23248756325633 -0.12781912701270
 6 -8.61048703420342 -1.93606022022202 -0.68174510291029
 6 -8.24295790299030 -3.37124172567257 -0.87454119261926
 6 -6.89851187938794 -3.37953383768377 -0.34506661196120
 6 -6.46240478007801 -2.06577837693769  0.13168532263226
 6 -9.10848483358336 -4.46643004300430 -1.22875538233823
 6 -5.87065318681868 -4.40478570547055 -0.06746407680768
 8 -5.88692054815482 -5.53206971567157 -0.13360644024402
 6 -4.64801040564056 -3.42395950865086  0.44502975257526
 6 -4.03840625542554 -3.98452214741474  1.80254213951395
 8 -4.51759437113711 -3.62871382728273  2.78142860686069
 8 -3.16014853055306 -4.94503478477848  1.49002474547455
 6 -2.62403593389339 -5.72843374867487  2.61335780608061
 6  2.67790783418342 -1.15441413201320 -0.96384058935894
 6  3.98288239803980 -0.64114873827383 -0.34917153035304
 6  5.02046434663466  0.00969001660166 -0.98614401900190
 6  4.99851036123612  0.53158700040004 -2.31685422442244
 6  6.28616232833283  0.19696232453245 -0.26902836593659
 6  7.46618084528453 -0.63017235033503 -0.87297465086509
 6  8.78144162116212 -0.17039224612461 -0.22184706460646
 6  10.10004185888589 -0.79745422802280 -0.82143312321232
 6  9.93693748714872 -2.33533869966997 -0.78454256895690
 6  11.23481415601560 -0.23469313991399  0.00986851885189
 6  12.57802638723872 -0.49963844224422 -0.59632750995100
 6  13.70551695889589  0.04752204910491  0.33832019461946
 6  15.13289511061106  0.01362832703270 -0.36433026882688
 6  15.64282160976098 -1.38425258715872 -0.60995073057306
 6  16.10175277247725  0.83068397959796  0.52210547494749
 6  17.51680851955195  0.95501123502350 -0.25977048484848
 6  18.55581543254325  1.80846946594659  0.56267496039604
 6  20.00659055495549  1.78527415271527  0.03594635503550
 6  20.04648557805781  2.33524295549555 -1.41007741674167
 6  20.89821028662866  2.64156789288929  0.98976537723772
 1 -3.78547671527153  3.31051743604360  1.74598683698370
 1 -9.79203678867887  4.38375781228123 -0.61916058995900
 1 -10.69562790269027 -2.00918692869287 -1.31678157205721
 1 -2.97020307180718 -1.41296166026603  2.12305410011001
 1 -2.27770833843384  1.29390934203420  1.35538503690369
 1 -1.90104762066207  0.61054847654766  3.67013373867387
 1 -3.01112441274127  1.80298494209421  3.52843194439444
 1 -3.50786136553655  0.29756045834583  4.07561640734073
 1 -2.34967442134213 -1.84506838453845 -0.30013686998700
 1 -2.38456439503950 -0.24952747844784 -0.60463912461246
 1 -0.29621394479448 -0.14549042314231  1.03316934743474
 1 -0.60166317921792 -1.69976915691569  1.38532565156516
 1 -4.09518417581758  5.88902704030403  0.82524566256626
 1 -5.35482670147015  6.76830194889489  1.67704330133013
 1 -4.77659943694369  5.61764161356136  2.51038209880988
 1 -7.45183528242824  7.14196122982298  0.83307461376138
 1 -9.14334972777278  5.76022400790079 -1.27733712971297
 1 -9.26241052025203  7.66851213651365 -0.86589629372937
 1 -12.61436598399840  3.59707020552055  0.03517111851185
 1 -11.92150107240724  3.95433039773977 -1.71868908640864
 1 -13.10154755475548  2.68229384758476 -1.40873392029203
 1 -12.47489231513151 -1.07957808410841 -1.14505907970797
 1 -13.55268601090109  0.44991465286529 -0.86192987028703
 1 -13.31396591159116  0.98810582568257 -3.68267711111111
 1 -11.87778398609861 -0.32270166656666 -3.64039483618362
 1 -13.71467954115412 -0.71034839293929 -3.19152301100110
 1 -9.94282182898290 -4.68306039793979 -0.49629543344334
 1 -9.68950086028603 -4.37284429792979 -2.31475199579958
 1 -8.50971267676768 -5.50636141604160 -1.27708236173617
 1 -4.04512023932393 -3.51723907520752 -0.41115417521752
 1 -1.76077294529453 -6.41246785048505  2.11597730173017
 1 -2.05507207890789 -5.04322406140614  3.13099755005501
 1 -3.46502755815582 -6.42541954195420  3.14624614481448
 1  2.70123191499150 -2.21186792789279 -1.20077721102110
 1  2.34795663856386 -0.86859829782978 -2.08783640294029
 1  4.22557399329933 -0.94157222772277  0.77098614301430
 1  5.21436670117012  1.51982968076808 -2.25301788918892
 1  5.73248021182118  0.06259221442144 -3.10605367246725
 1  4.01767825302530  0.39370217611761 -2.74890024692469
 1  6.64109420652065  1.20462360626063 -0.39280448084808
 1  6.32261008680868 -0.20185577087709  0.71650134423442
 1  7.14535518861886 -1.74562860826083 -0.73923876997700
 1  7.72775252635263 -0.34689918531853 -1.99907876557656
 1  8.90097453905391  1.07948580008001 -0.11770051155115
 1  8.73592632253225 -0.28250533753375  1.06116896979698
 1  10.07989485478548 -0.28146794849485 -1.76828755165517
 1  9.20402759035904 -2.39318798159816 -1.41508073357336
 1  10.89211607260726 -2.91149282568257 -1.43545929152915
 1  9.70345878767877 -2.87199907740774  0.14533101160116
 1  11.00052424252425  0.79901752555256  0.28254171677168
 1  11.32894046344635 -0.67268575407541  1.15801632333233
 1  12.73619012701270 -1.54111799079908 -0.73452689548955
 1  12.80020033663366  0.05560828792879 -1.67315063356336
 1  13.81873290879088  1.10111050685069  0.67683285738574
 1  13.94313914941494 -0.57530048404840  1.30707028322832
 1  15.30195169256926  0.36224942474247 -1.39900655045505
 1  14.94138953395340 -2.02330061386139 -1.28165218571857
 1  16.65015175147515 -1.56947278677868 -1.17891928452845
 1  15.78808152575258 -2.00451006960696  0.22797549884988
 1  15.50054724632463  1.73900698939894  0.64106795039504
 1  16.38596491919192  0.24728853795380  1.44660665746575
 1  17.78529460676068 -0.00454893349335 -0.40117480218022
 1  17.16004873027303  1.55813877697770 -1.21297860246025
 1  18.10792249814982  2.81479020672067  0.59379587458746
 1  18.69198221242124  1.28960779757976  1.66728798439844
 1  20.34715294509451  0.76058679237924 -0.02407947084708
 1  19.54534723192319  3.28532066416642 -1.43237821202120
 1  21.05238375557555  2.37999360316032 -1.97068239163916
 1  19.43038127392739  1.67864790139014 -2.07452263346335
 1  20.56001101420142  2.24717426772677  2.06912083988399
 1  21.90805464716471  2.44246236283628  0.85425732553255
 1  20.39685734843485  3.71748141864186  0.77621022542254
 1 -7.09410319281928  1.90665493749375  0.35840909770977
 1 -7.64787615421542 -0.19272414801480  0.17057373717372

