%nproc=4
%Mem=2GB
# td=(NStates=1) B3LYP/SVP 

TD

0 1
 6 -5.08970182068207 -1.98840864686469  0.41959058415842
 6 -4.65972213041304  2.70357058605861  1.62271894799480
 6 -9.19633887748775  3.41831802810281 -0.35134975117512
 6 -9.83507535863586 -1.39573116771677 -1.09365551095110
 7 -5.18236498449845  0.41375783688369  0.79188664666467
 6 -4.48887698529853 -0.75519450305031  0.76152223782378
 6 -3.08766051975198 -0.68235871937194  1.22855610501050
 6 -3.07575172757276  0.78115323292329  1.87131163656366
 6 -4.43354831293129  1.34642168756876  1.37974988638864
 6 -3.03394989288929  0.67306560756076  3.36705656365637
 6 -2.09906524932493 -0.89228424252425 -0.03348674097410
 6 -0.64662305040504 -0.95942479727973  0.46920468556856
 6  0.38782328822882 -1.28659557685769 -0.62045790299030
 8  0.07231696759676 -1.60094978487849 -1.72596505110511
 8  1.58025310051005 -0.99425584408441 -0.22694768676868
 7 -6.95188836983698  2.81769651155115  0.52868346234623
 6 -5.85605978697870  3.44937166966697  1.14783890929093
 6 -6.06071734423442  4.81950003380338  1.18978052975298
 6 -7.36780984548455  4.95842716571657  0.69811504160416
 6 -7.90576602700270  3.76743534243424  0.24306564286429
 6 -5.19996915331533  5.81038482088209  1.69715571947195
 6 -8.05952254045405  6.34104382208221  0.43429848414841
 6 -8.82262978577858  6.80438972957296 -0.59070768706871
 7 -9.15467886718672  0.95643411801180 -0.65169214461446
 6 -9.81488326572657  2.20652395409541 -0.59600841154115
 6 -11.17877411541154  2.08157179667967 -0.99144321562156
 6 -11.45416085658566  0.71366540794079 -1.31998205980598
 6 -10.08008471687169  0.00802375297530 -1.07144062446245
 6 -12.24675887308731  3.12666523562356 -0.96245067416742
 6 -12.62498259565957  0.06599750135013 -1.70530276527653
 6 -12.87105157475748 -0.25638028442844 -3.19170635503550
 7 -7.52584571027103 -1.33319763426343 -0.21492783788379
 6 -8.63056904240424 -2.07124373857386 -0.69732666106611
 6 -8.25561916911691 -3.41610621212121 -0.75862960146015
 6 -6.91178320652065 -3.42328821312131 -0.23580568586859
 6 -6.51809034863486 -2.04010580968097  0.02934508860886
 6 -9.12457644274427 -4.58141154115412 -1.12617512431243
 6 -5.75509163066307 -4.33235846274628  0.06290896049605
 8 -5.77501935803580 -5.49773628232823 -0.19155223482348
 6 -4.54875047964796 -3.39330644334433  0.40177542714271
 6 -3.97742015681568 -3.80935463066307  1.70211209650965
 8 -4.17756036773677 -3.18460941684168  2.82088255225523
 8 -3.21716423212321 -4.90271055235524  1.57174291729173
 6 -2.57143067336734 -5.53864476977698  2.68644511481148
 6  2.70598064146415 -1.34496318691869 -1.08436264156416
 6  3.97335144494449 -0.96538116151615 -0.52980959415942
 6  4.95859816001600 -0.16980793319332 -0.98293369796980
 6  4.89369988018802  0.53938778047805 -2.29745228422842
 6  6.22350606270627  0.00641326962696 -0.23131459455946
 6  7.44612884008401 -0.42579191229123 -0.95645299869987
 6  8.73049652665267 -0.30569577647765  0.00911603170317
 6  10.09190104480448 -0.86553103570357 -0.55578655855586
 6  10.04140793419342 -2.44847001280128 -0.61380549524952
 6  11.29426010061006 -0.39355902650265  0.19174670667067
 6  12.65135371997200 -0.59392787118712 -0.47182505970597
 6  13.81051745894589  0.01722901980198  0.25764212681268
 6  15.18260008110811 -0.20369340514051 -0.28805264106411
 6  15.69130645824582 -1.55960012191219 -0.13990372587259
 6  16.24728732593260  0.94532544374437  0.15780904530453
 6  17.69736657535753  0.78870460436044 -0.27739224702470
 6  18.51312116311631  2.00666928592859  0.30990968386839
 6  20.05835573147315  1.89574519981998 -0.02868010761076
 6  20.30687161666167  2.20547997919792 -1.58328473747375
 6  20.80660112571257  2.91166490259026  0.91609801050105
 1 -3.89805797339734  3.24117050135014  2.23382562086209
 1 -9.67200478547855  4.39417885438544 -0.45349402330233
 1 -10.83386172607261 -2.01371738173817 -1.56575646954696
 1 -2.91856790829083 -1.52038240234023  2.13836563126313
 1 -2.26995756335634  1.38189814091409  1.63780327872787
 1 -2.19373688958896  0.22980040174017  3.89050577587759
 1 -2.80234353465347  1.75930057365737  3.81770087128713
 1 -3.76368694809481  0.03407410971097  3.72008085378538
 1 -2.32990244414441 -1.91683556125613 -0.41587844414441
 1 -2.50555649424942 -0.16133865956596 -0.67432609330933
 1 -0.20444476787679 -0.07453332743274  1.00469650015002
 1 -0.44566757965797 -1.74192337233723  1.29858697769777
 1 -4.09568422582258  5.78248638623862  1.28056119411941
 1 -5.74910612941294  6.89582470117012  1.32872846984698
 1 -5.06181795879588  5.91834168356836  2.82995405600560
 1 -7.76305640454045  7.06271330503050  1.24395570187019
 1 -8.99245463826383  6.24627261276127 -1.59108850485048
 1 -9.24729900910091  7.79378466376638 -0.46723642774277
 1 -12.23514806220622  3.61632213071307 -0.04950734933493
 1 -12.24886380868087  3.74288925362536 -1.99006622412241
 1 -13.24756215621562  2.52474809300930 -1.06268931583158
 1 -12.35574039993999 -0.90370049634964 -1.14608918271827
 1 -13.34411515381538  0.72716237763776 -1.13913759105911
 1 -12.93440795579558  0.69115613071307 -3.79500834423442
 1 -11.90175638333833 -0.74027342374237 -3.63544434113411
 1 -13.57272534573457 -0.80456781488149 -3.33523738243824
 1 -10.02519006580658 -4.57468956085609 -0.60488629252925
 1 -9.16126803700370 -4.47321433493349 -2.27160768136814
 1 -8.59501120662066 -5.55783656355636 -0.66459111261126
 1 -3.87693342064206 -3.54972232353235 -0.41241430123012
 1 -1.87192406040604 -6.40333693739374  2.25246095009501
 1 -1.79323589528953 -4.84467420642064  3.04523897419742
 1 -3.29287034243424 -6.03689068906891  3.48845036523652
 1  2.77365915771577 -2.45170191129113 -1.36285341864186
 1  2.17969981288129 -0.60390182818282 -1.93745136443644
 1  4.03719515541554 -1.69019709020902  0.41082012641264
 1  5.26215147964796  1.45549324712471 -2.10167275467547
 1  5.34054101790179 -0.02739678447845 -2.94228729582958
 1  4.00371685688569  0.52182498839884 -2.77340269716972
 1  6.34514461156116  1.16393953785379 -0.19670487088709
 1  6.06645447124712 -0.44588017331733  0.84200389448945
 1  7.56487714081408 -1.52026607200720 -1.29576442254225
 1  7.64267401850185  0.23959946454645 -1.79450830853085
 1  8.94929937153715  0.77631548304830  0.15133639213921
 1  8.71710444034404 -0.79472655965597  1.02544539743974
 1  10.02070893619362 -0.47293709540954 -1.67849857275727
 1  9.05961314891489 -2.76126478927893 -1.17200642614261
 1  11.08901576257626 -2.59939161556156 -1.14112985858586
 1  10.15127356915692 -2.88028990649065  0.45850232873287
 1  11.22638682878288  0.71078870267027  0.05529899249925
 1  11.15613318271827 -0.65546403190319  1.30383090479048
 1  12.94566107410741 -1.67554143314331 -0.62512595539554
 1  12.54538485508551 -0.06372364526453 -1.42086540504050
 1  13.58279931543154  1.14013440924092  0.45415058915892
 1  13.74458929442944 -0.51878483248325  1.21840141634163
 1  15.06418791619162 -0.10561736193619 -1.47865451525153
 1  14.96372176717672 -2.34413269706971 -0.47429144964497
 1  16.64230096639664 -1.43668950845085 -1.07637903050305
 1  16.32594531213121 -1.76828644724472  0.95000770207021
 1  15.85459265086509  1.92602569126913 -0.08642479887989
 1  16.27685400810081  0.92447625672567  1.40732272907291
 1  18.18202427972797 -0.11123960256026  0.15466078137814
 1  17.77543026842684  0.71486444954495 -1.51375868046805
 1  17.89413111901190  2.99948867656766  0.09976647164717
 1  18.28261127532753  1.90625946274627  1.36570782638264
 1  20.61964019381938  0.99995072877288  0.21864480158016
 1  19.83567626482649  3.09646177827783 -2.19772474667467
 1  21.46365488268827  2.35077068086809 -1.52372769616962
 1  19.95493372917292  1.18427846444645 -2.18714389558956
 1  20.65020003310331  2.49284883518352  1.90574450225022
 1  21.99588343004300  2.91955007160716  0.86534843464346
 1  20.34482214491449  3.88811848234824  0.80116272067207
 1 -6.95568935143514  1.85979025102510  0.41553481028103
 1 -7.70611197779778 -0.37906278187819 -0.32717603780378

