%nproc=4
%Mem=2GB
# td=(NStates=1) B3LYP/SVP 

TD

0 1
 6 -5.04263711421142 -1.92477228322832  0.54599322442244
 6 -4.79028518671867  2.74606483548355  1.50141681778178
 6 -9.34591383498350  3.26887308360836 -0.20802541874187
 6 -9.80048189928993 -1.49492108670867 -0.90281642704270
 7 -5.17931467946795  0.51266772787279  0.90332779077908
 6 -4.47415551315132 -0.71658064166417  0.80605669126913
 6 -2.98846059975998 -0.43014349784978  1.29037228662866
 6 -2.99322347474747  0.87613273087309  1.94831933733373
 6 -4.28858381648165  1.42505955135514  1.43844575597560
 6 -2.92504900280028  0.90225852685269  3.41209106710671
 6 -2.07133247604760 -0.66558157225723  0.11748835653565
 6 -0.53749213731373 -0.64810366516652  0.42219998509851
 6  0.33588809470947 -0.84080099739974 -0.71716757395740
 8  0.02723245914591 -1.20927061696170 -1.85691814641464
 8  1.61088616381638 -0.80691711021102 -0.34703969596960
 7 -7.05307848884889  2.65988072997300  0.69238983298330
 6 -5.93764794579458  3.39138587108711  1.21255538093809
 6 -6.23940521302130  4.79278736253625  1.08814036573657
 6 -7.59770283478348  4.88481980498050  0.52728795889589
 6 -8.08947439783979  3.53593219211921  0.17263860016002
 6 -5.26609576597660  5.85765954835484  1.37411341524152
 6 -8.32662925112511  6.21956167386739  0.44441949624963
 6 -9.09526704950495  6.66713600420042 -0.51135975227523
 7 -9.23258665796580  0.83419189378938 -0.55065204060406
 6 -9.80979275667567  2.00651395309531 -0.55538434913491
 6 -11.25160139813981  1.82748638813881 -1.00754482578258
 6 -11.46069150965097  0.48676271767177 -1.13406346794679
 6 -10.11873858225823 -0.18973602300230 -0.84049753015302
 6 -12.29501369856986  2.88629119821982 -1.19101353045305
 6 -12.69523962136214 -0.24166326472647 -1.55562779777978
 6 -12.73937840744074 -0.65321996839684 -3.05542272667267
 7 -7.44839796549655 -1.21647596209621 -0.18915526062606
 6 -8.61659764526453 -2.04580119431943 -0.50357728612861
 6 -8.12992659985999 -3.44912951445145 -0.57488122662266
 6 -6.86263829202920 -3.38993487778778 -0.13988609390939
 6 -6.47287582718272 -2.00146194529453  0.10167232133213
 6 -9.01808579367937 -4.63499689968997 -0.97005951275128
 6 -5.67823394489449 -4.24938016491649 -0.02395972637264
 8 -5.57909976607661 -5.50050655935594 -0.08957203680368
 6 -4.52397800240024 -3.28240535323532  0.44913016261626
 6 -3.77881029582958 -3.74189788498850  1.73845573087309
 8 -3.91943455515552 -3.26615757165717  2.82492295629563
 8 -2.91414393009301 -4.74603488478848  1.43997974097410
 6 -2.36768029832983 -5.42456336163616  2.60451692199220
 6  2.60395043844384 -0.98000669126913 -1.37099130443044
 6  3.96858096789679 -0.54819944334433 -0.81804841804180
 6  4.93314561476148  0.11167021462146 -1.40986639123912
 6  4.95418592879288  0.85504934663466 -2.78985152415241
 6  6.21216492859286  0.41155378367837 -0.64689615271527
 6  7.43412763996400 -0.38069740284028 -1.16031338473847
 6  8.63961743874387 -0.01446665356536 -0.30135501540154
 6  10.05364721942194 -0.61766624922492 -0.78385936583658
 6  10.21486527992799 -2.17768293409341 -0.89683379807981
 6  11.23929460406041 -0.10447011761176 -0.04885735373537
 6  12.64718330293029 -0.64853333173317 -0.48935681288129
 6  13.80530693789379 -0.06789949304930  0.31106746934693
 6  15.20510233133313 -0.36580961676168 -0.25262909870987
 6  15.49730705830583 -1.83691785368537 -0.33288302380238
 6  16.21749434663467  0.44290520172017  0.46796006040604
 6  17.62082892159216  0.66117185108511 -0.05244975277528
 6  18.60416026702670  1.36070468946895  0.81255994889489
 6  20.00732062796279  1.47783340864086  0.28739149954996
 6  20.16357728722872  1.96328575977598 -1.11993840284028
 6  20.77008747434743  2.28836257235724  1.24776117681768
 1 -4.06302447004701  3.39269565386539  1.99250148844884
 1 -10.11362894789479  4.24509394589459 -0.26849552345235
 1 -10.61418975887589 -2.17952396239624 -1.16708660256026
 1 -2.74374042554255 -1.30415077917792  1.95703749844985
 1 -2.12544311191119  1.46612656375638  1.56779627802780
 1 -2.07833534943494  0.50640806250625  3.89147587288729
 1 -2.84656795709571  1.97026166976698  3.84074317551755
 1 -3.92782336173617  0.36813751605161  3.62098094379438
 1 -2.00847030093009 -1.86287016471647 -0.38476533283328
 1 -2.28203414201420  0.06617409170917 -0.61658031873187
 1 -0.28785310871087  0.55350947684768  0.72526855735574
 1 -0.11681469436944 -1.28887806780678  1.19121624062406
 1 -4.59977463486349  6.10588872647265  0.40479361736174
 1 -5.65716693549355  6.67606272497250  1.57869346634663
 1 -4.76090786778678  5.62186203560356  2.16604766536654
 1 -7.69508960786079  6.95040207390739  1.17871917821782
 1 -9.46991238403840  6.07331531703170 -1.37915731173117
 1 -9.54813909310931  7.69992527782778 -0.32973267736774
 1 -12.06236078347835  3.81253175167517 -0.37255965456546
 1 -12.13784270657066  3.53286825152515 -2.07939515701570
 1 -13.40477787778778  2.43945956415642 -1.13732677957796
 1 -12.54424925082508 -1.05388551485149 -0.78411298509851
 1 -13.63142388468847  0.34057371877188 -1.26097977527753
 1 -12.80849536453645  0.10335735083508 -3.60522936633663
 1 -11.90264647234724 -1.26562595899590 -3.34081487818782
 1 -13.51277935113511 -1.31040839893989 -3.09352321102110
 1 -10.01652919971997 -4.58185027692769 -0.49423522742274
 1 -9.20020193039304 -4.71703871737174 -2.05013553415342
 1 -8.39591129662966 -5.72812359225923 -0.73209786328633
 1 -3.79083481078108 -3.49768712001200 -0.44487754755476
 1 -1.85172204020402 -6.35037164086409  2.25865156915692
 1 -1.54615118681868 -4.69247898689869  3.16954140444044
 1 -3.17332838823882 -5.66715371537154  3.30679219941994
 1  2.49865165696570 -2.12070881198120 -1.82334946824682
 1  2.36098794169417 -0.22957439543954 -2.04296191549155
 1  4.20474191009101 -1.08315638613861  0.31768081248125
 1  5.23660892539254  1.97918561636164 -2.79631221862186
 1  5.53501046484648  0.22097805300530 -3.41072413951395
 1  3.98553503870387  0.80540334623462 -3.12743810071007
 1  6.54143424052405  1.40220336423642 -0.79439463986399
 1  6.12043986978698  0.09280369506951  0.52123181728173
 1  7.25030568366837 -1.64143818921892 -1.17100194629463
 1  7.60433018411841 -0.15371986738674 -2.09348820652065
 1  8.75770021162116  1.06934478597860 -0.11338007950795
 1  8.67033976387639 -0.55905299229923  0.52122497539754
 1  10.02041890719072 -0.31084088578858 -2.05184590749075
 1  9.30723791139114 -2.58555721852185 -1.34689391489149
 1  11.03867072807281 -2.35153683008301 -1.31388713431343
 1  10.07425586738674 -2.68292016951695  0.12606908540854
 1  11.33826801690169  1.05326295009501 -0.18985552295230
 1  11.26412398179818 -0.40968945444544  0.97405792749275
 1  12.66317282528253 -1.66396027502750 -0.45802924572457
 1  12.70443075967597 -0.10563783668367 -1.49229254775477
 1  13.57925896139614  1.09458985478548  0.36495166926693
 1  13.78106294179418 -0.45607856185619  1.47831740794079
 1  14.97313881128113  0.04526772657266 -1.39374602440244
 1  15.06856225122512 -2.46438472227223 -1.05200922142214
 1  16.62298903520352 -2.11323716321632 -0.70276166876688
 1  15.39872258985899 -2.16884650325032  0.59736243754375
 1  15.88185537713771  1.37942103080308  0.77053089668967
 1  16.35464178687869 -0.10434662556256  1.21145314211421
 1  18.02634871217122 -0.24499297789779 -0.12747743244324
 1  17.58939166456646  1.08012097519752 -1.08407571217122
 1  18.44625633153315  2.29322805050505  1.02131862686269
 1  18.60257327152715  0.96403524032403  1.79573082868287
 1  20.39147737753775  0.32025275897590  0.22328526562656
 1  19.62639533673368  3.10674280638064 -1.26331130533053
 1  21.21423994119412  2.18153375717572 -1.25055037843784
 1  19.71629986578658  1.36304634123412 -1.96270145134513
 1  20.58188320142014  1.93821337163716  2.19708363616362
 1  21.80011385308531  2.08968708530853  0.92879477927793
 1  20.81847951065107  3.43946361686169  1.12947555195520
 1 -7.26787056955696  1.56944121612161  0.46576983378338
 1 -7.39797116371637 -0.21601647724772 -0.32225554575458

