%nproc=4
%Mem=2GB
# td=(NStates=1) B3LYP/SVP 

TD

0 1
 6 -5.13358620912091 -1.95320512651265  0.46284490959096
 6 -4.74061021922192  2.75539576857686  1.35368204430443
 6 -9.24236347994800  3.34454065036504 -0.29673428962896
 6 -9.87124897599760 -1.43055465006501 -0.97234337973797
 7 -5.17282403040304  0.43231969306931  0.87392485048505
 6 -4.51591968956896 -0.72532151575158  0.84494057965797
 6 -3.02932468616862 -0.60099058255826  1.21396464586459
 6 -3.05160931333133  0.84559967756776  1.82013651905190
 6 -4.38718367646765  1.41966901230123  1.42935484688469
 6 -2.93284978287829  0.94128242924292  3.41955181318132
 6 -2.08901424422442 -0.76962197629763  0.07246385408541
 6 -0.63452184028403 -0.72844169896990  0.53062082718272
 6  0.22950745664566 -0.90352727002700 -0.70118597579758
 8 -0.11334159825983 -1.09277896779678 -1.89252170677068
 8  1.56382145734573 -0.80861728022802 -0.34185917791779
 7 -7.00655383638364  2.76245098699870  0.53849444344434
 6 -5.92561674267427  3.36313304580458  1.04501862726273
 6 -6.15249652215221  4.75238332213221  1.09115066676668
 6 -7.44335740024002  4.95910723372337  0.52953818391839
 6 -7.97872332273227  3.69860845974597  0.21535287158716
 6 -5.24191334773477  5.84193797619762  1.54727073097310
 6 -8.05880246844684  6.28129784748475  0.40530558485849
 6 -9.06279380218022  6.64801409200920 -0.52884150045005
 7 -9.10698409770977  0.93378185278528 -0.49650662606261
 6 -9.81610338773877  2.10593389508951 -0.51303011371137
 6 -11.15462170017002  1.91307494699470 -0.99814388568857
 6 -11.36525196569657  0.53649769116912 -1.18615867746775
 6 -10.06340304870487 -0.01106815621562 -0.83875735613561
 6 -12.19969416661666  2.99644221332133 -1.24015844494449
 6 -12.67555765316532 -0.14670376877688 -1.52721495649565
 6 -12.73511798139814 -0.28772341874187 -3.11466865126513
 7 -7.54270739643964 -1.34455877037704 -0.27209355445545
 6 -8.70431641714171 -2.08596521072107 -0.62202913131313
 6 -8.22431603880388 -3.47154175567557 -0.64784852335234
 6 -6.85788781698170 -3.47400328462846 -0.36852895819582
 6 -6.43248178777878 -2.17082888198820 -0.05157300320032
 6 -9.11065505060506 -4.67216061606161 -0.90146265306531
 6 -5.79760588208821 -4.35574080098010  0.18362103170317
 8 -5.65145700180018 -5.52552906160616  0.04048096849685
 6 -4.60283588818882 -3.35468258095810  0.38922417201720
 6 -3.95201761656166 -3.80172386758676  1.72950483578358
 8 -4.25221783348335 -3.45982693859386  2.81890235423542
 8 -3.10966348204820 -4.83991427272727  1.54235997899790
 6 -2.67879140944094 -5.51102200750075  2.72269874017402
 6  2.61775181858186 -1.14135282588259 -1.28749295459546
 6  3.93966807660766 -0.80392501590159 -0.68494510771077
 6  4.87358965916592  0.02457150475047 -0.99991539613961
 6  5.00442095229523  0.79381322302230 -2.39744228322832
 6  6.23958767086709 -0.01028840054005 -0.22282374547455
 6  7.44635886308631 -0.46076540964096 -1.07913526692669
 6  8.75564904190419 -0.31054626152615 -0.19132401230123
 6  10.15966782148215 -0.86336081868187 -0.78427940784078
 6  10.07161095449545 -2.35861102690269 -1.08766288098810
 6  11.39763043764376 -0.38802847344734 -0.03320578857886
 6  12.75013359795980 -0.75432391079108 -0.65846372357236
 6  13.84271067826783  0.02021931883188  0.15185154775478
 6  15.30250207130713 -0.18927196299630 -0.37725156095610
 6  15.74909223682368 -1.60022418431843 -0.47596733223322
 6  16.29042163936394  0.70807171837184  0.42473573797380
 6  17.63783062176218  0.68473420732073  0.07508300050005
 6  18.53949380038004  1.82778139713971  0.64987368026803
 6  20.04727462336234  1.84313993929393  0.18661142154215
 6  20.32740366986699  2.13977340854085 -1.15807221622162
 6  20.90187065266527  2.66485022112211  1.09302570327033
 1 -4.00448861646165  3.50659704400440  1.91522376067607
 1 -9.81691927692769  4.19479891639164 -0.63794246814681
 1 -10.83240158005801 -1.94077008700870 -0.81373126702670
 1 -2.90756680818082 -1.37308767286729  2.01075286998700
 1 -2.13161372897290  1.58342829392939  1.40449994839484
 1 -1.83098061396140  0.55413283498350  3.80323704900490
 1 -3.28375167546755  2.05143978757876  3.73704280548055
 1 -3.61926250565056  0.36577728002800  3.84805365106511
 1 -2.19842929682968 -1.59532341004100 -0.43608046434643
 1 -2.27219315791579  0.17969544384438 -0.67772643334334
 1 -0.17891221462146  0.20556468236824  0.95523155365537
 1 -0.28298131103110 -1.67799697969797  1.18172529152915
 1 -4.45809046644665  6.09413755135513  0.69428256625663
 1 -5.74961618041804  6.87362248094809  1.77862345934593
 1 -4.41831360836083  5.58928877827783  2.54304536513651
 1 -7.84973507240724  6.96897393109311  1.16384769106911
 1 -9.34144953775377  5.80479846534653 -1.31274067006701
 1 -9.61475575477548  7.70346563186319 -0.70008971307131
 1 -12.13121766916692  3.80106060456046 -0.51051344994499
 1 -11.94527344964497  3.56661162586259 -2.33658087558756
 1 -13.27058445844585  2.48311392959296 -1.21313436033603
 1 -12.65463028892889 -1.23080320662066 -0.98574314811481
 1 -13.31099184148415  0.51754141554155 -1.15483916121612
 1 -12.92049656465647  0.72687970307031 -3.27740658405841
 1 -11.79035524322432 -0.58638803520352 -3.47031782848285
 1 -13.71909998319832 -0.75878323642364 -3.25389924862486
 1 -9.73980152695270 -4.83587567946795  0.09497369346935
 1 -9.75915782598260 -4.58333534703470 -1.90854137473747
 1 -8.44188589408941 -5.61379215911591 -1.00014466796680
 1 -3.94332005930593 -3.69523687498750 -0.39211227102710
 1 -1.81550841884188 -6.11389799349935  2.47298300230023
 1 -2.34199077077708 -4.78204794379438  3.55724017431743
 1 -3.59081013641364 -6.13283028302830  3.04208572877288
 1  2.46582837463746 -2.18724546564656 -1.61481861516152
 1  2.52507435033503 -0.31719315731573 -2.10641826112611
 1  4.01357279317932 -1.16135420592059  0.44290333473347
 1  5.35934119861986  1.83186088388839 -2.10884347174717
 1  5.79998696249625  0.36017197239724 -3.18896196329633
 1  4.19679616481648  0.75967877377738 -2.96659201610161
 1  6.44352444954495  1.09769291319132  0.16189098869887
 1  6.23580140594059 -0.78775436073607  0.70247994209421
 1  7.35732638573857 -1.52291633703370 -1.29326417251725
 1  7.70613036413641 -0.10692518791879 -1.92263112081208
 1  8.82206664826483  0.68214606610661  0.12580383888389
 1  8.74414714461446 -0.93569065606561  0.81032388528853
 1  10.17225409070907 -0.15756555825583 -1.80698142104210
 1  9.26123331093109 -2.83544220702070 -1.75442466796680
 1  10.85142200320032 -2.77090876727673 -1.44781052665267
 1  9.88243668546855 -2.89724160166017 -0.16985050655066
 1  11.24987917801780  0.69228685248525  0.17330079267927
 1  11.45605317471747 -0.90961944744474  0.94587510921092
 1  12.99703621162116 -1.91740561956196 -0.60312375517552
 1  12.67463778037804 -0.19658693159316 -1.55140845934593
 1  13.42145318081808  1.09094949074908  0.17524269836984
 1  13.80650548604861 -0.24373732773277  1.12242181838184
 1  15.31378287568757  0.11584478427843 -1.58976562636264
 1  15.18940433543354 -2.29005728952895 -0.94869889038904
 1  16.84764150045005 -1.58628446794679 -0.85718711131113
 1  15.81017373497350 -2.04292391099110  0.62038473977398
 1  15.88264545614561  1.59617270597060  0.41688553215321
 1  16.25533185588559  0.36388019711971  1.42756475327533
 1  18.18230430773077 -0.16623510211021  0.03005832113211
 1  17.84811753715372  0.71426438953895 -1.18481578617862
 1  18.11645335123512  2.69615834353435  0.63575007000700
 1  18.56102911711171  1.62351118791879  1.83499475507551
 1  20.44944317411741  0.88401913561356  0.35188812591259
 1  20.12121481868187  3.25373750585059 -1.43282825702570
 1  21.51731024822482  2.12888849264927 -1.37417274067407
 1  19.82792102790279  1.41216125272527 -2.04379956115612
 1  20.94714972807281  2.44704425472547  2.13596752455246
 1  21.85210905260526  2.53193130973097  0.69946184598460
 1  20.70163782648265  3.69144881538154  1.27167977237724
 1 -7.26587036953695  1.72561683368337  0.51577483428343
 1 -7.40185155175518 -0.29008388398840 -0.38882220242024

