%nproc=4
%Mem=2GB
# td=(NStates=1) B3LYP/SVP 

TD

0 1
 6 -5.12448529902990 -1.92090189618962  0.40025865096510
 6 -4.78124428262826  2.67477770677068  1.42407908400840
 6 -9.28153739733973  3.41397759405941 -0.33609822602260
 6 -9.94258610971097 -1.40247184178418 -0.82070821622162
 7 -5.10287703570357  0.37253371447145  0.64112157015702
 6 -4.51628972657266 -0.80826981058106  0.81082716831683
 6 -2.94184593829383 -0.66139662316232  1.27303055245525
 6 -3.01337548994899  0.83564868246825  1.81821632703270
 6 -4.35656061416142  1.35602264766477  1.19971188258826
 6 -3.05241173907391  0.91624992599260  3.32840269826983
 6 -2.01904724752475 -0.76528154225423  0.11186779447945
 6 -0.55978436653665 -0.91660051485149  0.50828859395940
 6  0.41265577147715 -1.08051496879688 -0.64958081528153
 8 -0.00965122922292 -1.22992268216822 -1.78625107970797
 8  1.68410348554856 -0.87572399089909 -0.22887787978798
 7 -7.08447162816282  2.69992473437344  0.49972056605661
 6 -5.89159334033403  3.28088482098210  1.01770589598960
 6 -6.11596286878688  4.64157224102410  0.99808135983598
 6 -7.46938000250025  4.88952027502750  0.43101833193319
 6 -8.05151060146015  3.60465906480648  0.30944228052805
 6 -5.21186034243424  5.73479726212621  1.40019602350235
 6 -8.01974856305631  6.30330004770477  0.35985103940394
 6 -8.95492301510151  6.69285857645765 -0.60630924722472
 7 -9.13864726402640  0.96089456405641 -0.58040501590159
 6 -9.94593637103710  2.14238754045404 -0.62286109680968
 6 -11.33072931093109  1.92397603710371 -0.88407247854785
 6 -11.52600804130413  0.59569361076108 -1.00707076867687
 6 -10.14864157255726 -0.00796784618462 -0.84652813321332
 6 -12.31507570477048  2.99000156925693 -1.11548597769777
 6 -12.64759485688569 -0.25885498389839 -1.46556879187919
 6 -12.78038250785078 -0.47993263966397 -2.90674785918592
 7 -7.43457658335834 -1.25679999449945 -0.31651799689969
 6 -8.59127511301130 -1.96051266546655 -0.57085401380138
 6 -8.31006461366137 -3.42877747924792 -0.54115785428543
 6 -6.94406643484348 -3.37227311161116 -0.20888299359936
 6 -6.44632317191719 -2.04913671277128 -0.06376422232223
 6 -9.17577156225622 -4.44327772777278 -0.80019252605261
 6 -5.85091121262126 -4.29538476537654 -0.06489381978198
 8 -5.80421227732773 -5.52761927062706 -0.03771685128513
 6 -4.57542314691469 -3.42805991869187  0.45360060966097
 6 -3.83016543134313 -3.89728342354235  1.73784566986699
 8 -4.21291390309031 -3.43676463236324  2.76927739173917
 8 -2.99837235293529 -4.87374765606561  1.51934767776778
 6 -2.57931146144614 -5.43397430273027  2.83576004630463
 6  2.65498554195420 -0.92800149074907 -1.24587879317932
 6  3.97383149294930 -0.66455107850785 -0.57867448064806
 6  5.01907420762076  0.08258730633063 -1.19858526312631
 6  4.93622413261326  0.75187902960296 -2.43447598659866
 6  6.28471218331833  0.13894652295230 -0.23906536963696
 6  7.51656588378838 -0.33541287438744 -1.03397075047505
 6  8.85616909390939 -0.12175738263826 -0.17534241414141
 6  10.10774262896290 -0.68470295289529 -0.90479145904590
 6  10.08459225262526 -2.21994716051605 -1.06128024272427
 6  11.39316999159916 -0.21048071867187 -0.05324779277928
 6  12.66026461106111 -0.49117759615962 -0.73221109830983
 6  13.80877728492849 -0.00646334943494  0.06050241284128
 6  15.27478930003000 -0.14477751355136 -0.35077891369137
 6  15.52641996959696 -1.63631779367937 -0.54336407190719
 6  16.24847744494449  0.58992990419042  0.52865613001300
 6  17.70853769246925  0.75804153805381 -0.09277378517852
 6  18.69548939993999  1.42402102110211  0.78529722262226
 6  20.11451134703470  1.61686731203120  0.19882264266427
 6  20.18514944444444  2.34238366956696 -1.07255366436644
 6  20.98650911651165  2.32864660076008  1.26198259895990
 1 -4.11286945454545  3.24248063236324  1.93930616891689
 1 -9.92463004800480  4.23420285678568 -0.34448312221222
 1 -10.67638597849785 -2.18762477247725 -0.95014490839084
 1 -2.96874292579258 -1.31190155425543  2.17019881458146
 1 -2.35069563716372  1.40785073617362  1.27910740914091
 1 -2.20417793369337  0.09873729542954  3.87387411271127
 1 -2.99720302060206  1.95843048664867  3.69840894209421
 1 -4.02848342774277  0.48727943024302  3.61434027972797
 1 -2.27139659355936 -1.69126300400040 -0.46255311161116
 1 -2.16088202680268  0.02170964526453 -0.52788144884488
 1 -0.26362068546855  0.02664679057906  1.07391342184218
 1 -0.25365837873787 -1.74908408840884  1.13908102710271
 1 -4.41055571297130  5.81671980958096  0.84119725772577
 1 -5.60240145894589  6.70339545824582  1.41936753375338
 1 -4.94151592859286  5.37879772917292  2.47521858245825
 1 -7.73621372027203  7.04419145284528  1.05420672697270
 1 -9.26407179998000  6.05822380788079 -1.48159755575557
 1 -9.41864614381438  7.73763904920492 -0.98558826292629
 1 -12.41184573197320  3.82702320082008 -0.21515391399140
 1 -12.16695561786179  3.51618658335834 -2.05778299579958
 1 -13.42882028202820  2.57194281248125 -1.02793584048405
 1 -12.72029685558556 -1.34400452675268 -0.99554412821282
 1 -13.61743248554856  0.34992465386539 -1.07698137543754
 1 -12.56341085608561  0.39878689378938 -3.54092293569357
 1 -11.90435664336434 -1.10129952635264 -3.18110890759076
 1 -13.70513858705871 -0.96487384548455 -3.51301516021602
 1 -10.05700324712471 -4.57114920682068  0.02293648974898
 1 -9.50792270247025 -4.56111312481248 -1.89909042964296
 1 -8.60720242574257 -5.36537731763176 -0.60555520902090
 1 -3.77170289758976 -3.55139249054906 -0.25240830063006
 1 -2.12806967496750 -6.37407401110111  2.48068377237724
 1 -1.80477704940494 -4.67859759875988  3.24017846814682
 1 -3.52456351175117 -5.48408540854085  3.36243776397640
 1  2.49549134093409 -1.99532627372737 -1.48676580988099
 1  2.44722656555656 -0.46255769376938 -2.00118773807381
 1  4.04510594649465 -0.78145621612161  0.43933297769777
 1  5.26721198569857  1.95608330613061 -2.33617620502050
 1  5.55540250405040  0.42355831103110 -3.34830789788979
 1  3.85329181438144  0.86619942584258 -2.62763812071207
 1  6.43372346944694  1.13721686558656 -0.04038923932393
 1  6.16071389718972 -0.38586417171717  0.65903559765977
 1  7.58112876597660 -1.48838288368837 -1.32716756285629
 1  7.53289304040404  0.14238974357436 -1.91289014671467
 1  9.04211865346535  0.90414826632663  0.04295555405541
 1  8.63374610451045 -0.70937802480248  0.64646749964996
 1  10.18507537283728 -0.23425322702270 -1.94865558845885
 1  8.93218040564057 -2.48255691849185 -1.49175840134013
 1  10.78546540754076 -2.83488516491649 -1.82169791539154
 1  10.23493193499350 -2.54378625612561 -0.00711423292329
 1  11.17746193629363  0.88355597939794  0.17865132773277
 1  11.19425699509951 -0.49529801530153  0.91562208390839
 1  12.94109061706171 -1.55627950695070 -0.75865930873087
 1  12.57577789438944 -0.07600487338734 -1.53017633613361
 1  13.87038807430743  1.13854425022502  0.17933310741074
 1  13.73370820632063 -0.39539249324932  1.13748332453245
 1  15.58624012141214  0.31098429822982 -1.32040869066907
 1  15.19654504950495 -2.09127741154115 -1.24618863936394
 1  16.56803353965397 -1.92946878637864 -0.87924931753175
 1  15.51445416301630 -2.11389100770077  0.34589729102910
 1  16.03045023662366  1.54689777847785  0.64178802240224
 1  16.24850117281728 -0.10779697059706  1.47101909870987
 1  18.13312939023902 -0.35972445104510 -0.08575326002600
 1  17.51619434483449  1.05044800790079 -1.03535083968397
 1  18.38669037493749  2.47883661136114  1.08382487748775
 1  18.67370038423843  1.04192302910291  1.99115037063706
 1  20.67321555135514  0.63325405910591  0.26690962806281
 1  19.75401809900990  3.22701483358336 -0.77578255245525
 1  21.02255077227722  2.28423402720272 -1.54070939433943
 1  19.70499873567357  1.57185722232223 -1.77886306750675
 1  21.03709872297230  1.55611516181618  2.22740666846685
 1  22.03047688938894  2.61305942254225  0.74228612841284
 1  20.58312597529753  3.28455812631263  1.87381998639864
 1 -7.35827961046104  1.67895216721672  0.41422467926793
 1 -7.36917828442844 -0.16782165776578 -0.32845616581658

