%nproc=4
%Mem=2GB
# td=(NStates=1) B3LYP/SVP 

TD

0 1
 6 -5.12201505200520 -1.95398520452045  0.49261788688869
 6 -4.71515767396740  2.72570279927993  1.46053272937294
 6 -9.24869411301130  3.32185838213821 -0.36236085228523
 6 -9.78824067516752 -1.35442703730373 -1.02156830223022
 7 -5.16939368736874  0.41697815891589  0.87096455445545
 6 -4.49961805940594 -0.74548353195320  0.86074215981598
 6 -3.03241499519952 -0.62049253275328  1.43389663906391
 6 -3.09029318171817  0.81572669026903  1.98054255965597
 6 -4.35854081218122  1.40020706610661  1.40819273067307
 6 -2.98879537743774  0.89876817781778  3.45413527152715
 6 -2.07139248204820 -0.64331934603460  0.25626223392339
 6 -0.61112950105010 -0.78301715651565  0.58281604670467
 6  0.38030253615362 -1.09197611491149 -0.52414827202720
 8  0.09584932083208 -1.62609229912991 -1.64926738133813
 8  1.61322639783978 -0.81500791929193 -0.20891588358836
 7 -7.02826600760076  2.71771651355136  0.49444003800380
 6 -5.94148832983298  3.32063879637964  1.13503762916292
 6 -6.25896716921692  4.73718180198020  1.15799735143514
 6 -7.54454751925193  4.93945526852685  0.61737696779678
 6 -8.01224667506751  3.57795639453945  0.18385972227223
 6 -5.30643980038004  5.75410919331933  1.82033803770377
 6 -8.23475006320632  6.21518123582358  0.46580163446345
 6 -9.12823034583458  6.54624391499150 -0.47811642794279
 7 -9.10406380568057  0.92530100470047 -0.67985496089609
 6 -9.74747652505251  2.03158646034603 -0.68371718241824
 6 -11.13445968396840  1.89470310981098 -1.11211528282828
 6 -11.28289372987299  0.63618766016602 -1.38030809240924
 6 -9.98180488888889 -0.02583963336334 -0.95362884328433
 6 -12.08359255645565  3.05564813391339 -1.30000442954295
 6 -12.49200929832983 -0.15530462886289 -1.93023525852585
 6 -12.37909237883788 -0.42033668006801 -3.42271945634563
 7 -7.43677680338034 -1.21131544604460 -0.17931427652765
 6 -8.51063704920492 -2.00032664686469 -0.65690261866187
 6 -8.18690229742974 -3.43089769126913 -0.59906364486449
 6 -6.86191822002200 -3.35454133843384 -0.13014511981198
 6 -6.46366490609061 -2.01554335343534  0.08498065216522
 6 -8.97547153225323 -4.62639603960396 -1.03593610041004
 6 -5.76649277077708 -4.32034726162616  0.05245791539154
 8 -5.79404126022602 -5.56551306000600 -0.01254433403340
 6 -4.47147275187519 -3.33268038073807  0.47355260486049
 6 -4.05184759955996 -3.77795149034903  1.82018390369037
 8 -4.43729634133413 -3.39544049994999  2.98182864686469
 8 -3.23452596829683 -4.84113439473947  1.71330707370737
 6 -2.64130766106611 -5.33779468476848  2.91125759605961
 6  2.62825286868687 -1.01331002160216 -1.20341454675468
 6  3.98457256705671 -0.77545216861686 -0.50157677087709
 6  4.90023232343234  0.01025007260726 -1.06077148174818
 6  4.79452996319632  0.78274211591159 -2.36168870787079
 6  6.20851456355636  0.19478210651065 -0.32199366246625
 6  7.47560178737874 -0.42474180728073 -1.05335268866887
 6  8.72556603360336 -0.06161136803680 -0.32471735163516
 6  9.99050090479048 -0.69378386098610 -1.01649262916292
 6  10.15018881228123 -2.23640880668067 -0.95660977567757
 6  11.18897957255725 -0.16092576317632 -0.12706517451745
 6  12.66063464806481 -0.45915439383938 -0.73741161836184
 6  13.75227163436344  0.05008230513051  0.02623898649865
 6  15.24068588968897 -0.14901793759376 -0.58421225702570
 6  15.49798712631263 -1.57821198309831 -0.84189392489249
 6  16.27891048824883  0.61199211041104  0.49961322572257
 6  17.65945278397840  0.68293402730273 -0.12073658145815
 6  18.70444029502950  1.34624324332433  0.81801049394939
 6  20.10751064696469  1.50494611991199  0.22282504290429
 6  20.14948587808781  2.35155458665867 -1.19130553955396
 6  21.02182264786479  2.34774851095109  1.09138553925393
 1 -4.07269543714372  3.40065644994499  1.81547378567857
 1 -10.00826841184118  4.17393683018302 -0.39924859875988
 1 -10.54455279517952 -2.07383339333933 -1.60536042994299
 1 -2.93110916241624 -1.34478484258426  2.13680547524752
 1 -2.08560912851285  1.49869982108211  1.65922542094209
 1 -2.13714123002300  0.32009943164316  3.73578030333033
 1 -2.95801910221022  1.89519416301630  3.61959106030603
 1 -3.97587816721672  0.41146184848485  3.73803264896490
 1 -2.21340079397940 -1.29345322302230 -0.45610246654666
 1 -2.22745868446845  0.20624809910991 -0.48039670037004
 1 -0.16918124152415  0.05287941384138  1.13371940244024
 1 -0.50713372627263 -1.58804798479848  1.29667678667867
 1 -4.11330598799880  5.78808694629463  1.26655979397940
 1 -5.56128734753475  6.88253337203720  1.51383698069807
 1 -5.13933571057106  5.54687453685369  2.94844590519052
 1 -8.21223132203220  6.68873590729073  1.36089739603960
 1 -9.41388678147815  6.07155514101410 -1.51602099809981
 1 -9.61343562276228  7.45371065636564 -0.35371507560756
 1 -12.31492604000400  3.55228572707271 -0.38496089468947
 1 -11.71801072337234  3.71705667036704 -2.19422664016402
 1 -12.91682908290829  2.56184180238024 -1.79350239713971
 1 -12.65138996489649 -1.10634076037604 -1.28890346414641
 1 -13.45206594889489  0.42419208060806 -1.62541621892189
 1 -11.93809832483248  0.50401741684168 -3.92642148554856
 1 -11.52773898159816 -1.19185858225823 -3.45381617831783
 1 -13.48972704590459 -0.75674303240324 -3.73027688638864
 1 -9.91595914271427 -4.91279337123712 -0.53975977987799
 1 -9.15404731493149 -4.61373838733873 -2.17307782838284
 1 -8.20021172667267 -5.38482926282628 -0.91999665316532
 1 -3.76366209350935 -3.42146949824983 -0.32315537533753
 1 -1.88543541154115 -6.17876448014801  2.65702140614061
 1 -2.16160273197320 -4.55348508750875  3.55717016731673
 1 -3.25033608900890 -5.92927992799280  3.89712123232323
 1  2.45916770857086 -2.16224296539654 -1.47994512781278
 1  2.46449829272927 -0.40089152715271 -2.07493511281128
 1  4.05655709160916 -1.22738080858086  0.47544658905891
 1  5.13980924542454  1.96093379117912 -2.16503909130913
 1  5.43750071387139  0.35648160336034 -3.11101416851685
 1  3.83342982818282  0.99506231213121 -2.90378573547355
 1  6.44735483258326  1.17686082998300 -0.15567076747675
 1  6.25909373517352 -0.34140972627263  0.57055674977498
 1  7.42661331443144 -1.39697374277428 -1.13777862396240
 1  7.49329908100810 -0.13789828522852 -2.15129398709871
 1  8.88114255585559  1.10607845934593 -0.30566930843084
 1  8.78852158205821 -0.35540262726273  0.67084993789379
 1  10.12016888218822 -0.49448925062506 -2.11184190709071
 1  9.41825901350135 -2.77256591939194 -1.68793801930193
 1  11.09790665166517 -2.70290196659666 -1.39326507210721
 1  9.99669811161116 -2.72328420592059  0.10606708520852
 1  11.18097228732873  0.87968559235924  0.18900236283628
 1  11.04686225562556 -0.72523100860086  0.76319684138414
 1  12.70260676867687 -1.57256113511351 -0.98545198799880
 1  12.60923123972397  0.00268299539954 -1.64530784928493
 1  13.55462649814982  0.97544794059406  0.18485365946595
 1  13.95013984948495 -0.38221117511751  0.89034861106111
 1  15.20819231663166  0.54338753855386 -1.42229887968797
 1  14.82994838983898 -2.21547983178318 -1.18917293779378
 1  16.62400913721372 -1.53336917641764 -1.30694208680868
 1  15.62047476507651 -1.90173979257926  0.16497919921992
 1  15.82218941054105  1.56249933863386  0.88619246284628
 1  16.40518684138414  0.00056386548655  1.44497649444944
 1  17.82501857915792 -0.39474795339534 -0.36904158885889
 1  17.51570429582958  0.98921188428843 -1.04744204880488
 1  18.21071277717772  2.33465219291929  1.02084857985799
 1  18.83762677687769  0.87546638343834  1.65785704130413
 1  20.61944017381738  0.60449118281828 -0.14580164306431
 1  19.93133583078308  3.52585471757176 -1.17260223442344
 1  21.09052756995699  2.31414701850185 -1.62669799319932
 1  19.43808204400440  1.99914995159516 -1.70127530873087
 1  21.20095510861086  1.93470302060206  2.10393432123212
 1  22.01638548024802  2.39556767336734  0.63456535633563
 1  20.62148981168117  3.40699036953695  1.23040564496450
 1 -7.24283806630663  1.66722099409941  0.47984124092409
 1 -7.38809017561756 -0.13526840244024 -0.24279759996000

