%nproc=4
%Mem=2GB
# td=(NStates=1) B3LYP/SVP 

TD

0 1
 6 -5.07494034453445 -2.00307011301130  0.44303292839284
 6 -4.68011416961696  2.69596982598260  1.47298397449745
 6 -9.13317256085609  3.48064426072607 -0.31507612381238
 6 -9.87575942704270 -1.32627422202220 -0.71124727012701
 7 -5.13986073407341  0.30599706080608  0.84517197519752
 6 -4.46493459105911 -0.82706168976898  0.79350543614361
 6 -2.97735948964896 -0.66749723322332  1.26759000840084
 6 -3.02539669206921  0.73301841944194  1.86676118151815
 6 -4.32800775887589  1.29458650405041  1.35496740814081
 6 -2.88707520542054  0.85518381938194  3.27342720072007
 6 -2.17389273207321 -0.78696371047105 -0.01929532183218
 6 -0.76818520662066 -0.95798465326533  0.52166993209321
 6  0.30143464936494 -1.26211312861286 -0.62828868606861
 8  0.12675241114111 -1.69132882278228 -1.72535499009901
 8  1.58813388858886 -0.98201461996200 -0.21293628562856
 7 -6.96197937893789  2.82605734763476  0.41664225822582
 6 -5.77293147414741  3.40012674517452  0.90783490889089
 6 -5.98836010851085  4.75118320212021  1.00151170287029
 6 -7.32716578107811  5.03303462646265  0.47477270737074
 6 -7.92544799519952  3.71946054495450  0.08363970027003
 6 -4.99661881828183  5.75453923632363  1.45275127902790
 6 -7.97583417161716  6.23983370107011  0.35111016531653
 6 -9.05079260206021  6.60982027262726 -0.38945756205621
 7 -9.12201560086009  1.06129460406041 -0.42421939733973
 6 -9.76671844924492  2.21264456615662 -0.54672348304830
 6 -11.20532677067707  2.01937557705771 -0.91896596789679
 6 -11.37123256375638  0.69678371977198 -1.10244030563056
 6 -10.05870257865787  0.04624757535754 -0.79968344874487
 6 -12.15897009420942  3.04976754585459 -1.18080250935094
 6 -12.65608570597060 -0.10079917831783 -1.49484171917192
 6 -12.63260773037304 -0.31786643304330 -3.01634881928193
 7 -7.55919904560456 -1.22379669416942 -0.22174851995200
 6 -8.65279126462646 -1.94817143134313 -0.49978690709071
 6 -8.26542014921492 -3.38242284378438 -0.52123586208621
 6 -6.93572560076008 -3.44222010631063 -0.17092919821982
 6 -6.49364790439044 -2.09892169126913  0.00485263936394
 6 -9.12437642274227 -4.55175857585759 -0.84134664146415
 6 -5.77676379787979 -4.31453668056806 -0.00828815921592
 8 -5.87523938003800 -5.56445295399540  0.01450837123712
 6 -4.59810541514151 -3.49507662036204  0.38237348694869
 6 -4.01569398419842 -3.95389908510851  1.73555544084408
 8 -4.19581219291929 -3.56015697159716  2.81885234923492
 8 -3.14687720342034 -4.99522980428043  1.47907365036504
 6 -2.62871640194019 -5.65923682898290  2.65974244454445
 6  2.67419746314631 -1.23493218381838 -1.19185339063906
 6  3.98775288508851 -0.61702632603260 -0.66649326252625
 6  4.98324062426243  0.08041708930893 -1.31351675627563
 6  4.89142965316532  0.46080992269227 -2.84149668866887
 6  6.17667137923792  0.49286191449145 -0.59930139323932
 6  7.39059328652865 -0.25799513261326 -1.12907026042604
 6  8.71550502750275 -0.00275548244824 -0.30283516341634
 6  10.08957081178118 -0.57900238283828 -0.92507348724872
 6  10.04283807720772 -2.09781494729473 -0.86681079577958
 6  11.25821649624962 -0.00548021862186 -0.03539600760076
 6  12.59934851945195 -0.46440491889189 -0.56576445364536
 6  13.74075048224822  0.13848114501450  0.24001036363636
 6  15.15401722282228 -0.13702673847385 -0.33857769356936
 6  15.49685701330133 -1.62483664556456 -0.44817455295530
 6  16.24693729092909  0.77157806900690  0.51348461286129
 6  17.67942478117812  0.75436117001700 -0.13700820862086
 6  18.57298714971497  1.65206382538254  0.83298199109911
 6  20.00866076197620  1.61772739803980  0.31392415281528
 6  20.16705763526353  2.26186561776178 -1.08628503750375
 6  20.97234770037004  2.29883361946195  1.25212161286129
 1 -4.04927309490949  3.40077646194619  1.90449268756876
 1 -9.86158374337434  4.39703914041404 -0.45496417031703
 1 -10.79200754065407 -2.01375738573857 -1.15484537843784
 1 -2.67298334983498 -1.40010037413741  2.13805560026003
 1 -2.10623119071907  1.32314226532653  1.40320981938194
 1 -1.89898741464146  0.45982340404040  3.57137386268627
 1 -3.23308660896090  1.69540418401840  3.73715281648165
 1 -3.57973855325533  0.17835853815382  3.73412225792579
 1 -2.48529798369837 -1.73085696339634 -0.65482233853385
 1 -2.38415435403540  0.13225069936994 -0.44248290899090
 1 -0.28918324172417 -0.08083395749575  1.15728175867587
 1 -0.67543055595560 -2.01401058105811  1.00749786878688
 1 -4.12201685908591  5.83230136773677  0.89848298629863
 1 -5.62597381618162  6.70928604730473  1.67642323932393
 1 -4.54502627962796  5.18543839323932  2.50472153275328
 1 -7.35716581548155  7.06795382908291  0.75980728702870
 1 -9.76973236603660  5.86322430793079 -0.90081947794779
 1 -9.37031131033103  7.69731501680168 -0.69468917301730
 1 -12.72279682708271  3.51959245774577 -0.25298769736974
 1 -11.87819674197420  3.96811177587759 -1.94093131063106
 1 -12.92936033603360  2.50072569076908 -1.68650169706971
 1 -12.35847067296730 -1.16766689298930 -1.21179575337534
 1 -13.49320006230623  0.41243090449045 -0.90038371567157
 1 -12.79124363936394  0.61031804690469 -3.68646749014901
 1 -11.72605881358136 -0.83459285568557 -3.29499029572957
 1 -13.60792886608661 -0.92079943804380 -3.12395625432543
 1 -9.89065661246125 -4.54353644554455  0.07313150925093
 1 -9.54047595779578 -4.51823883738374 -1.83218373897390
 1 -8.49582128762876 -5.43626440634064 -0.64228888238824
 1 -3.75077080438044 -3.70591794309431 -0.36937999779978
 1 -2.13985085308531 -6.62399900360036  2.18305400940094
 1 -1.85489206090609 -4.94464420342034  3.23817826812681
 1 -3.46501755715572 -5.85817281728173  3.42026354655466
 1  2.92446423822382 -2.34654139523952 -1.29032616591659
 1  2.51166300920092 -0.80132157015702 -2.15904352365236
 1  4.25014645054505 -0.75473354385439  0.67062610701070
 1  5.46942220672067  1.46365406320632 -3.28251083848385
 1  5.39351631543154 -0.59482352715272 -3.45128819591959
 1  3.77512399759976  0.55950875677568 -3.17707306420642
 1  6.44496459355936  1.60446359025903 -0.99701490189019
 1  6.13162098789879  0.45734014871487  0.59089878397840
 1  7.22889354245425 -1.37783182858286 -0.87008185428543
 1  7.55801555265527 -0.17791228662866 -2.32817167486749
 1  8.87047148874887  1.20680853235324 -0.45047378887889
 1  8.70875360526053  0.03817673067307  0.83979683258326
 1  10.11336820212021 -0.28161796349635 -1.99849057195720
 1  9.03360054765477 -2.35452411521152 -1.32395162066207
 1  11.00284714571457 -2.38445012141214 -1.51065681128113
 1  10.25118356015602 -2.38272014951495  0.16719319781978
 1  11.27567175727573  0.88257588138814  0.06132959555956
 1  11.27923549294930 -0.35541402690269  0.94521504320432
 1  12.62879938793879 -1.54111799079908 -0.56832027482748
 1  12.76668698529853  0.00612333943394 -1.69692301080108
 1  13.48749978547855  1.30110050585059  0.28222339643964
 1  13.63629846534653 -0.17940089408941  1.36728630483048
 1  15.20227172457246  0.19930313011301 -1.27013366316632
 1  14.85868126312631 -2.25259354315432 -1.00103412391239
 1  16.47442417871788 -1.56252209170917 -0.75265665826583
 1  15.62430514811481 -2.06973659225923  0.57638033933393
 1  15.73015020662066  1.61148423712371  0.69732357595760
 1  16.38656497919792 -0.11554774567457  1.42875487228723
 1  17.88832490979098 -0.30672915151515 -0.28468315301530
 1  17.54246697209721  1.22893585668567 -1.17152445704570
 1  18.14891659755976  2.69982871057106  0.87721421642164
 1  18.43868688288829  1.20976981378138  1.93297455305531
 1  20.33704193399340  0.50438117181718  0.36020895799580
 1  19.85152784998500  3.33640577267727 -0.84787976217622
 1  21.11069958715871  2.08478408220822 -1.35597092049205
 1  19.40104834063406  1.63895393199320 -1.73479866106611
 1  20.85448046114611  1.97144669496950  2.27937186498650
 1  22.03399724142414  2.18998711531153  1.11186308610861
 1  20.91470913361336  3.37309698019802  1.38713131753175
 1 -7.10250403290329  1.75714998699870  0.18807206400640
 1 -7.58546991359136 -0.08914378997900 -0.01227454765477

