%nproc=4
%Mem=2GB
# td=(NStates=1) B3LYP/SVP 

TD

0 1
 6 -5.15945879637964 -1.95423522952295  0.37620624572457
 6 -4.75706186438644  2.72527275627563  1.56920359645965
 6 -9.34458370197020  3.39114531083108 -0.23633825002500
 6 -9.97244909600960 -1.41466306090609 -0.88441458685869
 7 -5.22813956195620  0.40105656675668  0.86410386838684
 6 -4.45469356695670 -0.75282426602660  0.82010809640964
 6 -3.09432118581858 -0.65701618511851  1.32444569396940
 6 -3.09623377577758  0.86835195279528  1.86266077147715
 6 -4.44203916201620  1.36592363776378  1.42486439783978
 6 -2.95359185708571  0.82999130013001  3.35163502150215
 6 -2.01758710151015 -0.76701171527153  0.15394200190019
 6 -0.55987437553755 -0.74273312811281  0.65968373347335
 6  0.35397990389039 -1.00284720202020 -0.44758061526153
 8  0.07191692759276 -1.51637132703270 -1.53874632923292
 8  1.61010608580858 -0.60066648514851 -0.14102909490949
 7 -7.01417459845985  2.84428917081708  0.48468906290629
 6 -5.93362754375438  3.43397012951295  1.04593871927193
 6 -6.18969024152415  4.83451153495350  1.10234178587859
 6 -7.44752781728173  5.05725704870487  0.51093632373237
 6 -7.98694414481448  3.70882948184819  0.20312164846485
 6 -5.25952510891089  5.89582336473647  1.50187619151915
 6 -8.20084667286729  6.30953067076708  0.31469652395240
 6 -8.88571609440944  6.55496478707871 -0.81603021932193
 7 -9.27051045034503  0.89671814641464 -0.47771474687469
 6 -9.87965974337434  2.12568587028703 -0.57576638733873
 6 -11.32569880788079  1.93774741424142 -1.05274934623462
 6 -11.38450389088909  0.58113215461546 -1.15827588918892
 6 -10.17322403080308 -0.01786883628363 -0.79846332673267
 6 -12.23420761796180  3.11076364546455 -1.22745717481748
 6 -12.62732282968297 -0.13476257465747 -1.76419865486549
 6 -12.63276774637464 -0.54503915031503 -3.10878806320632
 7 -7.60811393709371 -1.30084439893989 -0.16407275237524
 6 -8.75325131063106 -1.99631624582458 -0.53703063146315
 6 -8.27250085728573 -3.44982958445845 -0.65801954045405
 6 -6.95712774097410 -3.48364424872487 -0.12992509780978
 6 -6.53320185978598 -2.08772057115712  0.03563571767177
 6 -9.12401638673867 -4.55158855885589 -1.06296880368037
 6 -5.84781090259026 -4.29790501740174  0.03311598119812
 8 -5.68358021412141 -5.55396190489049 -0.18344142374237
 6 -4.67253285788579 -3.36742385508551  0.40586583618362
 6 -3.89977239203920 -3.87971166636664  1.62606449174918
 8 -4.20884349604960 -3.57966892279228  2.79700016401640
 8 -3.03601611731173 -4.90881116241624  1.20692643564356
 6 -2.24809834013401 -5.39411031633163  2.27544401470147
 6  2.56221626502650 -1.06361505210521 -1.08972317761776
 6  3.98964307410741 -0.79143376677668 -0.45213182638264
 6  4.94630693089309 -0.01021197359736 -0.96579198379838
 6  4.91179168936894  0.60886472817282 -2.25796833583358
 6  6.34850856295630  0.02739536783678 -0.17720918401840
 6  7.56253048024802 -0.39031836493649 -0.96712406580658
 6  8.72593607060706 -0.25414062096210 -0.05028990889089
 6  10.13068492319232 -0.71042552515252 -0.63204418431843
 6  10.16706049944995 -2.20879604540454 -0.67211132583258
 6  11.30679135373537 -0.17462713331333  0.05842337433743
 6  12.66727531213121 -0.43267174557456 -0.47410528772877
 6  13.94919132633263  0.05103240014001  0.28830519311931
 6  15.24612643374337 -0.17824085988599 -0.28544238003800
 6  15.58327565516552 -1.64123828572857 -0.54495423092309
 6  16.36226882408241  0.59574048524852  0.44601786618662
 6  17.73316015471547  0.75178091199120 -0.30625513331333
 6  18.70235008600860  1.58855747474747  0.50686937983798
 6  20.03018291419142  1.63269889518952 -0.07899513911391
 6  20.17024795429543  2.21744117531753 -1.46966337533753
 6  21.01616208180818  2.35933967006701  0.92804920562056
 1 -4.10366853445345  3.37771415571557  1.91058329662966
 1 -9.97672525752575  4.28020745724572 -0.29579825372537
 1 -10.76524486438644 -1.95485149514952 -1.28726862076208
 1 -3.07485353685369 -1.28548891299130  2.14676647134713
 1 -2.11889245684568  1.31804175527553  1.58913841224122
 1 -2.09565708160816  0.48673609530953  3.80723744904490
 1 -2.98371167146715  1.84016866046605  3.83934303550355
 1 -3.73562414181418  0.14134483678368  3.82367121282128
 1 -2.18881833573357 -1.89342322002200 -0.32955981228123
 1 -2.21175711431143  0.16001347564756 -0.50068872957296
 1 -0.24835915931593  0.19769389528953  0.99110514101410
 1 -0.61824483738374 -1.55825500550055  1.30358747774777
 1 -4.22826748414841  5.75678381598160  0.79782292029203
 1 -5.58461968076808  7.03448856755676  1.30717631463146
 1 -4.86092786978698  5.80084993439344  2.63619468006801
 1 -7.95335543444344  6.99722675637564  1.19544085038504
 1 -9.05230062286229  5.89097708320832 -1.78652804880488
 1 -9.57787206640664  7.51142642794279 -0.72679238333833
 1 -12.67322186958696  3.47331783028303 -0.36395879447945
 1 -11.75854477677768  4.05871083578358 -1.72470968846885
 1 -13.18849624962496  2.94385000320032 -1.61484453135314
 1 -12.59545437133713 -1.11015114141414 -1.11081565536554
 1 -13.71110185248525  0.39339900130013 -1.36929060636064
 1 -12.56702121712171  0.45870288538854 -3.72463130653065
 1 -11.60479668736874 -1.11668106450645 -3.27611840854085
 1 -13.29693776697670 -1.23112047014701 -3.52435629432943
 1 -10.06366391319132 -4.46761885378538 -0.68804460836084
 1 -9.46293820402040 -4.49888690219022 -1.96623714431443
 1 -8.50404210971097 -5.57895867576758 -1.05873052655265
 1 -3.78520424772477 -3.55270262156216 -0.51863492329233
 1 -1.28640550855085 -5.96025262896290  1.96700240424042
 1 -2.05148171987199 -4.38928866786679  2.97585203550355
 1 -2.95594665006501 -6.08059505950595  3.11032255245525
 1  2.46809860166017 -2.16081282238224 -1.27908504180418
 1  2.54364620752075 -0.57875931393139 -2.03177079637964
 1  4.27775921182118 -1.34140221072107  0.61157020142014
 1  5.26670193469347  1.71679937773777 -2.20806339373937
 1  5.60804776857686  0.03088904410441 -2.71149421652165
 1  4.06902338753875  0.59509231513151 -2.93979933683368
 1  6.34896499359936  1.13468661256126  0.40385518511851
 1  6.07689551535154 -0.67491307660766  0.78036773087309
 1  7.37867852095210 -1.46777082248225 -1.26072091819182
 1  7.59503925502550  0.23509901450145 -1.89563842154215
 1  8.99280372197220  0.74506235773577  0.33531478997900
 1  8.46132886278628 -0.80096718371837  0.85921877477748
 1  10.25486235153515 -0.24585438713871 -1.46705742864286
 1  9.24251143874388 -2.61074973777378 -1.31034025952595
 1  11.09904676567657 -2.43215489188919 -1.54238998459846
 1  10.30881932373237 -2.67293917141714  0.30606708520852
 1  11.32612680278028  0.92178980278028  0.29528299089909
 1  11.36666423582358 -0.37176566206621  1.07641816351635
 1  12.79644615261526 -1.64638851785179 -0.55340878367837
 1  12.85017533413341 -0.07228450135014 -1.53912723122312
 1  13.85062609810981  1.10321071687169  0.55369054315432
 1  13.87754258975898 -0.49244219821982  1.32281185738574
 1  15.13367486488649  0.34231743154315 -1.17940459025903
 1  14.81851724672467 -2.05626391019102 -1.23963798429843
 1  16.50106684298430 -1.49593543304330 -1.31759315191519
 1  15.74098681628163 -2.15555517411741  0.23427612891289
 1  15.84606179777978  1.52752584128413  0.66612045564556
 1  16.62993931663166  0.08144195329533  1.35597759455946
 1  18.14064014131413 -0.20103858245825 -0.37488217291729
 1  17.55671839723972  1.17302026512651 -1.42487979257926
 1  18.31973367926793  2.69769849754976  0.73671016601660
 1  18.54579759395940  1.14973381018102  1.52737399299930
 1  20.32545077487749  0.63050378407841 -0.16268333123312
 1  19.60334303150315  3.29203133523352 -1.41294626882688
 1  21.23917243444344  2.23771937573757 -1.95179050245024
 1  19.54076231203120  1.65999603620362 -2.24153933513351
 1  21.19923493659366  1.91416096639664  1.89211313911391
 1  22.12356619831983  2.57629574617462  0.61663356315632
 1  20.52355001770177  3.35188485898590  1.40946355075508
 1 -7.02362614511451  1.78749302130213  0.21647490429043
 1 -7.76998836543654 -0.25343021862186 -0.04096741694169

