%nproc=4
%Mem=2GB
# td=(NStates=1) B3LYP/SVP 

TD

0 1
 6 -5.10000285078508 -1.91446125212521  0.27330595569557
 6 -4.54143030123012  2.75872610161016  1.31851852795280
 6 -9.21738098169817  3.40168636493649 -0.10261487768777
 6 -9.93083493459346 -1.32727432203220 -0.90661680708071
 7 -5.10891763976398  0.48794525562556  0.72507996599660
 6 -4.50398849644964 -0.67298628222822  0.68967505310531
 6 -3.07874962866287 -0.64643512701270  1.11732498189819
 6 -2.98301245364536  0.80517563516352  1.81958646404640
 6 -4.31761671977198  1.39988703410341  1.25389730113011
 6 -3.06251274917492  0.73505180618062  3.35188504650465
 6 -2.05571091389139 -0.88848386248625  0.05031163886389
 6 -0.58037642574257 -0.89076793159316  0.55982374747475
 6  0.39636414231423 -1.24273119041904 -0.41387724492449
 8  0.06945668156816 -1.53845353525353 -1.61981443604360
 8  1.72847792299230 -1.06816323482348 -0.06665165716572
 7 -6.89926310731073  2.75501024292429  0.34646524052405
 6 -5.75173935493549  3.37151388388839  0.91648577397740
 6 -6.04237551005100  4.78579666346635  1.11550310201020
 6 -7.30117318181818  5.00699202220222  0.55882111221122
 6 -7.85099054945495  3.66858545744575  0.21052238853885
 6 -5.07891704810481  5.77959174157416  1.77905390929093
 6 -7.82924951315131  6.31348106580658  0.29355440974097
 6 -8.85825334813481  6.71693098369837 -0.49778839513951
 7 -9.11189458875888  0.96098457305731 -0.43340031543154
 6 -9.77347912531253  2.15428873057306 -0.47272608330833
 6 -11.24903114111411  2.02121576107611 -0.82496656795680
 6 -11.38175361586159  0.69163320472047 -1.14967502910291
 6 -10.13333004140414  0.02022497309731 -0.84134761516152
 6 -12.16569076627663  3.11681425052505 -0.81713614271427
 6 -12.58296839423942  0.00801170277028 -1.78578081308131
 6 -12.50727519711971 -0.26675132153215 -3.19209639403940
 7 -7.60441356705671 -1.21524583908391 -0.30856720182018
 6 -8.64064004950495 -1.98011462566257 -0.61145807420742
 6 -8.22724633183318 -3.35233983548355 -0.73557729622962
 6 -7.00204223242324 -3.39922580688069 -0.38450055535554
 6 -6.43305184478448 -2.07729952905291 -0.02179002490249
 6 -9.28811279637964 -4.37328072807281 -1.04510701750175
 6 -5.88270439193919 -4.29959518641864 -0.05370270067007
 8 -5.80131198729873 -5.56351285998600 -0.09873295289529
 6 -4.54034963956396 -3.32904001670167  0.39872512211221
 6 -4.01415383018302 -3.89364305950595  1.69351123642364
 8 -4.32920553225323 -3.41573252915292  2.74870533453345
 8 -3.10784330003000 -4.89008929022902  1.49298504150415
 6 -2.61278480878088 -5.52448335363536  2.70163663396340
 6  2.71522156555656 -1.33630232083208 -1.08390259555956
 6  3.94107821762176 -1.01449607300730 -0.47318393159316
 6  4.93112541274127 -0.27647860026003 -1.13629903450345
 6  4.91968247844784  0.25850969266927 -2.56249878887889
 6  6.23362707480748 -0.04624199589959 -0.29422088518852
 6  7.57114134133413 -0.59969930303030 -0.94219157255726
 6  8.64510798779878 -0.34896010291029 -0.06446132603260
 6  10.01783363806381 -0.99499398199820 -0.63938491839184
 6  10.05031882528253 -2.39465463126313 -0.80992510721072
 6  11.22088276287629 -0.36174584518452  0.11905943794379
 6  12.61435001960196 -0.61557003540354 -0.53397127432743
 6  13.81916832403240 -0.04218692179218  0.26845320792079
 6  15.19025084618462 -0.14323735953595 -0.28105194099410
 6  15.83135046264626 -1.48969313121312 -0.22076181168117
 6  16.12095469266927  0.91372228342834  0.51315457985799
 6  17.45706254495450  0.98656439033903 -0.08775328312831
 6  18.48563841484148  1.99389800880088  0.54060275317532
 6  19.91563145904590  1.99308493379338  0.01377413781378
 6  19.97508843834384  2.47396682788279 -1.52580898989899
 6  20.81333179877988  2.89083281938194  0.81964836553655
 1 -3.60849901750175  3.44629101340134  1.41597383568357
 1 -9.72316990199020  4.30162959945995  0.01739306540654
 1 -10.76992533243324 -2.06794280428043 -1.25189508340834
 1 -2.92000805230523 -1.50716108020802  1.76329812451245
 1 -2.13232379998000  1.43310326142614  1.31166066446645
 1 -2.14120163606361  0.19223664536454  4.00865759105911
 1 -2.99132243254325  1.75100974457446  3.85569467066707
 1 -3.85407598699870  0.30437113941394  3.71976082178218
 1 -2.25029448334833 -1.92289616731673 -0.27968482478248
 1 -2.05193113171317 -0.23174570027003 -0.89634829552955
 1 -0.33840816421642  0.11217534343434  1.01466749724972
 1 -0.34269728262826 -1.43506268626863  1.48521564056406
 1 -4.25336999439944  5.60162830043004  1.14105724372437
 1 -5.25883710251025  6.84522964166417  1.91437703470347
 1 -4.78634041104110  5.35637548694869  2.65502656325633
 1 -7.56044614351435  7.29021605530553  0.68990029632963
 1 -9.42253764656466  5.96108409390939 -1.08820821682168
 1 -9.22790706990699  7.77617290259026 -0.38089779387939
 1 -12.23397794519452  3.72498299679968  0.12749035043504
 1 -11.89502842514251  3.67595255995600 -1.78013523102310
 1 -13.26030343034303  2.78274389258926 -0.91874492139214
 1 -12.79532435833583 -0.87508763506351 -1.21472604640464
 1 -13.32556329862986  0.82536219761976 -1.74298797609761
 1 -12.24474898989899  0.72153916901690 -3.74977382078208
 1 -11.72493870157016 -0.92296169256926 -3.44840563726373
 1 -13.42858093129313 -0.65340269836984 -3.57586144484448
 1 -10.17122466926693 -4.27830992289229 -0.31593739763976
 1 -9.48914082428243 -4.68876589008901 -2.06613713431343
 1 -8.76324803030303 -5.48684946484648 -0.74443909740974
 1 -3.84800052735274 -3.72738008930893 -0.46644970477048
 1 -1.69656652465247 -6.10583718741874  2.48525422942294
 1 -2.30888746044604 -4.56178591759176  3.47236168646865
 1 -3.44977603300330 -6.09500650065007  3.21600312051205
 1  2.58074986678668 -2.38343508460846 -1.53750088338834
 1  2.62473431633163 -0.66725816381638 -2.03727134643464
 1  4.19493092899290 -1.44239230973097  0.45627467186719
 1  5.10157542204220  1.24639233703370 -2.63924651205120
 1  5.67762472627263 -0.20508455325533 -3.16592966006601
 1  4.03968045324532 -0.11583877797780 -3.09707506440644
 1  6.45234533163316  0.97507065096510 -0.20286548694869
 1  6.24698252405241 -0.19508509380938  0.84841453555356
 1  7.36100675377538 -1.72988703410341 -1.10925577167717
 1  7.63712346344634 -0.36962145754575 -1.91245010271027
 1  8.63169761136114  0.65921377287729  0.41016227472747
 1  8.37789051895190 -0.91423851085109  0.82669552245225
 1  10.43480034533453 -0.56739654135413 -1.70465118801880
 1  9.15416260386039 -2.75350401320132 -1.37023624912491
 1  11.03251011201120 -2.73418509490949 -1.34288003360336
 1  9.98688713051305 -2.81468334583458  0.33548002650265
 1  11.29838402850285  0.66349397319732  0.23503696629663
 1  11.25570313971397 -0.77116560206021  0.98996951865187
 1  12.81491799979998 -1.60524440344034 -0.66677011981198
 1  12.62795311191119 -0.15117239013901 -1.44568788728873
 1  13.77962899839984  1.08291868766877  0.37746292039204
 1  13.91574641014101 -0.40188314231423  1.39011858805881
 1  15.24909640704070  0.03228642844284 -1.46993364316432
 1  14.95765116011601 -2.40119840364036 -0.58893291379138
 1  16.74626136243624 -1.65546138563856 -0.91791318391839
 1  15.96936965456546 -1.91643126172617  0.83347604890489
 1  15.54362155375538  1.76958004670467  0.30639448304831
 1  15.93063938663867  0.64961877097710  1.73266526332633
 1  17.72978905620562 -0.04023250185018 -0.27596228092809
 1  17.18067079247925  1.59875283838384 -0.87524482908291
 1  17.87103880978098  2.93887261496150  0.41373786878688
 1  18.58481149534954  1.54910374717472  1.54927618321832
 1  20.42156038583859  1.08543927762776  0.01474441154115
 1  19.38486118331833  3.51517364946495 -1.46210118431843
 1  20.94686320352035  2.32424802860286 -1.96944226762676
 1  19.24346258205820  1.92579261586159 -2.05333051425143
 1  20.96304131723172  2.36456600690069  1.91405533333333
 1  21.66541038273827  3.06640475707571  0.13514541434143
 1  20.45017267996800  3.82685235573557  0.84070667506751
 1 -7.00325410791079  1.83866813881388  0.18427168396840
 1 -7.68835020162016 -0.18608348394840 -0.20718403860386

