%nproc=4
%Mem=2GB
# td=(NStates=1) B3LYP/SVP 

TD

0 1
 6 -4.99291214171417 -1.89959976597660  0.42848147324732
 6 -4.69118527672767  2.82754298329833  1.22726940304030
 6 -9.34658390199020  3.42029822612261 -0.24320893709371
 6 -9.85854770587059 -1.47138873347335 -0.97667381278128
 7 -5.17424417241724  0.46190265136514  0.85440289828983
 6 -4.54003210081008 -0.72816179977998  0.96678276387639
 6 -3.04403615731573 -0.48170865436544  1.38723197259726
 6 -3.12340649304930  1.01403652125213  1.78449295469547
 6 -4.35148010611061  1.50552759815982  1.25754766616662
 6 -3.04034053195320  1.07695599659966  3.28177803580358
 6 -2.11774711751175 -0.83525853995400  0.09574618231823
 6 -0.56637502560256 -0.66074492929293  0.58598636373637
 6  0.38802330823082 -0.92022894019402 -0.66146200340034
 8  0.13430316621662 -1.21172086198620 -1.80722317691769
 8  1.66133120832083 -0.91176759525953 -0.14274926692669
 7 -7.05456863786379  2.72204694659466  0.47376797079708
 6 -6.02975715671567  3.34967169966997  0.97218134353435
 6 -6.29334060656066  4.84051213501350  1.07182873457346
 6 -7.55705877037704  5.00691201420142  0.59696492659266
 6 -8.11196664706471  3.65986458535854  0.16761809810981
 6 -5.32658181458146  5.81997577997800  1.65371137503750
 6 -8.25884247244724  6.31535125282528  0.44454950925092
 6 -9.14377189999000  6.71865115571557 -0.44371298759876
 7 -9.27647104640464  0.94216269086909 -0.50060703610361
 6 -9.89348112551255  2.11805510721072 -0.57286609730973
 6 -11.32689892789279  1.86739037853785 -1.00062413371337
 6 -11.45829126962696  0.49582362376238 -1.13668372997300
 6 -10.14803151155116 -0.11293834323432 -0.85550903130313
 6 -12.32945714291429  2.88553112221222 -1.08176260536054
 6 -12.69533963136314 -0.33119221762176 -1.57629986498650
 6 -12.72887735733573 -0.67387203360336 -3.14363154755476
 7 -7.47557068276828 -1.24685900040004 -0.36721306640664
 6 -8.53702968846885 -2.07796441064106 -0.74014094249425
 6 -8.13682728992899 -3.47129173067307 -0.67076081458146
 6 -6.76936896509651 -3.41467735203520 -0.31613371867187
 6 -6.40359889948995 -2.02478427752775 -0.15471331723172
 6 -9.07131111621162 -4.68418181818182 -1.00494300110011
 6 -5.66391251275128 -4.33454868176818 -0.09262659305931
 8 -5.64506636273627 -5.51590809950995 -0.15056813641364
 6 -4.45218082268227 -3.34213132583258  0.48156340594059
 6 -3.90964337913791 -3.73701739693969  1.71409329462946
 8 -4.06733934563456 -3.24007496339634  2.82652311631163
 8 -3.09228174387439 -4.78363864516452  1.56648239123912
 6 -2.26818034833483 -5.16115702100210  2.78226469676968
 6  2.72997304070407 -1.13901259185919 -1.00272447774777
 6  4.06984109390939 -0.95963058645865 -0.44993160636064
 6  5.01625392559256 -0.07552850525053 -0.85430083468347
 6  4.83225373557356  0.83878772047205 -2.18710124912491
 6  6.31276498859886  0.13372600090009 -0.19683114621462
 6  7.44440866806681 -0.42182151525153 -0.98994634803480
 6  8.82248572557256 -0.36774198109811 -0.11648652855286
 6  10.05957781248125 -0.76536101870187 -0.90863184308431
 6  10.05210900430043 -2.23909907570757 -1.31369548424842
 6  11.25556623122312 -0.37380705130513 -0.02577504550455
 6  12.64065264986499 -0.51504998339834 -0.68872674987499
 6  13.82664907210721  0.04418171507151  0.15835219781978
 6  15.21544336543654 -0.17816085188519 -0.32790662646265
 6  15.60933826142614 -1.67308147004700 -0.66404614011401
 6  16.32961555875588  0.51738264946495  0.54256752115212
 6  17.59767660636064  0.65590132403240 -0.16140064786479
 6  18.62914276527653  1.46016463546355  0.65770446334633
 6  20.13013290919092  1.49853547884788  0.13880664106411
 6  20.11548247774778  2.32528195939594 -1.26122253125313
 6  20.91442190779078  2.29087282338234  1.19364576527653
 1 -3.93724189178918  3.46673305760576  1.81672391069107
 1 -10.20069765476548  4.04071350785078 -0.49035770967097
 1 -10.69550789068907 -2.11585759575958 -1.24672456635664
 1 -2.81971802330233 -1.13943430753075  2.03076487118712
 1 -2.19252982058206  1.50610056115612  1.40487998639864
 1 -1.93537105300530  0.73659108080808  3.58021474677468
 1 -3.09229252955296  2.08609325292529  3.65633473467347
 1 -3.75247582698270  0.25286598889889  3.40550939663966
 1 -2.26006546044604 -1.98673255095510 -0.20026688298830
 1 -2.53163910251025  0.04248172247225 -0.52813147384738
 1 -0.21723604700470  0.34826895279528  0.74692072257226
 1 -0.22426543944394 -1.34592377237724  1.31686880588059
 1 -4.51574623202320  6.01582972057206  1.06737987598760
 1 -5.81303252205221  6.65924104280428  1.73956955395540
 1 -4.97119889688969  5.53249309870987  2.54213527412741
 1 -7.86241634053405  7.11898893259326  1.10594190049005
 1 -9.47584297709771  6.08834682018202 -1.32300169616962
 1 -9.60209448864886  7.72752803810381 -0.48141784588459
 1 -12.32730727812781  3.76235673417342 -0.37512991159116
 1 -12.29982890519052  3.43031799649965 -2.13661087858786
 1 -13.33065046504650  2.26537215541554 -1.29498254515452
 1 -12.86887171307131 -1.38931905820582 -0.96274084788479
 1 -13.67884862716272  0.09603926532653 -1.21226490379038
 1 -12.72099661466147  0.17041405650565 -3.70977982138214
 1 -11.93434964266427 -1.32748214461446 -3.44484528122812
 1 -13.76619469266927 -1.32171953005300 -3.31060491919192
 1 -9.70669821662166 -4.97776986888689 -0.11675747964796
 1 -9.58572048224822 -4.29890690419042 -2.01230175077508
 1 -8.26294800030003 -5.54311509140914 -1.21001565506551
 1 -3.70876660396040 -3.61089844114411 -0.37824088388839
 1 -1.53005987398740 -5.70968757245725  2.39824552855285
 1 -1.63147971967197 -4.23031277027703  3.08905335563556
 1 -2.87343839923992 -5.66957395739574  3.53053457365737
 1  2.74865665746575 -2.17191393249325 -1.26700383368337
 1  2.64696653955396 -0.56063750175017 -1.86719433873387
 1  4.02592402830283 -1.32931100160016  0.58904794919492
 1  5.20703596809681  2.11402910071007 -1.70925351275127
 1  5.57559452325232  0.52604856005601 -2.89110217731773
 1  4.06418290349035  0.77957076297630 -2.51795715261526
 1  6.47243734083408  1.17579072297230  0.26186098569857
 1  6.43190101590159 -0.55382096739674  0.79289898399840
 1  7.39598025112511 -1.56441048644865 -1.18911375747575
 1  7.52972272337234  0.06292179677968 -1.92599145684569
 1  9.08038247984798  0.61825967746775  0.49836109460946
 1  8.94674740464047 -1.00489757675768  0.78185103800380
 1  10.08614547984798 -0.23740354205420 -1.79689041194119
 1  9.15621280888089 -2.60130879367937 -2.05806503200320
 1  10.89853671467147 -2.43479515591559 -1.90175592119212
 1  9.94607304910491 -2.87934981248125 -0.40952447394739
 1  11.06012020212021  0.60796842064206  0.40318378097810
 1  11.32115968536854 -0.86378486398640  1.02234275597560
 1  12.77186369436944 -1.48268214721472 -0.72331577437744
 1  12.52603291989199 -0.02776004890489 -1.73657697619762
 1  13.71515255075508  1.10441083688369  0.46232140624062
 1  13.79055389088909 -0.63403635763576  1.12726230243024
 1  15.42649414681468  0.27189038883888 -1.32207885768577
 1  15.01741713671367 -2.16485476927693 -1.58776279677968
 1  16.76360309660966 -1.78862470197020 -0.89653104570457
 1  15.04257697529753 -2.30518013661366  0.21998469976998
 1  15.72273946554655  1.41041413011301  0.81965580918092
 1  16.38861518421842  0.12601641074107  1.49594159095910
 1  17.97015309260926 -0.35173365196520 -0.34830951565157
 1  17.48670139553955  1.10587355045505 -1.10731803640364
 1  18.38109981588159  2.52936166386639  0.62370886588659
 1  18.71653466766677  1.14683352015202  1.67717897349735
 1  20.56242447224723  0.45338607230723  0.18434137123712
 1  19.75327802500250  3.36016814891489 -0.93972894709471
 1  21.05705422262226  2.53297890169017 -1.52209753315332
 1  19.49925816161616  1.81179121572157 -2.13901908310831
 1  21.00075508860886  1.58731828212821  2.03742767056706
 1  21.93922776447645  2.43263137973797  0.85053695349535
 1  20.58392605530553  3.22299196969697  1.47338994339434
 1 -7.24715849834983  1.75517978997900  0.74310756755676
 1 -7.32073343994399 -0.16268114371437 -0.39728304850485

