%nproc=4
%Mem=2GB
# td=(NStates=1) B3LYP/SVP 

TD

0 1
 6 -5.19084193469347 -1.89935974197420  0.57276590169017
 6 -4.80417657585759  2.81225145414541  1.37114379047905
 6 -9.39215845944594  3.30057625392539 -0.23543816001600
 6 -9.81437328842884 -1.51568316291629 -1.03772991839184
 7 -5.24949169716972  0.52247870897090  0.81247870587059
 6 -4.56942504010401 -0.69941892549255  0.88116420202020
 6 -3.10552230593059 -0.45494597809781  1.30935418481848
 6 -3.10522467486749  0.98616373397340  1.92128663406341
 6 -4.47383234133413  1.46255330073007  1.36081799319932
 6 -3.02647914581458  0.91632993399340  3.48353821182118
 6 -2.06772211501150 -0.65014002810281  0.12881948964896
 6 -0.64040242834283 -0.70190904570457  0.60224798989899
 6  0.32174668056806 -0.88323524082408 -0.56410226742674
 8  0.00924065996600 -1.40263995389539 -1.62954540914091
 8  1.54976005120512 -0.41964838333833 -0.22976796879688
 7 -7.04201738273827  2.81127586948695  0.41042163616362
 6 -5.96869105010501  3.41130786328633  0.98084220962096
 6 -6.25633690619062  4.80420850465047  1.11898345004500
 6 -7.54645771027103  4.96521784478448  0.66617184728473
 6 -7.99803525392539  3.72762136103610  0.20449178547855
 6 -5.32744190059006  5.86293007540754  1.60508651255126
 6 -8.21454804300430  6.30868058575858  0.65592064636464
 6 -9.05913343614361  6.59290858145815 -0.40855947224722
 7 -9.16733013231323  0.86564503910391 -0.55201217661766
 6 -9.82928470587059  2.08391169286929 -0.61540035073507
 6 -11.28710494849485  1.94538817831783 -1.11328539983998
 6 -11.32642808330833  0.60401444284428 -1.31429149074908
 6 -10.11695840424042 -0.13092014141414 -0.99175265566557
 6 -12.32666686388639  2.93024559365937 -1.25145957505751
 6 -12.46903700110011 -0.28894799319932 -1.78005024002400
 6 -12.42815728532853 -0.85755040144014 -3.21712889728973
 7 -7.51336446214621 -1.21201551605161 -0.17847419251925
 6 -8.54052003750375 -2.10099671387139 -0.68576550495050
 6 -8.08841244844484 -3.43180778227823 -0.73054679317932
 6 -6.77904993319332 -3.44448033233323 -0.31280338563856
 6 -6.50793933353335 -2.03591539063906  0.05167732183218
 6 -8.85898988408841 -4.61254465446545 -1.23807631443144
 6 -5.65632175367537 -4.31308653555356  0.09046171577158
 8 -5.53581543764377 -5.50621713041304  0.01433835423542
 6 -4.56012161676168 -3.39182629532953  0.53003825342534
 6 -3.85563797859786 -3.84712840804080  1.76221810711071
 8 -4.08275088678868 -3.35824678057806  2.87740820482048
 8 -3.06817933363336 -4.88880916221622  1.55855159815982
 6 -2.59120265056506 -5.67206811211121  2.66928339863986
 6  2.56896694009401 -0.74984367496750 -1.23199740504050
 6  3.94884899469947 -0.60056467986799 -0.61541815501550
 6  4.97358965916592  0.08060710831083 -1.00320572517252
 6  4.89214972517252  0.85679952165217 -2.30100263926393
 6  6.25177888998900  0.17992062036204 -0.17108857195720
 6  7.47537176437644 -0.44827416051605 -0.93001035443544
 6  8.80551402840284 -0.23004821172117 -0.20665554545455
 6  10.09715156985699 -0.78273275587559 -0.74204518441844
 6  10.05373916731673 -2.31831699749975 -0.73975809050905
 6  11.22433310791079 -0.24132380298030  0.05949348134813
 6  12.63827241184118 -0.61519999839984 -0.62158003520352
 6  13.82756916411641  0.04539183608361  0.17655401800180
 6  15.25379720082008 -0.29012204800480 -0.44052788858886
 6  15.53232055965596 -1.81831599349935 -0.52100183568357
 6  16.31027362456246  0.55764667586759  0.42495575997600
 6  17.70055689438944  0.56225195909591 -0.27454196199620
 6  18.62875272627263  1.58310692969297  0.48596728962896
 6  20.05762565846585  1.55746137143714 -0.01370861046105
 6  20.31319224872487  2.13726315751575 -1.39778618761876
 6  20.87781824742474  2.34328806490649  1.10476687738774
 1 -4.15596376397640  3.59971635593559  1.96969920822082
 1 -9.96832441744174  4.21430086658666 -0.11691036493649
 1 -10.40247858775878 -2.24372038203820 -1.30984087798780
 1 -2.79270532203220 -1.17226759085909  2.07791958665867
 1 -2.35554612221222  1.75927587868787  1.54115361376138
 1 -1.94048156405641  0.58757617931793  3.70202692799280
 1 -2.86356965726573  1.95383002660266  3.83920302150215
 1 -3.82359293869387  0.18408911121112  4.01206005170517
 1 -2.35728518241824 -1.64520839853985 -0.32192904920492
 1 -2.21304724332433 -0.10720324602460 -0.67955661636164
 1 -0.62943726712671  0.08868299419942  1.21649768026803
 1 -0.53736674957496 -1.64882406240624  1.12001912091209
 1 -4.27116177357736  5.39418755635564  1.02621575957596
 1 -5.53237445624562  7.00961608030803  1.10255585258526
 1 -5.24496627362736  5.59224907430743  2.69516057665767
 1 -7.95660575947595  6.92285931963196  1.68791009730973
 1 -9.15010040284028  5.86667465296530 -1.33721311731173
 1 -9.71781606080608  7.55556084138414 -0.24299400350035
 1 -12.49722426982698  3.64235473397340 -0.23979637823782
 1 -11.98178710101010  3.91993695839584 -1.94484170167017
 1 -13.23059045904590  2.66184180238024 -1.74624767166717
 1 -12.50216504240424 -1.17735786208621 -1.21999657345735
 1 -13.44747548984899  0.27949761116112 -1.68689236653665
 1 -12.43618813381338  0.03747076217622 -3.91930077347735
 1 -11.67689389708971 -1.59844924132413 -3.48734953165317
 1 -13.34923299649965 -1.28456581468147 -3.37303116181618
 1 -9.86624417121712 -4.67917000890089 -0.66637244114411
 1 -9.24345625582558 -4.63034004750475 -2.33878439903990
 1 -8.19712141764176 -5.56056683658366 -1.12345699919992
 1 -3.79521524882488 -3.31163851515152 -0.24651771157116
 1 -1.80290715871587 -6.50573717741774  2.30758646264627
 1 -1.91292786448645 -4.99813955295530  3.19075352565256
 1 -3.48689974537454 -6.06195319531953  3.24845636583658
 1  2.57206899869987 -1.86607334843484 -1.63568070137014
 1  2.41399324222422 -0.04004544254425 -2.22407002630263
 1  4.15725716161616 -1.11657972847285  0.33548259265927
 1  5.38007327182718  2.05730342814281 -2.25892848024802
 1  5.55980294409441  0.49085504070407 -2.98331139823982
 1  3.84654113931393  1.00140294619462 -2.77029238613861
 1  6.39070916801680  1.25537868176818 -0.11813701410141
 1  6.06461428722872 -0.54629021432143  0.77549724382438
 1  7.34245489858986 -1.44389843524352 -1.16846169226923
 1  7.51286103720372 -0.14566906230623 -2.00399925762576
 1  9.08635307690769  0.93174102560256 -0.09698844034403
 1  8.73653638353835 -0.53752083908391  0.83134598749875
 1  10.13124999029903 -0.36004580628063 -1.90635135803580
 1  9.30821800940094 -2.67306596939694 -1.42183140864086
 1  11.02429929092909 -2.78361003740374 -1.14574031963196
 1  9.96192463426343 -2.74921679917992  0.32224870337034
 1  11.22856704680468  0.99547717151715  0.14466792939294
 1  11.21380895029503 -0.60436892239224  1.08241876357636
 1  12.66674318231823 -1.89327320632063 -0.57343078587859
 1  12.76759707630763 -0.35624289718972 -1.71866518501850
 1  13.61457249274927  1.06018641444144  0.39293446754675
 1  13.70205504100410 -0.53451640564056  1.18773835003500
 1  15.19871136853685  0.17995119491949 -1.40009665946595
 1  14.84946034103410 -2.13690197399740 -1.23135715621562
 1  16.73449018531853 -2.00455629512951 -0.73930532313231
 1  15.49997271487149 -2.44263388198820  0.44036673797380
 1  15.91875906750675  1.63041613031303  0.52166601020102
 1  16.46625294799480  0.08573238233823  1.40160215701570
 1  17.96702277957796 -0.56733521212121 -0.03731841654165
 1  17.42036476187619  0.88656161926193 -1.23098040264026
 1  18.09526123202320  2.46292502020202  0.48994548954895
 1  18.56935995019502  1.31173000980098  1.52098335393539
 1  20.34703293309331  0.51333206690669  0.08048098519852
 1  20.13141583878388  3.17057919001900 -1.81190616481648
 1  21.40909942714271  1.98523412721272 -1.62406773017302
 1  19.89266750255025  1.36362639923992 -2.14212939413941
 1  20.96370138323832  2.03848339863986  2.11272520032003
 1  22.00613445514551  2.55027314391439  0.71702360216022
 1  20.47371503420342  3.29103877437744  1.24343694809481
 1 -7.22134591709171  1.75662993499350  0.40113337013701
 1 -7.79785115171517 -0.31557643324332  0.11890857065707

