%nproc=4
%Mem=2GB
# td=(NStates=1) B3LYP/SVP 

TD

0 1
 6 -5.13365621612161 -1.96056586258626  0.33663228832883
 6 -4.65234139233923  2.69185941494149  1.42953963006301
 6 -9.26434567816782  3.41128732503250 -0.09953456965697
 6 -9.81097294839484 -1.35802739733973 -0.95922206760676
 7 -5.15060180818082  0.42454891599160  0.76631408940894
 6 -4.53247134473447 -0.75193417701770  0.68213429902990
 6 -3.07025877957796 -0.62393287678768  1.13327657705771
 6 -2.96282043444344  0.75396051365137  1.76358086348635
 6 -4.29827478557856  1.31689873527353  1.36887879927993
 6 -2.80016651455146  0.90929923092309  3.31326118411841
 6 -2.05052039483948 -0.95519053315332  0.07075368306831
 6 -0.56022441054105 -0.82003085788579  0.57817558265827
 6  0.39277378327833 -1.04184110141014 -0.68354421162116
 8  0.01337107300730 -1.33835352525253 -1.81307376197620
 8  1.61941701690169 -0.89980639913991 -0.27152214421442
 7 -6.91627480848085  2.72358710061006  0.48861945594559
 6 -5.80769495049505  3.40625735823582  0.95927005240524
 6 -6.06986825932593  4.72593067686769  1.04573612531253
 6 -7.41914497899790  4.93458478147815  0.61742697279728
 6 -7.93072852325233  3.61943054195420  0.39666100240024
 6 -5.15667482388239  5.86729051145115  1.40983698759876
 6 -8.11234782298230  6.16590630833083  0.43128818311831
 6 -9.01998952175217  6.58819811041104 -0.55146376267627
 7 -9.14114751405141  0.85613408800880 -0.37496447184718
 6 -9.74897667506751  2.02329563126313 -0.49391820252025
 6 -11.17488372637264  1.92713635313531 -0.93617768906891
 6 -11.37911335183518  0.59689373077308 -1.12299236083608
 6 -10.10015672407241 -0.12845989538954 -0.78727220762076
 6 -12.18298249544955  2.98303087218722 -0.94993942304230
 6 -12.62752284968497 -0.13751284968497 -1.59596183118312
 6 -12.72793726332633 -0.49206385278528 -3.02079926432643
 7 -7.49538266396640 -1.23300761526153 -0.34159050415042
 6 -8.59013499899990 -1.99709632383238 -0.69246617501750
 6 -8.23960756795680 -3.39423402490249 -0.66096983548355
 6 -6.86861889008901 -3.39824570887089 -0.23713581888189
 6 -6.51989052865286 -2.06672847194720 -0.02321016691669
 6 -9.08264224932493 -4.51676507650765 -1.13860636743674
 6 -5.72055817731773 -4.29010423732373  0.08071074067407
 8 -5.69283113921392 -5.48539504820482 -0.06655973557356
 6 -4.57386299089909 -3.36447356005601  0.44708995859586
 6 -3.97376979177918 -3.84010770597060  1.62988487378738
 8 -4.22191480318032 -3.41153210911091  2.76400686468647
 8 -3.03341585728573 -4.86897717901790  1.48171391439144
 6 -2.70969449974998 -5.34399530483048  2.81906837713771
 6  2.63220326372637 -1.07924661526153 -1.29642384768477
 6  3.95674978477848 -0.70692531593159 -0.72775938913891
 6  4.88863116331633  0.13883293089309 -1.22014741934193
 6  4.76025653585359  0.83815765746575 -2.49800233923392
 6  6.19046275837584  0.39744237253725 -0.40659212231223
 6  7.41013524072407 -0.31890122322232 -1.03805115851585
 6  8.66223970097010 -0.18692389928993 -0.26108098799880
 6  10.07984983968397 -0.72749723232323 -0.78524950485048
 6  10.03666746014602 -2.25174033983398 -0.74217833253325
 6  11.27121779637964 -0.07280695129513  0.05716324832483
 6  12.64877346194620 -0.53353183158316 -0.50966884408441
 6  13.88127453465346  0.07412470937094  0.31344770737074
 6  15.22196401750175 -0.27686072187219 -0.16573040884088
 6  15.52948027562756 -1.79872403430343 -0.15971570707071
 6  16.20739333653366  0.53617452865287  0.53561682608261
 6  17.65419225792579  0.58823455735574 -0.09572408020802
 6  18.51871172217222  1.72357097609761  0.56058475137514
 6  20.04644454035403  1.66995262056206  0.15315807620762
 6  20.19719064856486  1.85171460266027 -1.33779018801880
 6  20.81393185878588  2.75440917701770  0.96029242994299
 1 -3.79194736233623  3.29545592989299  1.97669990829083
 1 -10.03978156315632  4.15473490999100 -0.15978465236524
 1 -10.63980232013201 -2.12087809780978 -1.12604249814982
 1 -2.95478152965296 -1.22875323942394  2.01232302700270
 1 -2.12842340994099  1.06779673077308  1.38687818621862
 1 -2.02406992289229  0.29633705540554  3.66708343364336
 1 -2.60817411771177  2.03736838043804  3.46212531373137
 1 -3.71657223662366  0.31165186748675  3.60366921262126
 1 -1.91267072097210 -2.08346222392239 -0.51907876417642
 1 -2.08295423402340 -0.07659018471847 -0.60119878057806
 1 -0.10540486388639  0.20992511841184  0.93555958645865
 1 -0.20965397829783 -1.70701988198820  1.28235535453545
 1 -4.43189784718472  5.99768790639064  0.59436257425743
 1 -5.90891211001100  6.60977609630963  1.30819641664166
 1 -4.59698147514751  5.55297514691469  2.32280334093409
 1 -7.92831293019302  6.98833586728673  1.24925623192319
 1 -9.37620301310131  6.18930691619162 -1.48732812881288
 1 -9.20754503370337  7.63450873617362 -0.32975267936794
 1 -12.23238778617862  3.41064156265627  0.04472207360736
 1 -11.97895681798180  3.93420838553855 -1.47694491199120
 1 -13.08602600260026  2.65760137833783 -1.33295634253425
 1 -12.55811063696370 -1.00032015831583 -1.05735030883088
 1 -13.56658740104010  0.37509717111711 -1.13271694899490
 1 -12.57186170117012  0.33362037713771 -3.69956880028003
 1 -11.96348255595560 -1.18080747714771 -3.38859965666567
 1 -13.68302637583758 -0.98230558865887 -3.23545740444044
 1 -10.22303985078508 -4.20370246214621 -0.48194399829983
 1 -9.37425933613361 -4.74969198269827 -2.12330285088509
 1 -8.61864356985699 -5.58706948684869 -0.72540719421942
 1 -4.00603633093309 -3.59209656095610 -0.53670673047305
 1 -1.96464333233323 -6.24966156985699  2.55880158415842
 1 -2.19525609730973 -4.58475821482148  3.28595304560456
 1 -3.46564762016202 -5.58022502250225  3.59074059425943
 1  2.58614040584058 -2.31521826292629 -1.54323145644564
 1  2.18908075097510 -0.46167760576058 -2.19842746204620
 1  4.17674911081108 -1.10463853435343  0.25256430083008
 1  4.83907917241724  1.97197489528953 -2.36701928932893
 1  5.52216918071807  0.69244519971997 -3.16863993109311
 1  3.86259274447445  0.91565437133713 -3.01995735263526
 1  6.31047114421442  1.48568171207121 -0.43194839523952
 1  6.06458428422842  0.14108852355236  0.55538523262326
 1  7.07520817391739 -1.41184522992299 -1.03650849694969
 1  7.72723247434743  0.04614011861186 -2.16529538723872
 1  8.96121056265626  0.86058390989099 -0.13865260676068
 1  8.27234996489649 -0.50368745574557  0.61477433033303
 1  10.21350821612161 -0.49068887058706 -2.07004772767277
 1  9.01854904250425 -2.60643930673067 -1.19452867836784
 1  10.91325818681868 -2.72975465186519 -1.17029277487749
 1  10.18061650345035 -2.49791166866687  0.54984146264626
 1  11.09577376747675  1.06381400520052  0.20758422102210
 1  11.10594816421642 -0.45675416091609  1.03968449014901
 1  12.59037554555456 -1.70286416541654 -0.21211465426543
 1  12.61636195279528 -0.17127440034003 -1.57820113861386
 1  13.56324736023602  1.10876127192719  0.31353652775278
 1  13.76630146564657 -0.20370332433243  1.53139271547155
 1  15.37603910131013 -0.14218101830183 -1.45394204400440
 1  14.83114850985099 -2.30119840364036 -0.93164718521852
 1  16.46883361966197 -2.13406924642464 -0.55564695729573
 1  15.10334305190519 -2.10433005160516  1.02776547784779
 1  15.95818300990099  1.52793588228823  0.87326116971697
 1  16.43745006770677 -0.08227441834183  1.62963496029603
 1  18.38221429872987 -0.33549202780278  0.07032234753475
 1  17.61213393879388  0.79800276337634 -1.14658196279628
 1  18.02160386628663  2.69214794249425  0.35690218521852
 1  18.63955696989699  1.63581241804180  1.74946620222022
 1  20.57033526332633  0.67408814251425  0.14171710881088
 1  19.94132682988299  2.91267339943994 -1.45848082228223
 1  21.02862137933793  1.80942654645465 -1.81127645104510
 1  19.47880611641164  1.22429246584658 -1.98482366356636
 1  20.81772678577858  2.54524407470747  2.12152608040804
 1  21.88785262696269  2.83918203480348  0.53836573637364
 1  20.29077674037404  3.88478814931493  0.88151075547555
 1 -7.01598538103810  1.70066433843384  0.65347860466047
 1 -7.63258462506251 -0.14786966256626 -0.29134245444544

