%nproc=4
%Mem=2GB
# td=(NStates=1) B3LYP/SVP 

TD

0 1
 6 -5.07299014951495 -1.84315412141214  0.43245187028703
 6 -4.83289944814481  2.85571580058006  1.44351102720272
 6 -9.44179342294229  3.36074227052705 -0.19794441064106
 6 -9.84600645174517 -1.41357295189519 -0.86913305870587
 7 -5.37749449744974  0.45127158825883  0.93310076807681
 6 -4.56213431103110 -0.63576255985599  0.86310239583958
 6 -3.11154290799080 -0.45813629712971  1.18695194459446
 6 -3.14535868826883  1.02521763936394  1.67995250065007
 6 -4.55238019611961  1.47082412781278  1.35473738513851
 6 -2.89302580048005  1.02348064906491  3.29417927592759
 6 -2.10389573237324 -0.73489850395039  0.07120372807281
 6 -0.51856024412441 -0.64849370417042  0.46895466056606
 6  0.47627213311331 -0.82988990629063 -0.61140699789979
 8  0.10851058695870 -1.11095078497850 -1.80714316891689
 8  1.72725780098010 -0.76149256775678 -0.17300229222922
 7 -7.10648382938294  2.77406214811481  0.47041763576358
 6 -6.06533071407141  3.37084381688169  1.03943806920692
 6 -6.36292756525653  4.76977506130613  1.15634718641864
 6 -7.63547661216122  4.96788811181118  0.62846807690769
 6 -8.14842029242924  3.59625822472247  0.22463379967997
 6 -5.47335649204920  5.97002078447845  1.65040104400440
 6 -8.33387997619762  6.21371108880888  0.43863891819182
 6 -9.20025754855486  6.60938022862286 -0.51768038433843
 7 -9.29738313761376  0.84446292089209 -0.38533550895090
 6 -9.92244402180218  2.08845214691469 -0.58545735643564
 6 -11.36795303330333  1.89452309180918 -1.02641671297130
 6 -11.46306174667467  0.51506554795480 -1.27317737933793
 6 -10.14198090649065 -0.07975502490249 -0.88203168356836
 6 -12.31326552375237  2.95536810591059 -1.35987041614161
 6 -12.64729482688269 -0.28751785018502 -1.87786002100210
 6 -12.42736720632063 -0.72172681908191 -3.33641082548255
 7 -7.53756688238824 -1.27077139163916 -0.10634697979798
 6 -8.60513649914991 -2.01700831503150 -0.50893782218222
 6 -8.13043665086509 -3.36901150265026 -0.65381912041204
 6 -6.83927595579558 -3.43218910321032 -0.18580068536854
 6 -6.49806834643464 -2.09960175927593  0.03216537063706
 6 -9.05592957805781 -4.49639303930393 -1.14607711451145
 6 -5.69296541804180 -4.26474170107011  0.00500316991699
 8 -5.47516937303730 -5.42613912261226 -0.26312939253925
 6 -4.49126473107311 -3.32693980668067  0.53526877647765
 6 -3.90570298509851 -3.86607030223022  1.76266815211521
 8 -4.11428404010401 -3.38112906880688  2.85498596259626
 8 -3.03064558025803 -4.91183146444645  1.55594133713371
 6 -2.55739927022702 -5.56074697999800  2.73205967626763
 6  2.70132017541754 -1.06682537313731 -1.18222242754275
 6  4.05032914271427 -0.83405802920292 -0.54452106530653
 6  5.08461076127613  0.06470551815182 -0.86621202580258
 6  4.96746725692569  0.94642848454845 -2.12886542554255
 6  6.37149086118612  0.05820844914491 -0.13440490359036
 6  7.54368859605961 -0.46319565266527 -0.92793014641464
 6  8.81894537153715 -0.36353156005601 -0.04378925882588
 6  10.10469232393239 -0.88993347594759 -0.68599957985799
 6  10.04384817821782 -2.30762592839284 -1.04455857055706
 6  11.30887156175618 -0.33090276087609  0.16996452845285
 6  12.74838342294229 -0.66287476587659 -0.41469934713471
 6  13.98899530673067  0.01401869876988  0.31574793739374
 6  15.28814063516351 -0.20511354715472 -0.41064490029003
 6  15.71521884948495 -1.70538470037004 -0.50699043454345
 6  16.27307990519052  0.68704961616162  0.39450271467147
 6  17.71021786048605  0.60009574347435 -0.23022753055306
 6  18.71638148914891  1.52741136013601  0.56292498539854
 6  20.15262515841584  1.55171079637964 -0.10192743234323
 6  20.12610353985399  2.29350878207821 -1.49902631163116
 6  21.07026749234923  2.22857659375938  0.94024042474247
 1 -4.13053122072207  3.50030641494149  2.05735797409741
 1 -10.23074065906591  4.16773621012101 -0.19434810871087
 1 -10.68312665256526 -2.15703171317132 -1.10775066896690
 1 -2.65189124062406 -1.14260462456246  1.97340913561356
 1 -2.31926249384939  1.51946189728973  1.05540503890389
 1 -1.86302381828183  0.44647206890689  3.33445017031703
 1 -2.79360266056606  2.02760740434043  3.81544064526453
 1 -3.80142072147215  0.41536223852385  3.59920876657666
 1 -2.17415686958696 -1.87892176987699 -0.04189104540454
 1 -2.25537147574757 -0.32419494519452 -0.92182084278428
 1 -0.15614993839384  0.33816794269427  1.04239026952695
 1 -0.38959197209721 -1.34861404140414  1.39661678067807
 1 -4.30590524792479  5.68722686028603  1.38290142814281
 1 -5.81083230203020  6.99804492319232  1.32438803580358
 1 -5.23554533153315  5.93013286268627  2.74444550515052
 1 -8.04808490739074  7.15065209890989  1.05981728802880
 1 -9.57149254205421  6.10432841834183 -1.29187858385839
 1 -9.74862914211421  7.60300558585859 -0.30389009310931
 1 -12.41096564396440  3.63198369686969 -0.46658905750575
 1 -11.92568149044905  3.60303526822682 -2.27643486098610
 1 -13.42527992799280  2.57101271947195 -1.37422046894689
 1 -12.79114394029403 -1.23018314461446 -1.21039561336134
 1 -13.53309405170517  0.34039370077008 -1.71461513881388
 1 -12.32113662866287  0.04068108320832 -3.97407625102510
 1 -11.44200040774077 -1.30929032543254 -3.51070186688669
 1 -13.35091316451645 -1.39880723882388 -3.71186504520452
 1 -9.93253079987999 -4.58079017091709 -0.50969677357736
 1 -9.54216612681268 -4.45068208170817 -2.13273379397940
 1 -8.52448415391539 -5.50810159005901 -1.03744839833983
 1 -3.73915964326433 -3.56703405470547 -0.19573263306331
 1 -1.99434630263026 -6.71797840154015  2.46812251625163
 1 -1.86543311501150 -4.98793853285329  3.41891634193419
 1 -3.43486454185419 -5.84196119611961  3.23483500370037
 1  2.49375116691669 -2.16950369146915 -1.56042317561756
 1  2.62308415131513 -0.47721915991599 -2.09823744304430
 1  4.17893932983298 -1.33550162066207  0.51466051045104
 1  5.28631389588959  1.97927562536254 -1.91916450385039
 1  5.69923688748875  0.45058101330133 -2.95315838293829
 1  4.01127761296130  0.97525033093309 -2.52720807770777
 1  6.56069616671667  1.02928607250725  0.06769156875688
 1  6.21470929672967 -0.71170675597560  0.66433612771277
 1  7.60380103320332 -1.53820786618662 -1.20396524262426
 1  7.92435218631863  0.22291779637964 -1.86261511921192
 1  9.00573501510151  0.72033988548855  0.37403866236624
 1  8.64198692859286 -0.87985507250725  0.84131698459846
 1  10.21641850715072 -0.33926372807281 -1.67693841674167
 1  9.16946413401340 -2.56069473227323 -1.65356458195820
 1  10.87789465046505 -2.69882155855586 -1.53011875747575
 1  9.87606604840484 -3.11584346184618 -0.27206072757276
 1  11.19615380548055  0.72174979877988  0.28933239583958
 1  11.06449401880188 -0.82962144764476  1.06217673937394
 1  12.90776728472847 -1.82086596559656 -0.46042948574857
 1  12.81825214181418 -0.28236550945094 -1.43989730823082
 1  13.62494352985298  0.95736613241324  0.50546572067207
 1  14.11360619611961 -0.35267822182218  1.43259283548355
 1  14.98323982138214  0.10938413821382 -1.32354900470047
 1  14.86720211521152 -2.29358764256426 -1.09677369786979
 1  16.58693542984298 -1.70684652415241 -1.22578397099710
 1  15.84591730933093 -2.08210782938294  0.60292299359936
 1  16.10402759435944  1.85503859255926  0.20283412701270
 1  16.13190951365137  0.57686149524953  1.26269826662666
 1  18.33794987228723 -0.33813229182918 -0.31393607830783
 1  17.52200492589259  0.84406736983698 -1.27025433003300
 1  18.25781748764877  2.57405613331333  0.62428892389239
 1  19.07505051925193  1.07330616741674  1.61858311391139
 1  20.45971420122012  0.58985971967197 -0.44161122402240
 1  19.96777947514752  3.32450458255826 -1.31908688288829
 1  21.15630414761476  2.39237484128413 -1.86107143054305
 1  19.47820605640564  1.93397343394339 -2.21370655185519
 1  21.25325033813381  1.55556510681068  2.04387831563156
 1  22.02527636933693  2.55027314391439  0.32822472227223
 1  20.53954161686169  3.08154782528253  1.23370597499750
 1 -7.30163394589459  1.74291856385639  0.58918217501750
 1 -7.71324269086909 -0.12172704830483 -0.25277859805981

