%nproc=4
%Mem=2GB
# td=(NStates=1) B3LYP/SVP 

TD

0 1
 6 -5.26038888938894 -2.04362416841684  0.56678530363036
 6 -4.64535069326933  2.67827805680568  1.43433010911091
 6 -9.25311455505551  3.44566076237624 -0.25191980818082
 6 -9.85526737783778 -1.29213080768077 -1.02098824422442
 7 -5.19666641464146  0.34055051615162  0.96501395939594
 6 -4.56487458505851 -0.84641362496250  0.88823490909091
 6 -3.01162291599160 -0.70315079857986  1.24720797019702
 6 -3.01079523192319  0.71229634723472  1.85637014241424
 6 -4.38314327242724  1.31144819021902  1.44471638303830
 6 -2.78060455835584  0.77340564156416  3.36903676167617
 6 -2.09747509030903 -0.79237425152515  0.04494110181018
 6 -0.61874026212621 -0.92003085788579  0.57467523262326
 6  0.36311081698170 -1.34786170347035 -0.43839969716972
 8  0.14828456435644 -1.79752944284428 -1.54458691329133
 8  1.65087016221622 -0.92504892339234 -0.12797778977898
 7 -6.86291947294729  2.71434617651765  0.44720531453145
 6 -5.74801898289829  3.39827656015602  1.10834495989599
 6 -6.00657192969297  4.84881296509651  1.10638218991899
 6 -7.33269633413341  4.96377770077008  0.61772700280028
 6 -7.92995844624463  3.65304390329033  0.20736207250725
 6 -5.09163832023202  5.92096587898790  1.57677368126813
 6 -7.97503409160916  6.26008572627263  0.43646870117012
 6 -8.85300282308231  6.65161445204520 -0.54719333563356
 7 -9.12983638293829  1.02467094169417 -0.50218719411941
 6 -9.70675245264527  2.19280258195820 -0.57563637433743
 6 -11.19793603160316  2.08022166166617 -1.05072914421442
 6 -11.29143458395840  0.65374941634163 -1.29017907950795
 6 -10.18379508790879  0.09766271687169 -0.92398587898790
 6 -12.20291448864887  3.08996156525653 -1.35393982308231
 6 -12.51525162256226  0.05847674927493 -1.70318255325533
 6 -12.63414788438844 -0.37261190759076 -3.20349753415342
 7 -7.53366649234924 -1.17895220972097 -0.41109745484548
 6 -8.59937592309231 -1.91815843004300 -0.72458938733873
 6 -8.24731833903390 -3.34967956945695 -0.69205294379438
 6 -6.95049707790779 -3.39032491679168 -0.25154726002600
 6 -6.51289982958296 -2.09505130423042 -0.01377922382238
 6 -9.15244923002300 -4.43501690169017 -1.16100860766077
 6 -5.84101022252225 -4.26678190509051 -0.00779811021102
 8 -5.89151100720072 -5.50075658435844 -0.12718579817982
 6 -4.68278388298830 -3.43330044274427  0.50034528412841
 6 -4.08829124392439 -4.02350604580458  1.80103198849885
 8 -4.23773638533853 -3.60736169206921  2.89799026302630
 8 -3.13559607530753 -4.90791107240724  1.45942168516852
 6 -2.55885941624162 -5.66748765406541  2.54305077537754
 6  2.70126016941694 -1.17206589718972 -0.96361056635664
 6  3.91038514831483 -0.68764338773877 -0.37372398559856
 6  4.91404370457046 -0.01835278767877 -1.12966837143714
 6  4.86530704090409  0.47193103480348 -2.49195173417342
 6  6.16621033313331  0.25896852515252 -0.29720118321832
 6  7.38049227642764 -0.42993232633263 -0.94304165756576
 6  8.70227370437044 -0.08995420232023 -0.11937681758176
 6  10.04444629932993 -0.71380586318632 -0.60684166406641
 6  9.99604339773977 -2.21983714951495 -0.68728284298430
 6  11.24274494909491 -0.26460613121312  0.24892242424242
 6  12.63071165576558 -0.63771224962496 -0.44001187838784
 6  13.82371877907791 -0.03993669676968  0.38310467306731
 6  15.18122994409441 -0.08614164996500 -0.35911974777478
 6  15.71939926752675 -1.56131029292929 -0.41213094859486
 6  16.22098469566957  0.71776268746875  0.33981724612461
 6  17.63516035473547  0.71850758465847 -0.27882239003900
 6  18.53312316331633  1.75613423242324  0.48344703760376
 6  19.98019791569157  1.83101872717272 -0.07153439303930
 6  20.13136406590659  2.24931436263626 -1.57196360536054
 6  20.67168763436344  2.89431316741674  0.82979938063806
 1 -3.91056922452245  3.33938032233223  1.99453169146915
 1 -9.79774735973597  4.28353779027903 -0.44760343424342
 1 -10.48151649154915 -1.77944395439544 -1.53828372227223
 1 -2.91160721222122 -1.51325168926893  1.93098489318932
 1 -2.38706927452745  1.24392434353435  1.29648914731473
 1 -1.89271678757876  0.43040046174617  3.68681540684068
 1 -2.71447474777478  1.84995963956396  3.80208931013101
 1 -3.54794537393739  0.35770647294730  3.96952579827983
 1 -2.24321377527753 -1.67957183488349 -0.74531138743874
 1 -2.07424336293629  0.23389086338634 -0.58952761346135
 1 -0.17651197459746  0.09187331323132  0.89427545804581
 1 -0.54365737863786 -1.63466264626463  1.50310742974297
 1 -4.05236989438944  5.96994513211321  0.91248438643864
 1 -5.54733595239524  6.90106522522252  1.51786738373837
 1 -4.81654343134313  5.83464331373137  2.66274733533353
 1 -7.70972107100710  7.20484751845185  0.99745105140514
 1 -9.10890628342834  6.20589857535754 -1.59939933593359
 1 -9.24303858305831  7.58681396669667 -0.50554025812581
 1 -12.54437898529853  3.40025052355236 -0.35843824242424
 1 -11.91827074937494  4.08940390509051 -1.92001921942194
 1 -13.19958735873587  2.86823244144414 -1.86298934583458
 1 -12.72219704560456 -1.00060018631863 -1.16626119991999
 1 -13.39484022632263  0.75831549294930 -1.08623230053005
 1 -12.42090660566057  0.45104211931193 -3.86802564596460
 1 -11.84288049574958 -1.32850224662466 -3.38137893459346
 1 -13.72558063126313 -0.62186954505451 -3.49485334403440
 1 -9.89147669446945 -4.67017910981098 -0.26779258315832
 1 -9.83650556075608 -4.23366037953795 -2.14992551315132
 1 -8.41814351985199 -5.40767154705471 -1.41069572307231
 1 -3.82633836113611 -3.54295164646465 -0.43580664046405
 1 -1.77916478447845 -6.20110671437144  2.08481418541854
 1 -2.00099667136714 -5.03648338733873  3.36678112841284
 1 -3.15543659905991 -6.52129912991299  3.03232475267527
 1  2.87216900870087 -2.29783652475248 -1.03376050935093
 1  2.43790563346335 -0.58895033303330 -1.86342396169617
 1  4.09948138403840 -1.07358542904290  0.46327537193719
 1  5.21692695719572  1.62132983078308 -2.48135072247225
 1  5.61967893169317 -0.10700474527453 -3.06479954705471
 1  3.99074555975597  0.22779558545855 -3.05569092599260
 1  6.53136323342334  1.34147729162916 -0.26339153955396
 1  6.27071489728973 -0.11949753505351  0.72778247234723
 1  7.24955560866087 -1.68326237163716 -1.01892673877388
 1  7.77604735583558 -0.03137763316332 -1.86754561226123
 1  8.82139658125813  1.00821867336734 -0.14805354685469
 1  8.74393712361236 -0.54827191419142  1.05283813671367
 1  9.90764763006301 -0.37948775047505 -1.69162988588859
 1  9.15806299389939 -2.80008867166717 -1.25146437193719
 1  10.83702056305631 -2.56092776917692 -1.35971171677168
 1  10.20760920272027 -2.87234911241124  0.20886736523652
 1  11.06325051515151  0.76083370717072  0.46354981758176
 1  11.29745731513151 -0.60107859335934  1.30069059075908
 1  12.76075258325833 -1.77348122712271 -0.69406284908491
 1  12.66624694129413 -0.11807908080808 -1.47720103860386
 1  13.45277631313131  0.91146154195420  0.54655983008301
 1  14.13748858435844 -0.61446440044004  1.31092066826683
 1  15.15834733213321  0.27780097989799 -1.46913356315632
 1  14.69630502550255 -2.13561184498450 -0.76202022252225
 1  16.49589632593259 -2.02879871937194 -1.21525291789179
 1  15.85370808840884 -2.13061267986799  0.60319302060206
 1  15.72667985958596  1.69564265296530  0.27388123172317
 1  16.35926224892489  0.30661447054705  1.43565556235624
 1  17.95347142444244 -0.36805528412841 -0.56374105880588
 1  17.70586331173118  1.09023198629863 -1.35891319591959
 1  18.16273797969797  2.92052077977798  0.40555705070507
 1  18.50546356055606  1.66549538633863  1.50981223682368
 1  20.32449067886789  0.77570830453045 -0.18954601750175
 1  19.71119381658166  3.30378251035104 -1.57325229942994
 1  21.10025854305431  2.40730633443344 -1.65335065846585
 1  19.71816005180518  1.68012804940494 -2.29407458865887
 1  20.56639165226523  2.43624317461746  1.96359028682868
 1  21.76840068176818  3.11522963956396  0.65434733453345
 1  20.09214687738774  4.06331600210021  0.81705430983098
 1 -6.95802958545855  1.74602887488749  0.52357561436144
 1 -7.40658202480248 -0.14783965956596 -0.35373869406941

