%nproc=4
%Mem=2GB
# td=(NStates=1) B3LYP/SVP 

TD

0 1
 6 -5.11130398089809 -2.01721152715272  0.51509013411341
 6 -4.67894405260526  2.58447867686769  1.43055973207321
 6 -9.21871111471147  3.39074527082708 -0.25440005620562
 6 -9.79706155725573 -1.33539513411341 -0.93423956935694
 7 -5.17697444544454  0.37896435753575  0.81392885088509
 6 -4.52638073567357 -0.77901688528853  0.80727681328133
 6 -3.05193694739474 -0.67560804430443  1.30979422882288
 6 -3.06426057845785  0.73806892449245  1.85632013741374
 6 -4.38323328142814  1.34485153055306  1.25079699109911
 6 -2.99827632553255  0.75950425142514  3.34273413141314
 6 -2.06341168396840 -0.86400141424142  0.11569817751775
 6 -0.57283567166717 -0.86279513431343  0.50304806990699
 6  0.37892239813981 -1.28446536383638 -0.42375823302330
 8  0.10305004090409 -1.69009869976998 -1.50679313391339
 8  1.68008308350835 -0.84844126262626 -0.10370536253625
 7 -6.97927110811081  2.75570031193119  0.51846244024402
 6 -5.81223540454045  3.40339707220722  1.06819094449445
 6 -6.07501877437744  4.74222230603060  1.10709226092609
 6 -7.31684474897490  5.01704302730273  0.52973820392039
 6 -7.89567501790179  3.66521512041204  0.16448778507851
 6 -5.05462461886189  5.74689847224722  1.62056806070607
 6 -7.75335192339234  6.37247696539654  0.18441349564957
 6 -8.83590111291129  6.68727801840184 -0.51054967126713
 7 -9.06178957825783  1.00984945954595 -0.59625660106011
 6 -9.77696947434744  2.20159346104610 -0.51530034073407
 6 -11.21941817981798  1.92090573007301 -0.92424649594959
 6 -11.35738117861786  0.63006704810481 -1.24504456605661
 6 -9.95685239363936  0.08208115871587 -0.92858633903390
 6 -12.25216941414141  3.01611418051805 -0.92746717581758
 6 -12.46006610401040 -0.16441553995400 -1.69729196419642
 6 -12.61062553215322 -0.24032867926793 -3.20186737113711
 7 -7.40961408710871 -1.27997231173117 -0.12817916301630
 6 -8.57978396389639 -1.95495210941094 -0.64516144454445
 6 -8.22087569476948 -3.42229683118312 -0.70105384388439
 6 -6.93933596179618 -3.48933481778178 -0.21949405470547
 6 -6.41087962756276 -2.16402820192019 -0.04483232913291
 6 -9.04243822892289 -4.45169856985699 -1.27232973977398
 6 -5.78140426192619 -4.36969219611961 -0.08944627502750
 8 -5.65460731683168 -5.56940344904490 -0.16189926952695
 6 -4.64697030163016 -3.43454056675668  0.39509475907591
 6 -4.07619003380338 -3.96731042624262  1.67442932823282
 8 -4.25024763646365 -3.49526048194819  2.78839930393039
 8 -3.20901341704170 -4.96687696899690  1.48024376737674
 6 -2.78613214351435 -5.68003890919092  2.77360383068307
 6  2.70102014541454 -1.11263995459546 -1.02562676797680
 6  3.95769987978798 -0.52338696209621 -0.43856046924692
 6  4.95869817001700  0.14790383798380 -1.17889329392939
 6  4.68728923912391  0.62707654935494 -2.55905844484448
 6  6.21422513461346  0.41147377567757 -0.36960842394239
 6  7.43934816201620 -0.32366169926993 -1.01287864126413
 6  8.67364084108411  0.06700149324932 -0.12086696659666
 6  10.03634548924892 -0.55560004260426 -0.62246322622262
 6  9.85183897729773 -2.21345651145115 -0.48110222492249
 6  11.16239691429143  0.01990231963196  0.15254278627863
 6  12.44969355395540 -0.57226570497050 -0.46633451065106
 6  13.73715012221222  0.13005030193019  0.25946230883088
 6  15.18555037613761 -0.22025506130613 -0.34837867366737
 6  15.39750707830783 -1.70213437533753 -0.46189592509251
 6  16.23625622282228  0.60371128232823  0.45473873827383
 6  17.70621746044604  0.56312204610461 -0.11087559535954
 6  18.59224907590759  1.64587320632063  0.43573226612661
 6  20.07168706460646  1.65706133143314 -0.01465870547055
 6  20.19491042054205  2.18320775197520 -1.48437484648465
 6  20.81252171777178  2.67663139923992  0.85867226792679
 1 -3.86988515611561  3.35699208350835  1.70624286258626
 1 -9.82459004400440  4.37827726422642 -0.16699537343734
 1 -10.66447478737874 -2.02392840284028 -1.19593948784879
 1 -2.99617566906691 -1.51025138923892  2.07979977467747
 1 -2.17086765436544  1.30640059115912  1.72919241764176
 1 -2.14470198609861  0.08202562426243  3.96522324762476
 1 -2.70788408870887  1.79048369196920  3.58580768196820
 1 -4.00864144354435  0.67166786908691  3.76662550825083
 1 -2.16201565546555 -1.91395527322732 -0.39505636193619
 1 -2.15317125572557 -0.07253977967797 -0.60242890359036
 1 -0.28624294769477  0.02948707460746  0.71112714321432
 1 -0.40136314921492 -1.35148432843284  1.62857997699770
 1 -4.19675433283328  5.66670480808081  1.04092723072307
 1 -5.61677289608961  6.68694381308131  1.44559015601560
 1 -4.80076185318532  5.54500434983498  2.53899496009601
 1 -7.27634773367337  7.03531056475648  0.65753706000600
 1 -9.33911930473047  5.92686067156716 -1.06504590059006
 1 -8.91713599279928  7.81392667796780 -1.10985068916892
 1 -12.30770531793179  3.69863036153615 -0.03143554215422
 1 -12.16909583188319  3.78783374807481 -1.80647786528653
 1 -13.41823922392239  2.47121273947395 -0.99853290019002
 1 -12.47663248914892 -1.10558068436844 -1.13380795459546
 1 -13.33967470977098  0.32237189858986 -1.25577925522552
 1 -12.54553906890689  0.66774378947895 -3.75179402280228
 1 -11.76591279897990 -1.01683107950795 -3.52337313401340
 1 -13.53379145234523 -0.90213757185719 -3.49328318701870
 1 -10.14286183298330 -4.32620471237124 -0.87736354025403
 1 -8.99110102030203 -4.52515952945295 -2.44040456105611
 1 -8.62636434193419 -5.49410018991899 -1.01828648214821
 1 -3.86839256655666 -3.38810616191619 -0.33800686048605
 1 -2.56704357235723 -6.75577218091809  2.56650235423542
 1 -1.92560913261326 -5.02544228322832  3.37948239853985
 1 -3.74929598499850 -5.73845084508451  3.52827434763476
 1  2.54233602540254 -2.35962270337034 -1.22309944324432
 1  2.37216905980598 -0.68949038703870 -2.19207682698270
 1  4.33819525542554 -0.80152822332233  0.55319436383638
 1  4.76012127662766  1.75554325212521 -2.79766235363536
 1  5.48484544834483 -0.03931797659766 -3.20655372247225
 1  3.71087757295730  0.31973477937794 -3.00499585648565
 1  6.51242133923392  1.56657980188019 -0.48129332973297
 1  5.91827965376538  0.16295070977098  0.59056875097510
 1  7.18671932503250 -1.53207725312531 -0.71515636173617
 1  7.64275402650265 -0.16479097449745 -2.15845470317032
 1  8.76855129672967  1.12810066156616 -0.15442418391839
 1  8.50066279617962 -0.29250633763376  0.80269312221222
 1  10.11880874617462 -0.32328212991299 -1.75598632153215
 1  8.94119130673067 -2.40932959575958 -0.94415364086409
 1  10.76974383538354 -2.72567424382438 -1.05192093769377
 1  10.01062950475048 -2.54542642014201  0.63679015751575
 1  11.15521971207121  1.09121674547455  0.10222368496850
 1  10.91361893129313 -0.14320280578058  1.24739526122612
 1  12.43065957395740 -1.66972085108511 -0.48970241304130
 1  12.43829414601460 -0.16448372127213 -1.64529784828483
 1  13.69610064556456  1.31934233003300  0.15144031813181
 1  13.70328516401640 -0.04514746874688  1.37232680888089
 1  15.06450794819482  0.32130533033303 -1.46802345214521
 1  14.61217661266127 -2.28297658145815 -1.04480850135013
 1  16.31817855415542 -2.12818865836584 -0.76471786438644
 1  15.20031274887489 -2.14871449004900  0.60427312861286
 1  16.07939513111311  1.76404949364936  0.43068691229123
 1  16.35743206590659  0.28074188328833  1.53067506430643
 1  18.14672074937494 -0.38805728432843 -0.22571725642564
 1  17.61348407380738  0.89540250335033 -1.08528583318332
 1  18.24177588348835  2.57660638833883  0.31985848084809
 1  18.75808882308231  1.43257209400940  1.63895515111511
 1  20.26416464626463  0.66201693539354 -0.03455051795179
 1  19.72909560676068  3.25964809690969 -1.64069904410441
 1  21.31867038423842  1.86883248704870 -1.86804212761276
 1  19.60751898769877  1.66886692329233 -2.17278245944594
 1  20.99398441154116  2.53781333163316  1.93923785158516
 1  21.86586042774277  2.62640075667567  0.58454035383538
 1  20.49292695539554  3.78462813331333  0.65888849324932
 1 -7.03387717021702  1.84156842884288  0.38980223702370
 1 -7.38887025362536 -0.29784466006601  0.07969464926493

