%nproc=4
%Mem=2GB
# td=(NStates=1) B3LYP/SVP 

TD

0 1
 6 -5.11731458195820 -2.06262606860686  0.39757838293829
 6 -4.72591875007501  2.77260748974897  1.36422309840984
 6 -9.29399864346435  3.39866606290629 -0.12402701890189
 6 -9.89965181628163 -1.37343893849385 -0.80285643104310
 7 -5.18387513551355  0.40719718081808  0.79096655465547
 6 -4.49105720332033 -0.87402638623862  0.79396548214821
 6 -3.08124987868787 -0.69756023952395  1.25289853925393
 6 -3.04448860126013  0.75435055265527  1.94929943534353
 6 -4.28885384348435  1.36157320272027  1.32296420782078
 6 -3.09491598949895  0.64558285928593  3.53468332633263
 6 -2.16082142494249 -0.79703471757176  0.14862146984698
 6 -0.58545693379338 -0.74527338213821  0.40595836093609
 6  0.32786729262926 -1.19795671297130 -0.72511836903690
 8  0.02979271517152 -1.57524721462146 -1.78742119671967
 8  1.60856593179318 -0.79527594609461 -0.27757274927493
 7 -6.96578975997600  2.76773151505150  0.34300489448945
 6 -5.84079826082608  3.36265299779978  0.95855998139814
 6 -6.06209748224822  4.75199328312831  0.99822137383738
 6 -7.37012007650765  5.01281260426043  0.51774700480048
 6 -7.93083853425343  3.67802640154015  0.22269360566057
 6 -5.10583974037404  5.78027180958096  1.60053605750575
 6 -8.10872746094609  6.25970568826883  0.34530958525853
 6 -8.96173369616962  6.72958224882488 -0.52086070237024
 7 -9.21761516081608  0.89018749334933 -0.42398937433743
 6 -9.79011078847885  2.16424972667267 -0.49490830153015
 6 -11.27698393639364  1.92430607010701 -0.88166223752375
 6 -11.39281472197220  0.58329237063706 -1.09202926452645
 6 -10.16921362976298 -0.04807185658566 -0.75349883028303
 6 -12.14578877607761  3.14228679777978 -1.11327575667567
 6 -12.68781887928793 -0.09437853625363 -1.65176741174117
 6 -12.58399286888689 -0.49164381078108 -3.16453363776378
 7 -7.55132825852585 -1.23254756925693 -0.15115146024602
 6 -8.64167015251525 -1.95137175137514 -0.55333226162616
 6 -8.25072868006801 -3.30704530603060 -0.61079481798180
 6 -6.85980800900090 -3.39905578987899 -0.26556866216622
 6 -6.47740628022802 -2.09658145724572 -0.00094794069407
 6 -9.10171415651565 -4.42755615561556 -0.95588809560956
 6 -5.82596871837184 -4.35808103500350 -0.00941827222722
 8 -5.72200405650565 -5.57982449114911 -0.12308538813881
 6 -4.50684628922892 -3.42449956265627  0.42957820742074
 6 -3.98729114391439 -3.69762345754575  1.68980086538654
 8 -4.46542915461546 -3.40919187508751  2.75166563056306
 8 -2.95475799149915 -4.69122940424043  1.48937468046805
 6 -2.53995752605260 -5.32667357265727  2.68775524582458
 6  2.70294033743374 -1.16132482308231 -1.24747895319532
 6  3.97334144394439 -0.63364798819882 -0.67547416061606
 6  4.98172047224722 -0.06152710511051 -1.22347775237524
 6  4.95117562776278  0.36514035573557 -2.66727926692669
 6  6.33771748384838  0.29850247854785 -0.43789525262526
 6  7.48662288948895 -0.59966930003000 -0.99013636703670
 6  8.79198267526753 -0.23008821572157 -0.15557043694369
 6  10.07172902760276 -0.91965644824482 -0.73418439833983
 6  10.15590938433843 -2.42208737453745 -0.68716283098310
 6  11.31196187078708 -0.21916158675868  0.12865039703970
 6  12.63609219381938 -0.45872435083508 -0.54806268346835
 6  13.79134554175418  0.01793909080908  0.29384574717472
 6  15.18504032513251 -0.09063209900990 -0.37276111191119
 6  15.64465179277928 -1.61375553745375 -0.73010274577458
 6  16.23408600580058  0.60175108630863  0.36934019841984
 6  17.66116295499550  0.73814954885489 -0.20301480928093
 6  18.61112096309631  1.62944156315632  0.64623331623162
 6  20.03507340324032  1.77440306560656  0.22662542294229
 6  20.13332426192619  2.48831826302630 -1.21715812481248
 6  20.84145461106111  2.56677041314131  1.30428682938294
 1 -4.01069923752375  3.48755513981398  1.99348158645865
 1 -9.96232381738174  4.23024246074607  0.09926125222522
 1 -10.58806714661466 -1.99017502750275 -1.02838273217322
 1 -2.64620067156716 -1.29631999609961  2.10336213091309
 1 -1.96984755235524  1.38713866496650  1.65144464286429
 1 -2.12722023792379  0.38872629432943  3.93077980328033
 1 -3.34528782908291  1.65907055065507  3.88300740194019
 1 -3.81342192159216  0.07391809410941  3.84552339803980
 1 -2.31965141904190 -1.92239611731173 -0.09035589188919
 1 -2.12118805740574 -0.07550007570757 -0.74214287498750
 1 -0.38522284568457  0.22912703860386  0.66404243474347
 1 -0.49022203510351 -1.55610479047905  1.26256337533753
 1 -3.92245690309031  5.54681281888189  1.27299043704370
 1 -5.36262748154815  6.77742286098610  1.24531012801280
 1 -5.03255503250325  5.75286513591359  2.71598265886589
 1 -7.53949404830483  7.11875890959096  0.96482778907891
 1 -9.34346973977398  5.99582756825682 -1.41209060506051
 1 -9.26800107930793  7.72208749404941 -0.77548725282528
 1 -12.34123867126713  3.76326682518252 -0.19193159175918
 1 -11.79240816311631  3.83427839253925 -1.86558377587759
 1 -13.15769316931693  2.83426904510451 -1.45408845574557
 1 -12.77909273517352 -1.09365949224922 -1.04941951575158
 1 -13.61937267956796  0.43985364676468 -1.34630830813081
 1 -12.26788130313031  0.51196821192119 -3.65186402980298
 1 -11.80318652635264 -1.15297469386939 -3.21157195389539
 1 -13.62467054025403 -0.87017437553755 -3.44194805350535
 1 -10.04761230803080 -4.69000109200920 -0.36267207110711
 1 -9.55027693789379 -4.22146916041604 -1.89945046564656
 1 -8.66404811031103 -5.45459623952395 -1.00942559605961
 1 -3.68826455375538 -3.64109146044605 -0.31423448324832
 1 -1.92366923492349 -6.19085568926893  2.43263896789679
 1 -2.10209678137814 -4.54251399039904  3.28180263056306
 1 -3.40737179257926 -5.72320932093209  3.31470299049905
 1  2.85081687348735 -2.30613735483548 -1.29567670097010
 1  2.69195103800380 -0.75959739773977 -2.43452107140714
 1  3.93403483938394 -0.96205427592759  0.36753579797980
 1  5.04819008350835  1.41474917271727 -2.60540312771277
 1  5.75970293409341 -0.13824786958696 -3.22464553165317
 1  3.94238072327233  0.38687149304931 -3.31509686658666
 1  6.52673277037704  1.47858100200020 -0.64805000540054
 1  5.95617344314431  0.19498391309131  0.67406710081008
 1  7.22706335943594 -1.64152819821982 -1.02296714281428
 1  7.45803555465547 -0.41434592999300 -2.09021787948795
 1  8.83110755235523  1.05671352285229 -0.27717645914591
 1  8.76700943084309 -0.40120720772077  0.97398025092509
 1  10.27062392769277 -0.71481128282828 -1.75796651955196
 1  9.29480666826683 -2.72181084388439 -1.44620384588459
 1  11.04732159315932 -2.72000367676768 -1.27714345994599
 1  10.01981042284229 -2.74497637513751  0.46645312381238
 1  11.05674986508651  0.93674129792979  0.05195865846585
 1  11.45008257765777 -0.41848033353335  1.29158968066807
 1  12.69778628662866 -1.64058793779378 -0.87025046784678
 1  12.51479179577958 -0.01314858775878 -1.52883620212021
 1  13.86474751025102  1.14325472127213  0.43376855095510
 1  13.75367020252025 -0.47125007900790  1.26365594179418
 1  14.93912540994100  0.30353355315532 -1.47589423922392
 1  14.77654304930493 -2.22657094089409 -1.23324734523452
 1  16.51634837113712 -1.50100594009401 -1.18493988658866
 1  15.73565628322832 -2.11183080168017  0.24547724902490
 1  15.97232442404241  1.60805389408941  0.59984382798280
 1  16.48783510621062  0.01695550465046  1.30273227002700
 1  18.20652672997300 -0.23658213681368 -0.13735842054205
 1  17.48406113151315  0.88340130323032 -1.29679698429843
 1  18.35689739563956  2.85665439313931  0.61935843084308
 1  18.68985199939994  1.30835967276728  1.75271652725273
 1  20.46586481628163  0.68456919061906  0.12928586568657
 1  19.98872156935694  3.60725285738574 -1.15825079927993
 1  21.20594911211121  2.32935853965397 -1.34154947834783
 1  19.49381761756176  1.99433947054706 -1.96161134233423
 1  20.71741675477548  2.08064761506151  2.28868279607961
 1  21.92777661936194  2.72501061766177  0.97670957075708
 1  20.36109377207721  3.53637330783078  1.46649925432543
 1 -7.09531331383138  1.70688496049605  0.36533979077908
 1 -7.53570493709371 -0.20427530313031 -0.21319463966397

