%nproc=4
%Mem=2GB
# td=(NStates=1) B3LYP/SVP 

TD

0 1
 6 -5.01341419191919 -1.90678048404840  0.42544116921692
 6 -4.73551971017102  2.80124035303530  1.36340301640164
 6 -9.45996524012401  3.38245444174417 -0.14955957215722
 6 -9.87262911401140 -1.41647324192419 -0.85527167256726
 7 -5.10601734973497  0.42150861196120  0.78336579457946
 6 -4.31215931353135 -0.82058104170417  0.68710479607961
 6 -3.04324607830783 -0.61602208570857  1.31653490289029
 6 -3.14010816321632  0.76004112171217  1.83059756515652
 6 -4.42622758085809  1.45321236663666  1.23881579297930
 6 -3.12031852975298  0.83650195119512  3.47543740174017
 6 -1.98959430223022 -0.86400141424142  0.10448705640564
 6 -0.56337472557256 -0.86038489328933  0.60469823492349
 6  0.41921642754275 -1.05493241054105 -0.50255611281128
 8 -0.01795205930593 -1.40200989088909 -1.60206266086609
 8  1.68128320352035 -0.86293271177118 -0.14820981298130
 7 -7.07933111411141  2.74597933983398  0.53795438943894
 6 -5.87243142414241  3.43663039553955  1.03297742314231
 6 -6.15622689518952  4.79464754855486  0.98135968766877
 6 -7.50523358785879  5.01178250125013  0.52480771087109
 6 -8.09719516991699  3.70580917981798  0.26448778507851
 6 -5.10602975937594  5.90554433683368  1.19567557145715
 6 -8.00078666686669  6.34674439213921  0.22937799209921
 6 -9.06354387718772  6.60146943754375 -0.62388100440044
 7 -9.30348374767477  0.94523299789979 -0.32076905230523
 6 -9.99508128552855  2.16903020472047 -0.45242405310531
 6 -11.34595083308331  1.94443808330833 -0.88738280958096
 6 -11.46060150065007  0.60976501790179 -1.22120218181818
 6 -10.18267497589759 -0.04116116551655 -0.85329881028103
 6 -12.35120931813181  2.90992356145615 -1.00891532063206
 6 -12.67429752715272 -0.20992009040904 -1.59734196919692
 6 -12.76704117371737 -0.45373001940194 -3.15935311971197
 7 -7.46300942664266 -1.25210952545255 -0.23274962006201
 6 -8.65388137363736 -2.06462307650765 -0.59400632903290
 6 -8.20095370257026 -3.44328893039304 -0.62141588008801
 6 -6.78758078627863 -3.32313819811981 -0.18441054635464
 6 -6.46131467106711 -1.97646944604460 -0.02702054795480
 6 -9.03678766386639 -4.50349374937494 -0.86501900870087
 6 -5.63406952845285 -4.23895912281228 -0.08945627602760
 8 -5.57522937903790 -5.45802231093109 -0.28600167976798
 6 -4.50567617221722 -3.39614672737274  0.39588483808381
 6 -3.90316273107311 -3.86674036923692  1.69994187948795
 8 -4.05672828452845 -3.40639159505951  2.79463992799280
 8 -2.97259977567757 -4.85835611691169  1.43619936293629
 6 -2.62940647094709 -5.63105401070107  2.59357582788279
 6  2.60753079647965 -1.10395908650865 -1.17530173547355
 6  3.98751286108611 -0.70289491289129 -0.55294190739074
 6  4.94708700890089  0.07850689828983 -0.98622402700270
 6  4.92393290349035  0.90416425812581 -2.34706724572457
 6  6.20575428752875  0.20095272357236 -0.26640810391039
 6  7.50167439463946 -0.29231856495650 -0.98258561196120
 6  8.72684616161616 -0.33779898679868 -0.10058493839384
 6  10.12166402110211 -0.79986446904690 -0.84731571147115
 6  10.03581737513751 -2.25740090589059 -1.18163227792779
 6  11.34556523112311 -0.36945661626163 -0.04164663266327
 6  12.74169275387539 -0.57978645704570 -0.59786766396640
 6  13.80371677887789 -0.11059376247625  0.26022238483848
 6  15.27614943604360 -0.33037607340734 -0.28376221202120
 6  15.69643697129713 -1.79719388128813 -0.32831256675668
 6  16.21790438763876  0.62833374457446  0.48063132753275
 6  17.59692653135313  0.73878961286129 -0.09742425022502
 6  18.59629948094809  1.58037665666567  0.67317601050105
 6  20.06753664956496  1.71672729802980  0.11803456385639
 6  20.13251418091809  2.22596202740274 -1.37102351135114
 6  20.87978844444444  2.67939167526753  1.05256165686569
 1 -3.81575974357436  3.47770415471547  1.81672391069107
 1 -10.00186777177718  4.23237267376738 -0.71343001690169
 1 -10.79864820472047 -1.95599160916092 -0.99112900680068
 1 -2.71599765126513 -1.35740610471047  2.06466826152615
 1 -2.21064163176318  1.39526947804780  1.53443294169417
 1 -2.16403391929193  0.34727214891489  3.74362108740874
 1 -3.03670697099710  1.70102474607461  3.82078117931793
 1 -4.06514709410941  0.31862256455646  4.01060990669067
 1 -2.31536098999900 -1.94397827552755 -0.32957981428143
 1 -2.12522846144614  0.08186566086609 -0.58755741644164
 1 -0.28922324572457  0.13092721862186  1.07661369186919
 1 -0.57826083898390 -1.62609178917892  1.55523264226423
 1 -4.33221787918792  5.79787792539254  0.48274141214121
 1 -5.60366158495850  6.71784690339034  1.48022361936194
 1 -4.46736851385139  5.66886673607361  2.20492155275528
 1 -7.60744084298430  7.25382241594159  0.66952825912591
 1 -9.55989138193819  5.83732171767177 -1.28115751175117
 1 -9.41552583178318  7.64451973727373 -0.79064876897690
 1 -12.38367291469147  3.66322682118212 -0.21044344294429
 1 -12.17522644494450  3.90984594929493 -1.93479069656966
 1 -13.38802620262026  2.69847546574657 -1.20592363926393
 1 -12.77939276517652 -1.15728585488549 -1.07909248304830
 1 -13.68221896419642  0.33031269266927 -1.05737941524152
 1 -12.66672118711871  0.48006502160216 -3.58520736413641
 1 -11.88907511521152 -1.01790118651865 -3.56727752445245
 1 -13.75803387658766 -1.11391874997500 -3.47071092979298
 1 -9.81188873567357 -4.68514060596060 -0.04723052695270
 1 -9.50389229942994 -4.36096310981098 -1.85020554115412
 1 -8.53334504000400 -5.45226600650065 -0.94765941944194
 1 -3.70948667596760 -3.48217556885689 -0.46299935973597
 1 -2.14512138013801 -6.73027963166317  2.06030173417342
 1 -1.91414798649865 -5.25520525952595  3.36355080538054
 1 -3.75869692509251 -5.81279827982798  3.04248576877688
 1  2.71159295109511 -2.24126086718672 -1.34759189248925
 1  2.47560940384038 -0.44100553855386 -2.07285490479048
 1  4.28902033793379 -1.20792886338634  0.22159120352035
 1  4.87012227672767  2.03056075387539 -2.16464905230523
 1  5.82719968376838  0.58969492469247 -2.91839490659066
 1  3.85290177537754  0.73309611551155 -3.06860221712171
 1  6.41017111421142  1.29456260016002 -0.16396159655966
 1  6.18159598539854 -0.04771035633563  0.85574526862686
 1  7.46624727782778 -1.28780282568257 -1.45587043314331
 1  7.57465721682168  0.58545405000500 -1.85109396709671
 1  8.84184862646265  0.68881673317332  0.24189544804480
 1  8.49548227812781 -0.85519260626063  0.70771362426243
 1  10.24404126942694 -0.31118091979198 -1.76492721562156
 1  9.23804099169917 -2.49094775757576 -1.83378260376038
 1  11.03500036103610 -2.65968764516452 -1.56869261486149
 1  9.93304174597460 -3.06952883038304 -0.40223374487449
 1  11.37982217231723  0.84385200900090  0.26503996659666
 1  11.36784435383538 -0.91195968146815  0.92252277397740
 1  12.92088859685968 -1.61128500750075 -0.72614605740574
 1  12.96297661426143 -0.20906817971797 -1.55248856735674
 1  13.71181221672167  0.86575697149715  0.67556273037304
 1  13.68654348984899 -0.71004395839584  1.33718329452945
 1  15.26088758615862  0.08188138793879 -1.32122877267727
 1  14.97801319631963 -2.41767005080508 -0.89266328682868
 1  16.75884262056206 -1.71895773527353 -0.87572896549655
 1  15.75313803140314 -2.11676129472947  0.71685438673867
 1  15.82164935653565  1.73418650735074  0.21077492109211
 1  16.40195651835183  0.30939474857486  1.56018801560156
 1  17.91838791609161 -0.24339281788179 -0.09937462216222
 1  17.54188691409141  1.08593155625563 -1.11446875147515
 1  18.00787249314932  2.48179690739074  0.80364685968597
 1  18.81952496669667  1.16510534733473  1.74040529612961
 1  20.38637686748675  0.62074280798080  0.30313325042504
 1  19.53581627882788  3.07828996109611 -1.44189916411641
 1  21.25043356055605  2.32553815761576 -1.46968229162916
 1  19.88923715951595  1.56703674027403 -2.13370855205521
 1  21.13985899899990  2.24171372167217  1.91232516031603
 1  21.97215105680568  2.78168628522852  0.63080498029803
 1  20.62509017171717  3.59018868936894  1.11643424782478
 1 -7.19132291479148  1.56386065806581  0.68080133693369
 1 -7.73410477707771 -0.17200207580758 -0.10439375957596

