%nproc=4
%Mem=2GB
# td=(NStates=1) B3LYP/SVP 

TD

0 1
 6 -5.08973182368237 -1.93735354135414  0.59615824092409
 6 -4.71514767296730  2.78369859885989  1.43873054915492
 6 -9.36669591319132  3.34593078937894 -0.25290990719072
 6 -9.85928777987799 -1.46265786038604 -0.96697284268427
 7 -5.11708845684568  0.41469793089309  0.89808726672667
 6 -4.38035613321332 -0.77310629422942  0.92685877147715
 6 -2.97146890059006 -0.55522600610061  1.24636788618862
 6 -2.93537769016902  0.91526664426443  1.83173767916792
 6 -4.37145210331033  1.42075912131213  1.38560047144714
 6 -2.94133063096310  0.86178447944794  3.33890374837484
 6 -2.08198354115411 -0.75390040414041 -0.00132352465247
 6 -0.67520590869087 -0.85307416221622  0.49459722482248
 6  0.31409591549155 -0.99550646794679 -0.68244410161016
 8  0.00853058895890 -1.22422211211121 -1.80132258685869
 8  1.66258133333333 -0.78653507200720 -0.27609260126013
 7 -7.07346052705271  2.70171491339134  0.53553414741474
 6 -5.93714789578958  3.30167690019002  1.05936006140614
 6 -6.24805607810781  4.73527161096110  1.14469602130213
 6 -7.52708577307731  4.98266958995900  0.52401763186319
 6 -8.13008845924593  3.64676327522752  0.23641497779778
 6 -5.28943810021002  5.72172595499550  1.62115811971197
 6 -8.23066965516552  6.27841755945595  0.39163421772177
 6 -8.96297382018202  6.64045333593359 -0.69345796209621
 7 -9.13849724902490  0.91151962656266 -0.60574755015502
 6 -9.83882565996600  2.05155845754575 -0.55652446314631
 6 -11.21794803280328  1.86239987948795 -0.95623969526953
 6 -11.36775221572157  0.51499554095410 -1.27217727932793
 6 -10.11212792119212 -0.08006505590559 -0.82805628602860
 6 -12.27042123932393  2.98821139023902 -1.05742017111711
 6 -12.60051014841484 -0.25302440084008 -1.79905214021402
 6 -12.60869533913391 -0.56156080248025 -3.18949613401340
 7 -7.55534866056606 -1.25979029352935 -0.15847219231923
 6 -8.61461744724472 -1.99323593779378 -0.59782671107111
 6 -8.12477608480848 -3.40011461296130 -0.58427216571657
 6 -6.83769579777978 -3.45033091739174 -0.31230333563356
 6 -6.40613915351535 -2.03599539863986  0.08328048214821
 6 -8.90036402150215 -4.56247964796480 -1.21043355015502
 6 -5.74778089958996 -4.26000122702270  0.10053272287229
 8 -5.69264112021202 -5.49901641034103  0.04570149054905
 6 -4.58195379998000 -3.37251436413641  0.59682493209321
 6 -3.92548496329633 -3.82904659985999  1.96221810711071
 8 -4.19523213491349 -3.34662561846185  3.00291075507551
 8 -3.06015853155316 -4.87751803310331  1.78787453045305
 6 -2.46944047434743 -5.36382728802880  2.97107357765777
 6  2.62171221462146 -1.04566325692569 -1.42191639693969
 6  3.95104921472147 -0.69029365276528 -0.71476809000900
 6  4.89084138433843  0.06345539313931 -1.19408481308131
 6  4.86018652885289  0.78462230393039 -2.55133767276728
 6  6.28993270537054  0.28586121442144 -0.57243870697070
 6  7.49157338453845 -0.39679901300130 -1.24318167156716
 6  8.78942241924192 -0.19574478137814 -0.32777765766577
 6  10.04086594129413 -0.69148363096310 -0.84252523242324
 6  10.06535032843284 -2.15348051385139 -1.16646076077608
 6  11.25541621622162 -0.29979965056506 -0.00600306830683
 6  12.56478506310631 -0.54142262066207 -0.57979585678568
 6  13.77272367956796 -0.06532923602360  0.27637400000000
 6  15.21160298139814 -0.12729576537654 -0.46222005780578
 6  15.58044537213721 -1.62401656355636 -0.93689342484248
 6  16.33031562876288  0.53394430563056  0.48814207860786
 6  17.70733757245725  0.58327406130613 -0.06795130293029
 6  18.66352620362036  1.42797141614161  0.82838153105311
 6  20.08246814271427  1.59733535883588  0.27311007140714
 6  20.03579450895090  2.42970240144014 -0.98626503550355
 6  20.94122458805881  2.10219395549555  1.35503190389039
 1 -3.94791295889589  3.28099448374837  2.04229646794679
 1 -9.98065565056506  4.10191962846285 -0.43870254415442
 1 -10.59163750365037 -2.16948295829583 -1.36119601350135
 1 -2.69565561706171 -1.23034339843984  1.98746054075408
 1 -2.36525709330933  1.62813276437644  1.43453295169517
 1 -1.88782629852985  0.54120154185419  3.84513123842384
 1 -3.14919822012201  1.77874251785179  3.92882198339834
 1 -3.78429900930093  0.35318602090209  3.81062990869087
 1 -2.34110356425643 -1.48438231593159 -0.86877373367337
 1 -2.21124706330633  0.25253272757276 -0.51107976867687
 1 -0.47052137553755 -0.00867674177418  0.94121015151515
 1 -0.54576758965897 -1.76975615561556  1.38998611761176
 1 -4.25358001540154  5.97410554815481  0.97424056205621
 1 -5.74981620042004  6.67701281998200  1.57697329432943
 1 -4.89581135813581  5.55822567196720  2.65072613321332
 1 -8.00087018591859  7.04688172187219  1.02194350065007
 1 -9.15644103690369  6.02078006350635 -1.64305370137014
 1 -9.45591987118712  7.78365365066507 -0.85448515261526
 1 -12.68807335473547  3.30593109160916 -0.08027042564256
 1 -11.69618854115412  4.09786475117512 -1.38449566706671
 1 -13.33340074007401  2.73404902310231 -1.46348939583958
 1 -12.55397022292229 -1.17259738603860 -1.31768634243424
 1 -13.68851959425943  0.42382204360436 -1.67933161046105
 1 -12.83724823982398  0.47638465356536 -3.80432927632763
 1 -11.68981518921892 -0.91128052445244 -3.45903670037004
 1 -13.51440951415142 -1.25029238733873 -3.46618047674768
 1 -10.00052759955996 -4.66486857875788 -0.75379118301830
 1 -9.03600551075107 -4.56094310781078 -2.32623314391439
 1 -8.22416412191219 -5.35804658455846 -1.06856150965096
 1 -3.76626235353535 -3.74268161946195 -0.09609266906691
 1 -1.70293716171617 -6.15779238293829  2.83213891789179
 1 -2.11770834253425 -4.31054079307931  3.51799624992499
 1 -3.30630168556856 -5.88531553155315  3.65072659285929
 1  2.73016480828083 -2.15562230333033 -1.77020415371537
 1  2.40169201210121 -0.46863830183018 -2.32498011731173
 1  4.06242767866787 -1.01475954645465  0.33506255065507
 1  5.30362562706271  1.87246494429443 -2.37622020942094
 1  5.40505746954695  0.38878483368337 -3.46075914301430
 1  3.74122060726073  0.94544735063506 -2.96853221012101
 1  6.42588268536854  1.35075821972197 -0.61027622802280
 1  6.32702052785278  0.14893930863086  0.43435312941294
 1  7.16484713781378 -1.40693473887389 -1.35680052615262
 1  7.74261401250125 -0.04683917931793 -2.12039089678968
 1  8.95719016061606  0.96916476797680 -0.07142588408841
 1  8.64272700260026 -0.48159524652465  0.79373222612261
 1  10.10908777407741 -0.24049385108511 -1.79830055295530
 1  9.16655384298430 -2.68740740354035 -1.81675090059006
 1  11.15129199019902 -2.51661333773377 -1.44584032963296
 1  10.05387382918292 -2.66437831533153 -0.29274279577958
 1  11.21222541264126  0.79424704850485  0.62975643824382
 1  11.15999356875688 -0.83154163966397  1.02546306800680
 1  12.70351685968597 -1.51928580758076 -0.94261770457046
 1  12.54400471707171 -0.23125039793979 -1.55252857135714
 1  13.51982301780178  0.96857725352535  0.55937111121112
 1  13.46907174267427 -0.33917687168717  1.34847442364236
 1  15.16780827822782  0.45379857965797 -1.23014966476648
 1  14.98568396339634 -2.08530681448145 -1.64516853735374
 1  16.51663840014001 -1.51701754125412 -1.64172556515652
 1  15.59604232183218 -2.35875549414942 -0.04919221792179
 1  15.88167535913591  1.44546763546355  0.61590543414341
 1  16.28700502320232 -0.02409860076008  1.55883788058806
 1  18.30524660196020 -0.43063154175418 -0.34213889858986
 1  17.72592531793179  1.18677164026403 -1.03289059365937
 1  18.15593729962997  2.45411413911391  1.01708820382038
 1  18.63344635883588  0.87378621542154  1.97157841344134
 1  20.44022225202520  0.48129886358636  0.01436437353735
 1  19.69116181338134  3.52322445454545 -0.94728970317032
 1  21.17837635483548  2.44164976877688 -1.31520684408441
 1  19.69252748854885  1.84861489808981 -1.79391457265727
 1  20.71770678377838  1.59265881618162  2.40687461526153
 1  21.95586942864286  1.97583570017002  1.11265316511651
 1  20.65644330703070  3.29849952045205  1.70539314371437
 1 -7.00927470997100  1.69292356435644  0.53126638343834
 1 -7.47678904550455 -0.29265414101410 -0.27976129632963

