%nproc=4
%Mem=2GB
# td=(NStates=1) B3LYP/SVP 

TD

0 1
 6 -5.21899474997500 -1.97567737373737  0.40775940104010
 6 -4.70090624882488  2.76245647464746  1.29175585168517
 6 -9.27658690229023  3.26080227652765 -0.14259887608761
 6 -9.90232208330833 -1.43348494309431 -0.97854399979998
 7 -5.16904365236524  0.47566402750275  0.78246570457046
 6 -4.50400849844985 -0.73698268186819  0.80167625322532
 6 -3.00298205190519 -0.61369185268527  1.22706595599560
 6 -3.02562671507151  0.82831794939494  1.89127363276328
 6 -4.39194415251525  1.40009705510551  1.29171108250825
 6 -3.02190868876888  0.84449275027503  3.34121397939794
 6 -2.00509585238524 -0.69353436753675  0.08249485718572
 6 -0.54444283238324 -0.70536939173917  0.50476824192419
 6  0.35379988588859 -0.91182810011001 -0.62815867306731
 8 -0.00065032913291 -1.38158784868487 -1.71074352895290
 8  1.65913098829883 -0.52777919641964 -0.33867885988599
 7 -6.93330651165116  2.75001974387439  0.40958155215522
 6 -5.86388056905691  3.42906963946395  0.87682180758076
 6 -6.07573884638464  4.85584366816682  0.82564411611161
 6 -7.39587265176518  4.96668799179918  0.46905213531353
 6 -7.93337878827883  3.60052865176518  0.19681101740174
 6 -5.18914807120712  5.82841662406241  1.40660666456646
 6 -8.21939852805281  6.21570128782878  0.36948200250025
 6 -9.26735425822582  6.51455074567457 -0.49972858915892
 7 -9.26426982628263  0.80920939553955 -0.40585756115612
 6 -9.90271204860486  2.04015731743174 -0.51773058375838
 6 -11.30577681568157  1.82410605010501 -0.71387545884588
 6 -11.48707414791479  0.49451349274927 -0.92994305590559
 6 -10.20217692609261 -0.15379242864286 -0.81636511691169
 6 -12.33332752995299  3.07895046414641 -0.89060348944894
 6 -12.71441153855386 -0.24682378077808 -1.41800403540354
 6 -12.82863733333333 -0.58997364376438 -2.88621580598060
 7 -7.57305043074307 -1.27534184868487 -0.18733507860786
 6 -8.62744873037304 -2.03483009720972 -0.63765069346935
 6 -8.21867547474747 -3.38556315781578 -0.66077981648165
 6 -6.90497252545255 -3.42360824512451 -0.20525263056306
 6 -6.51003954355436 -2.10683248234823  0.01743389748975
 6 -9.04970895599560 -4.63770717071707 -1.14658716551655
 6 -5.87489361086109 -4.37860308720872 -0.03534086448645
 8 -5.80750260636064 -5.56857336603660  0.17991491189119
 6 -4.58084368896890 -3.39949706240624  0.37656290589059
 6 -3.88596101090109 -3.77589128432843  1.65871775707571
 8 -4.07835044674467 -3.35859681558156  2.76101656565657
 8 -3.05465798149815 -4.74333461476148  1.47404314731473
 6 -2.39427295759576 -5.36782768806881  2.49045551585159
 6  2.69490953435344 -0.89412810341034 -1.19786399169917
 6  4.09646375617562 -0.39872449584959 -0.61480809400940
 6  5.03714601480148  0.28381742934293 -1.26545194979498
 6  5.01596210641064  0.57222106380638 -2.83164570357036
 6  6.31417512961296  0.47507013531353 -0.54186564966497
 6  7.63795802300230 -0.23579291239124 -1.18848620202020
 6  8.88257173417342 -0.20378558545855 -0.29819469936994
 6  10.19184103880388 -0.71251573417342 -0.97409838973897
 6  9.85987978137814 -2.28283344914491 -0.91734584928493
 6  11.36232690729073 -0.30870054065407 -0.05095756375638
 6  12.71486007060706 -0.73993247164716 -0.58737661486149
 6  13.85806221342134 -0.12929563266327  0.26230259285929
 6  15.25229705080508 -0.33614665046505 -0.21301513731373
 6  15.62347967556756 -1.71674583648365 -0.54799453495350
 6  16.26521911911191  0.37999891109111  0.73217648204820
 6  17.70227706640664  0.60858659255926  0.08726421862186
 6  18.60322017301730  1.58825744474447  0.83328202110211
 6  20.00638053395339  1.65192081738174  0.31141390179018
 6  20.08590952045205  2.16737616881688 -1.15398180718072
 6  20.96605707130713  2.44156789288929  1.26568296899690
 1 -3.71977014461446  3.27981436573657  1.63144538283828
 1 -9.92767035203520  4.18517795429543 -0.30311898579858
 1 -10.77826616651665 -2.07050306030603 -1.34920481438144
 1 -2.73927997949795 -1.30436080018002  1.96131792649265
 1 -2.08129869746975  1.29625957705771  1.34950444884488
 1 -2.24554207010701  0.41988941064106  3.79743646894689
 1 -3.13705700600060  1.97102174577458  3.51901100230023
 1 -3.89142972237224  0.36885758805881  3.85164401010101
 1 -2.25290474437444 -1.72838671637164 -0.38976583288329
 1 -2.10679661826183 -0.04297682338234 -0.64429309000900
 1 -0.15129945334533  0.29217334323432  1.04749077957796
 1 -0.41204421732173 -1.44863404340434  1.19698681768177
 1 -4.24618927632763  5.86586472407241  0.87387052505251
 1 -5.58780999979998  6.89901502020202  1.23219881688169
 1 -5.02485426242624  5.75277512691269  2.46593765436544
 1 -7.89526962586259  6.97225425912591  1.19434074037404
 1 -9.66514190699070  5.77996598209821 -1.28071746774677
 1 -9.61866614581458  7.51340662596260 -0.75174487858786
 1 -12.25937048444844  3.84878537703770  0.09339694109411
 1 -11.95450437273727  3.58564352905291 -1.74257147464746
 1 -13.37507490749075  2.84737035523552 -1.05530857775778
 1 -12.94826965286529 -1.26419654595460 -0.85396997079708
 1 -13.44822556485649  0.41201086248625 -1.01129480678068
 1 -12.80385490049005  0.21827884298430 -3.48435727912791
 1 -12.00122633033303 -1.23472286868687 -3.15739653635364
 1 -13.86066413961396 -0.94772213031303 -3.12289614831483
 1 -9.93252079887989 -4.64813690559056 -0.43061886578658
 1 -9.36162807300730 -4.48436545004500 -2.27402792339234
 1 -8.36299800530053 -5.56726750665067 -0.92636729022902
 1 -3.68962468976898 -3.50057740904090 -0.28228128792879
 1 -1.70989785778578 -6.25507211091109  2.08788449244925
 1 -1.96234280598060 -4.51982172117212  3.16269071937194
 1 -3.15380643604361 -5.70051705170517  3.43680520072007
 1  2.62481427322732 -2.03101984308431 -1.35377251055106
 1  2.44084592749275 -0.41955339333933 -2.13401102040204
 1  4.30215165106511 -0.75388345884588  0.42022106650665
 1  5.55958122262226  1.60829852765277 -3.00892347974797
 1  5.50466743054305 -0.07905194999500 -3.41608467556756
 1  4.11401788698870  0.72986579247925 -3.19078443534353
 1  6.71843194029403  1.39573271717172 -0.17067226762676
 1  6.22322014781478 -0.09069465476548  0.45664535863586
 1  7.35937659075908 -1.25406945234523 -1.48421326742674
 1  7.91461121222122  0.14559006360636 -2.02356121382138
 1  9.10386482808281  0.84840269176918  0.09141039953995
 1  8.56040877077708 -0.79901698869887  0.73200605350535
 1  10.37719458475848 -0.31888168986899 -1.99813053595359
 1  9.13888107570757 -2.37477614041404 -1.92733195869587
 1  10.88285514651465 -2.89336101250125 -1.20012575817582
 1  9.22196063786379 -2.45079695719572  0.08148462696270
 1  11.54717890799080  0.84597222102210 -0.06802333973397
 1  11.27818538793879 -0.76781526702670  0.94422494419442
 1  12.65338184618462 -1.85697957695770 -0.55314875767577
 1  13.01623193979398 -0.33930120302030 -1.58398171667167
 1  13.76492752825282  0.91227162296230  0.43109828392839
 1  13.81190602610261 -0.60935388938894  1.18610818701870
 1  15.29112060946095  0.16844004380438 -1.13624027382738
 1  15.01067646264626 -2.20818910271027 -1.36680070057006
 1  16.47788452475248 -1.81476731623162 -0.97150854345435
 1  15.73827654525453 -2.45286490509051  0.34804750605060
 1  15.91560875247525  1.37557064576458  0.97484132773277
 1  16.41650797349735 -0.04839103000300  1.66938893569357
 1  18.34877095439544 -0.34116259485949 -0.02350703540354
 1  17.62958568396840  0.80066302940294 -0.76476378097810
 1  18.32262396829683  2.79265799349935  0.65908240324032
 1  18.42335534973498  1.31353018981898  2.01370262586259
 1  20.36329455925593  0.65734646834683  0.18502143924392
 1  19.66143884108411  3.18300043214321 -1.28407338153815
 1  21.03843236043604  2.10727633143314 -1.63960928432843
 1  19.37687592339234  1.78912894949495 -1.88038321952195
 1  21.13361837493749  1.91147069736974  2.20527445524553
 1  21.84089793149315  2.60517863446345  0.81954385418542
 1  20.45266292899290  3.38652832333233  1.39892249664967
 1 -6.99071285378538  1.73855812781278  0.36091934873487
 1 -7.52275364196420 -0.19771464706471 -0.14907822802280

