%nproc=4
%Mem=2GB
# td=(NStates=1) B3LYP/SVP 

TD

0 1
 6 -5.10015286578658 -1.92485229122912  0.42963158825883
 6 -4.62402856105611  2.77015724472447  1.34008068416842
 6 -9.24965420902090  3.31140733703370 -0.14116873307331
 6 -9.79976182728273 -1.36841843644364 -1.01026717211721
 7 -5.21987873587359  0.47858431953195  0.78038549654966
 6 -4.57584568216822 -0.80187917151715  0.76481256685669
 6 -3.09084083778378 -0.58038852235224  1.36258950835084
 6 -3.10974512691269  0.84713983158316  1.93057756315632
 6 -4.42159711781178  1.37144418981898  1.34760667206721
 6 -3.05243174107411  0.82529083008301  3.52814267226723
 6 -2.04538988178818 -0.82854786888689  0.20684729242924
 6 -0.56651503960396 -1.05071392619262  0.66723448854885
 6  0.32941744764476 -1.24274119141914 -0.47749360656066
 8  0.00953068896890 -1.48904859475948 -1.58854130873087
 8  1.57638271347135 -0.98427484598460 -0.15364035603560
 7 -6.93902708370837  2.78141288318832  0.51854244824482
 6 -5.87073125412541  3.41787852035204  1.05805993139314
 6 -6.15422669516952  4.82885096889689  1.15263681538154
 6 -7.44900796529653  4.90442176517652  0.65027025712571
 6 -7.94941039143914  3.61868046694669  0.19369070537054
 6 -5.21908106450645  5.84247803020302  1.69293529742974
 6 -8.16538312651265  6.16775649334933  0.62089714401440
 6 -8.93098062086209  6.61827111771177 -0.43498211451145
 7 -9.07209060836084  0.97950642524252 -0.67482445784578
 6 -9.77038881628163  2.13067636933693 -0.64404321502150
 6 -11.13895013301330  1.99091273077308 -1.08824289558956
 6 -11.38450389088909  0.64862890429043 -1.34891495309531
 6 -10.10646735513551  0.05182813341334 -1.14354783518352
 6 -12.08388258545855  3.13826639573957 -1.11709613871387
 6 -12.55461555895589 -0.08393749214921 -2.00988322332233
 6 -12.51745621522152 -0.07630227662766 -3.45911309570957
 7 -7.52881600730073 -1.24179849434944 -0.33408975407541
 6 -8.50994698019802 -2.02281889608961 -0.76336326472647
 6 -8.19254286148615 -3.43211781328133 -0.69486322482248
 6 -6.88055008320832 -3.39689557385739 -0.23005511081108
 6 -6.44021256085609 -2.04323612271227 -0.08975682158216
 6 -8.96650063516352 -4.56166956695670 -1.18134064086409
 6 -5.80292641414141 -4.33709893679368  0.02784545414541
 8 -5.76481833793379 -5.55160166886689  0.05972289268927
 6 -4.53053865846585 -3.31586869956996  0.45908115771577
 6 -4.02250466526653 -3.85091878707871  1.81557344264426
 8 -4.31361397309731 -3.47460841674167  2.94124458845885
 8 -3.17972048774878 -4.88187846914692  1.62611835483548
 6 -2.59879340964096 -5.49283018831883  2.82673914421442
 6  2.65671571497150 -1.22336102670267 -1.15454966026603
 6  3.97474158395840 -0.96504112751275 -0.44861147434743
 6  4.94990729092909 -0.10138109050905 -0.95894129872987
 6  4.64501501170117  0.73195703740374 -2.28678121712171
 6  6.20471418351835  0.22984561286129 -0.23280474357436
 6  7.44948917611761 -0.37480681378138 -0.91146850025003
 6  8.76892036903690 -0.22933814071407 -0.10164504440444
 6  10.06243809850985 -0.78383286588659 -0.74782576247625
 6  10.10789458285829 -2.27504267006701 -0.94611872657266
 6  11.32008268286829 -0.30898056865687  0.07345487748775
 6  12.68091667626763 -0.76611508990899 -0.42268014521452
 6  13.85814222142214 -0.07008971207121  0.34695105770577
 6  15.20652247334733 -0.25268830463046 -0.21580541634163
 6  15.65170249784978 -1.73250741264126 -0.17152688818882
 6  16.26258885608561  0.68641955315532  0.42444570897090
 6  17.58844568326833  0.76349208310831 -0.25040954875488
 6  18.47382723372337  1.91314993399340  0.28075676857686
 6  20.07108700460046  1.86824244954495 -0.16808404800480
 6  20.07984891439144  2.40092952415242 -1.63681009000900
 6  20.99035950155016  2.73533726982698  0.71108750945095
 1 -4.05605377297730  3.54126051035104  2.05756799509951
 1 -9.81963954895490  4.17429686618662 -0.36031470537054
 1 -10.59797813771377 -2.02873888388839 -1.40376026992699
 1 -2.85651170267027 -1.44775513961396  2.13827562226223
 1 -2.22319288688869  1.40337028812881  1.45388488688869
 1 -2.06526404230423  0.46218364006401  4.03672039733973
 1 -3.20764406470647  1.82588723232323  3.76958605980598
 1 -3.87628820822082  0.27888859115912  3.98929777547755
 1 -2.29186864076408 -1.64723860156016 -0.29233608990899
 1 -2.33338927752775  0.02314978927893 -0.60530919161916
 1 -0.35921024442444 -0.05696157025703  1.40963699419942
 1 -0.65362837573757 -1.90381956195620  1.45262238123812
 1 -4.09766442384238  5.95589372697270  1.16432957095710
 1 -5.54308552735274  6.86466158485849  1.50886648364836
 1 -4.90180195719572  5.79608945834584  2.77076813741374
 1 -8.05399549844985  6.94506153985399  1.77558886518652
 1 -8.88234362716272  5.91086907240724 -1.36128552455246
 1 -9.39368364756476  7.61413669896990 -0.32481218531853
 1 -11.85301984938494  3.85796629512951 -0.28933133173317
 1 -11.76320524282428  3.60705567026703 -2.15885310281028
 1 -13.11294869486949  2.89580519871987 -1.27517056395640
 1 -12.64357918381838 -1.09994012031203 -1.47988256205621
 1 -13.44023476577658  0.38232789418942 -1.70594427172717
 1 -12.58024253925393  1.04496151125113 -3.92211105450545
 1 -11.67394360206021 -0.70488988538854 -3.94382517921792
 1 -13.52784085728573 -0.65626298439844 -3.94762862156216
 1 -10.08771631843184 -4.58149024092409 -0.88707451135113
 1 -9.27246915711571 -4.30744775827583 -2.28697921852185
 1 -8.26681838733873 -5.41679245914591 -1.20311496499650
 1 -3.78944467176718 -3.78983633493349 -0.27801086088609
 1 -2.04496136413641 -6.48869547324733  2.41364706870687
 1 -1.95632220392039 -4.78930866986699  3.18083253355335
 1 -3.26308736413641 -5.76724372437244  3.51533305350535
 1  2.42411420322032 -2.29285602670267 -1.53698083138314
 1  2.38482032493249 -0.57913935193519 -2.09398701800180
 1  4.08230966686669 -1.44780285078508  0.39084812921292
 1  4.64328959345935  1.94457215501550 -2.11635422282228
 1  5.56718368216822  0.49138509370937 -3.06147921502150
 1  3.66402288748875  0.30147295319532 -2.82237759465947
 1  6.36352644974497  1.23012615651565  0.09499429902990
 1  6.00189801560156 -0.06367195249525  0.96049574367437
 1  7.23396404950495 -1.42472651805180 -1.22012685878588
 1  7.68258800990099  0.02006751135113 -1.89717857555756
 1  8.85687012861286  0.70187803930393  0.17282854135413
 1  8.72297502740274 -0.87235432243224  0.91563441634163
 1  9.99572643794379 -0.46047584928493 -1.75416613951395
 1  9.24758194579458 -2.61726038883888 -1.52233145864586
 1  10.98892575357536 -2.80160183658366 -1.37734347994799
 1  10.22682112391239 -2.81121299879988 -0.04121764326433
 1  11.36121031113111  0.65513313711371  0.39409287188719
 1  11.31274884428443 -0.67366585208521  1.08040856255626
 1  12.74363087108711 -1.89854373337334 -0.44369781258126
 1  12.65600591719172 -0.51216848974898 -1.75002832133213
 1  13.47299833533353  1.00736113191319  0.41727690179018
 1  13.79610444594459 -0.36742969696970  1.28656823302330
 1  15.23961545894590  0.23288648844884 -1.39884653445345
 1  14.97058245324533 -2.28568685248525 -0.75499952045205
 1  16.57092382868287 -1.92621846134613 -0.57212860546055
 1  15.52740545814582 -2.16647626622662  0.82247494879488
 1  15.78513570517052  1.63911700040004  0.29183302690269
 1  16.51851817451745  0.59871368046805  1.59921191799180
 1  17.91643772107211 -0.23480195879588 -0.11180586528653
 1  17.52729545494550  0.83731669476948 -1.44238154275428
 1  17.99087079297930  2.92132085978598 -0.01483498849885
 1  18.48284129832983  1.79368820562056  1.54465572117212
 1  20.46980521032103  0.82435316901690 -0.07908497139714
 1  19.69253195039504  3.47692982508251 -1.76950192439244
 1  21.19566808400840  2.26116171997200 -2.06865218861886
 1  19.40339857565757  1.70814085068507 -2.23403858505851
 1  20.99376438953895  2.28821837213721  1.72822675047505
 1  22.06238007970797  2.59557767436744  0.53691559135914
 1  20.82834049674968  3.76224589508951  0.75918852325232
 1 -6.97518130063006  1.82034630663066  0.45793905070507
 1 -7.52444381098110 -0.28600347594759 -0.36296961716172

