%nproc=4
%Mem=2GB
# td=(NStates=1) B3LYP/SVP 

TD

0 1
 6 -5.10223307380738 -1.97278708470847  0.55469409450945
 6 -4.68794495269527  2.75575580458046  1.52201887798780
 6 -9.14983422702270  3.35861205750575 -0.19432404860486
 6 -9.76117796889689 -1.42574416901690 -0.86867301270127
 7 -5.04404115211521  0.44543100420042  0.96903436143614
 6 -4.48141623922392 -0.79617860146015  0.94532061766177
 6 -2.93599535323532 -0.64382486598660  1.28478172757276
 6 -2.96653080548055  0.78522363996400  1.94184869026903
 6 -4.34861982008201  1.37606465186519  1.37644955635564
 6 -3.01537803570357  0.80570887188719  3.56803666166617
 6 -2.19917526032603 -0.72840785488549  0.13610021772177
 6 -0.62712110021002 -0.63766262106211  0.38563632873287
 6  0.34793929982998 -0.79198611591159 -0.83602946014601
 8  0.00693042894289 -1.07339702960296 -1.94789724432443
 8  1.68126320152015 -0.75723214171417 -0.41976696869687
 7 -6.91315449644964  2.77960270217022  0.49106970097010
 6 -5.88491267226723  3.38580531303130  1.16308043344334
 6 -6.12150342284228  4.72209029282928  1.20822237393739
 6 -7.38379144364437  5.02195351835184  0.64083931403140
 6 -7.88131358175818  3.70770936983698  0.25252658895890
 6 -5.05094425082508  5.78811259365937  1.55701170507051
 6 -8.10763735193519  6.32720243794379  0.44387944224422
 6 -8.89861738453845  6.60066935753575 -0.56918553485349
 7 -9.26413981328133  0.82549102370237 -0.60549752515252
 6 -9.77662944034403  2.08613191489149 -0.64830364106411
 6 -11.21066730473047  1.92393603310331 -1.05296936823682
 6 -11.37220266076608  0.61249529092909 -1.36717677927793
 6 -10.12429913831383 -0.06783383278328 -0.90000348074808
 6 -12.18265246244624  3.12566513561356 -1.11205563466347
 6 -12.52126222362236 -0.09899899829983 -1.85418765376538
 6 -12.47675214481448 -0.59628427482748 -3.43730091449145
 7 -7.45401852755275 -1.28710302480248 -0.20363670877088
 6 -8.58258424392439 -2.04533114731473 -0.55075200360036
 6 -8.14078768596860 -3.41340594209421 -0.53530726922692
 6 -6.83512554075407 -3.51952783708371 -0.18781088638864
 6 -6.40401894149415 -2.09729152825283  0.05086724082408
 6 -9.09796378147815 -4.51482488248825 -0.97048955575558
 6 -5.74533065456546 -4.41842706960696  0.22937560716072
 8 -5.74170602670267 -5.60118662736274  0.27072399279928
 6 -4.55439104370437 -3.35715282798280  0.59873512311231
 6 -3.98844125892589 -3.85636933213321  1.80349223452345
 8 -4.13044565626563 -3.47486844274427  2.93603406740674
 8 -3.11157367306731 -4.93630391169117  1.58631437443744
 6 -2.61264479477948 -5.57961886718672  2.69668613891389
 6  2.65581562496250 -0.85517420802080 -1.62203640894089
 6  3.93722783258326 -0.67076169956996 -0.91201781498150
 6  4.92987528772877  0.01929097669767 -1.45155055965597
 6  4.97418792899290  0.86821066276628 -2.70764330333033
 6  6.19055276737674  0.20126275457546 -0.55345680878088
 6  7.48017224442444 -0.55141447454745 -1.17041439483948
 6  8.75063854085409 -0.30372557945795 -0.26312119201920
 6  10.11640349504951 -0.97571205380538 -0.68142912281228
 6  9.94572836623662 -2.47195236103610 -0.85005912061206
 6  11.24371504610461 -0.45558522912291  0.20131766376638
 6  12.61209979457946 -0.71595007340734 -0.36475435263526
 6  13.81876828402840 -0.18041074417442  0.47546390899090
 6  15.16936875797580 -0.26243927972797 -0.31828566436644
 6  15.59707703530353 -1.67659182108211 -0.60317005250525
 6  16.22186478367837  0.53620453165317  0.43176644104410
 6  17.55752259095910  0.77936367026703 -0.14525903370337
 6  18.45829568056806  1.67036565556556  0.66045473837384
 6  19.86537643354335  1.83687931323132  0.11232399279928
 6  19.97072800230023  2.48639807100710 -1.27062347134713
 6  20.68908937453746  2.66499023512351  1.17350375107511
 1 -3.93866203380338  3.37051343564356  2.27974021232123
 1 -9.69749733473347  4.33098253475347 -0.51280995489549
 1 -10.73501184108411 -2.12538854885489 -1.09178907280728
 1 -2.52025807730773 -1.35026539063906  2.09873166786679
 1 -2.17884845244524  1.35090504160416  1.63769326772677
 1 -2.14289180508051  0.18075549724973  3.97585431073107
 1 -3.10120342064206  1.84372901650165  4.25872497369737
 1 -3.89820039943994  0.50034073637364  3.99398824452445
 1 -2.28774822872287 -1.68460233793379 -0.30551740804080
 1 -2.59287522612261  0.06945441974197 -0.57790645134513
 1 -0.28447277067707  0.36160028592859  0.95551158165817
 1 -0.27809082198220 -1.36604578457846  1.20289740874087
 1 -4.43260791819182  5.78167630523052  0.72167530553055
 1 -5.35987720652065  6.80241536023602  1.83173877087709
 1 -4.49742151915192  5.55768561796180  2.55421648224823
 1 -7.93709380828083  7.08927596129613  1.28649995629563
 1 -8.90501589438944  6.14045203070307 -1.56252564856486
 1 -9.23219749894990  7.65617090239024 -0.89960966506651
 1 -12.46129067646765  3.27468796729673  0.11854945634563
 1 -11.84521344364437  4.07654261896190 -1.68755597309731
 1 -13.17710511051105  2.79219483768377 -1.61326437333733
 1 -12.86139096499650 -0.94784491079108 -1.42134670847085
 1 -13.38484922722272  0.54483414481448 -1.90276395369537
 1 -12.55162967796780  0.30050706580658 -3.96409525292529
 1 -11.42756896459646 -1.20505990239024 -3.64270506720672
 1 -13.48644671787179 -1.11513887198720 -3.70839469816982
 1 -10.11311885868587 -4.19242133403340 -0.46282208610861
 1 -9.28723063326333 -4.38965597909791 -2.11141166176618
 1 -8.71288299379938 -5.62171295119512 -0.58572322582258
 1 -3.87132285958596 -3.51954930623062 -0.15302836263626
 1 -1.74268113611361 -6.22433903760376  2.27312301630163
 1 -2.08825539723972 -4.85975571457146  3.43555800610061
 1 -3.47306836223622 -6.15097209720972  3.14550607080708
 1  2.40267205900590 -1.86384312541254 -1.89545667896790
 1  2.14020586348635  0.05039360136014 -2.31920954025402
 1  4.28289972587259 -1.20463853435343  0.13784282868287
 1  5.17614287878788  1.89116681448145 -2.28044063146315
 1  5.65138210201020  0.55070102530253 -3.36337940504050
 1  3.97951443664366  0.66028883478348 -3.31982733963396
 1  6.24549464656466  1.18856200010001 -0.19534473487349
 1  5.82537036283628 -0.39314489978998  0.34181387548755
 1  7.10622127522752 -1.61912595799580 -1.19262410851085
 1  7.42786253735374  0.00987649224922 -2.25644450215021
 1  8.83975841744174  0.78544639613961  0.03028428692869
 1  8.38621135103510 -0.69708679567957  0.74821767466747
 1  10.29901676697670 -0.52143194489449 -1.59655037793779
 1  8.99441662926293 -2.79470813361336 -1.14490371587159
 1  10.77892475347535 -2.94215589198920 -1.40694644024402
 1  10.15779422122212 -3.04967684518452  0.15259173767377
 1  11.15123931403140  0.78762638643864  0.28833229582958
 1  11.18550612001200 -0.82653113861386  1.19721024272427
 1  12.75243175117512 -1.81997587658766 -0.27535097789779
 1  12.74787510411041 -0.12855012791279 -1.25947926642664
 1  13.60157119261926  0.89640003580358  0.95477065116512
 1  14.00749558505851 -0.96488944294429  1.37387696389639
 1  14.91101259865987  0.22551575137514 -1.32749939973997
 1  14.95155055005501 -2.18406669046905 -1.41309533003300
 1  16.54766150245025 -1.93101894139414 -1.16447784038404
 1  15.59373209080908 -2.39549916851685  0.24900760206021
 1  15.83250044164416  1.43469655835584  0.82775661926193
 1  16.27510383308331 -0.10190638153815  1.47418941574157
 1  18.10273635093509 -0.12749122772277 -0.05999068376838
 1  17.36285901130113  0.85572853595359 -1.31087839243924
 1  17.86007771367137  2.70265899359936  0.66157265226523
 1  18.57675068926893  1.67322615941594  1.95752700830083
 1  20.33125135493550  0.93147388108811 -0.10264732763276
 1  19.47555025222523  3.42426455855586 -1.22514748894889
 1  20.99778829602960  2.54044964876488 -1.55137046044604
 1  19.51575981178118  1.87470750735074 -2.00660584178418
 1  20.57702271537154  2.12486203650365  2.12065599339934
 1  21.74514835653565  2.69992810941094  0.72670457025703
 1  20.13337099979998  3.77080675117512  1.23140574497450
 1 -7.05039882238224  1.71559583158316  0.21504476127613
 1 -7.42701406800680 -0.24765964156416 -0.09494281448145

