%nproc=4
%Mem=2GB
# td=(NStates=1) B3LYP/SVP 

TD

0 1
 6 -5.07162001250125 -1.94846465246525  0.46214483958396
 6 -4.63795995419542  2.79279950895090  1.22254893099310
 6 -9.40212945654566  3.31235743204320 -0.18759337553755
 6 -9.74241609270927 -1.49012060666067 -0.92434858025803
 7 -5.06856360436044  0.50939740084008  0.74450190819082
 6 -4.44753285088509 -0.77595657925793  0.79346543214321
 6 -3.07756951065107 -0.55793627712771  1.27828107750775
 6 -3.01907606000600  0.85520063766377  1.78156266166617
 6 -4.31258621672167  1.47680472587259  1.23678558995900
 6 -3.02391888978898  0.87368566956696  3.29172903090309
 6 -2.02533787658766 -0.86033104720472  0.13871047874787
 6 -0.51860024812481 -0.68369722452245  0.53017078217822
 6  0.32713721962196 -0.85609252655266 -0.63153901110111
 8  0.14140387628763 -1.43494318421842 -1.71705416001600
 8  1.57577265246525 -0.51864828332833 -0.31526651865187
 7 -7.00590377137714  2.79187392929293  0.56226682068207
 6 -5.89740392139214  3.43803053555356  0.95497962336234
 6 -6.21110238273827  4.90015809960996  0.85908746044604
 6 -7.50690375487549  5.03376469946995  0.47939316941694
 6 -8.07253270367037  3.65584418331833  0.27883922022202
 6 -5.20926008240824  5.83183696609661  1.39321532543254
 6 -8.13534012221222  6.26317603530353  0.16906196049605
 6 -9.29595711851185  6.55738502910291 -0.61780039633963
 7 -9.22836623592359  0.86263473807381 -0.30757773317332
 6 -9.89718149554955  2.03835713741374 -0.40281909260926
 6 -11.27112335033503  1.74641828132813 -0.86269034033403
 6 -11.45569100960096  0.48405244664466 -1.10544060566057
 6 -10.05002171057106 -0.08299534893489 -0.78827230763076
 6 -12.39394359155916  2.73840640974097 -0.99153358245825
 6 -12.68796889428943 -0.28323742214221 -1.54527676267627
 6 -12.67920238983898 -0.54953960036004 -3.03054023842384
 7 -7.44400752645265 -1.28433274777478 -0.13185953105311
 6 -8.52909889538954 -2.07518413261326 -0.54213114151415
 6 -8.19379298649865 -3.47796239773977 -0.53328706720672
 6 -6.82117414561456 -3.44700058435844 -0.15831793709371
 6 -6.45237377697770 -2.10490228932893 -0.07162500840084
 6 -8.98973295839584 -4.74012741274127 -0.86067857465747
 6 -5.68627474897490 -4.31038626552655 -0.05784311471147
 8 -5.56425828192819 -5.49640614931493 -0.10194327392739
 6 -4.56815241984198 -3.38156526922692  0.49717496709671
 6 -3.95092750755075 -3.83961765696570  1.79823170847085
 8 -4.23947655935594 -3.37942889878988  2.93434389838984
 8 -3.12712522822282 -4.79196947824783  1.54190993399340
 6 -2.52089561986199 -5.47398830413041  2.66891336163616
 6  2.66440648404840 -0.73422211281128 -1.31414561986199
 6  3.99457356715672 -0.39404402780278 -0.68048466166617
 6  4.97787008720872  0.37423647124712 -1.25321072567257
 6  4.92289279947995  1.18676251795180 -2.51134367336734
 6  6.32557626972697  0.48398102640264 -0.44935639873987
 6  7.45078930613061 -0.24138347144714 -1.13179053245325
 6  8.80961443844384 -0.11809701660166 -0.25814069396940
 6  10.02085394009401 -0.73055753835384 -0.90888186808681
 6  10.01330512391239 -2.29809497529753 -1.30161427612761
 6  11.29021969656966 -0.40438010861086 -0.09050151815182
 6  12.62049063366337 -0.72707118551855 -0.70845872307231
 6  13.74911131833183 -0.13085578867887  0.13422978557856
 6  15.22044386548655 -0.32157519331933 -0.43058689448945
 6  15.64398172577258 -1.78640280218022 -0.46508624412441
 6  16.25480807800780  0.45215612681268  0.54366763116312
 6  17.65479231793179  0.40200593449345 -0.01434594239424
 6  18.62266211721172  1.38275689468947  0.80495918881888
 6  20.02447234313431  1.53946957225723  0.35689845024502
 6  20.11786271577158  2.36945637683768 -0.97762417141714
 6  20.93351381698170  2.13484722082208  1.41019742044204
 1 -3.79086725432543  3.47958434273427  1.65943818211821
 1 -10.04918250325033  4.10378981548155 -0.40376905080508
 1 -10.42403074297430 -2.20596660666067 -1.10649054295430
 1 -2.96913296479648 -1.36591695579558  2.19222101680168
 1 -2.08184875247525  1.53565351645164  1.46532603100310
 1 -2.13593110901090  0.12920034173417  3.61952867816782
 1 -2.98966226652665  1.99336397999800  3.73572267346735
 1 -3.93582416181618  0.38483918621862  3.75313415911591
 1 -2.12795224912491 -1.61260513821382 -0.43815067136714
 1 -2.31278721732173 -0.14708723442344 -0.61107976867687
 1 -0.42458678207821  0.25880000590059  1.01973800430043
 1 -0.37984099699970 -1.42661184118412  1.23954107310731
 1 -4.43244790219022  6.12227036463646  0.65881901990199
 1 -5.85945716451645  6.73320843954395  1.84128972597260
 1 -4.54524630163016  5.51260110951095  2.33960502110211
 1 -7.53027312621262  7.22362939663966  0.62813411971197
 1 -10.00584597739774  5.73233121862186 -1.15292468846885
 1 -9.60647492669267  7.64779006430643 -0.73395309940994
 1 -12.26061060846085  3.31368186668667 -0.09123152175218
 1 -12.61628055035504  3.51814677937794 -1.96419363686369
 1 -13.25523292329233  2.08731434963496 -1.18545159205921
 1 -12.69715454135414 -1.16933706000600 -0.89685425922592
 1 -13.61621236353635  0.11693135453545 -1.10153383068307
 1 -12.36445096009601  0.31043805890589 -3.60088893229323
 1 -11.80002621032103 -1.10038943534353 -3.54523532023202
 1 -13.52034010721072 -1.14225158325833 -3.34264812351235
 1 -9.70570811761176 -5.15405749764977  0.20622481858186
 1 -9.64414632483248 -4.52614962846285 -1.72646316691669
 1 -8.25579728522852 -5.42440322022202 -1.17850250375037
 1 -3.76203193049305 -3.43664101540154 -0.23811687148715
 1 -1.91274814281428 -6.32065866956696  2.17036274027403
 1 -1.85800237193719 -4.77085682468247  3.21637608790879
 1 -3.24842589798980 -5.89394639463946  3.33065458565857
 1  2.67722951475147 -1.78755549664966 -1.52622975627563
 1  2.33287513041304 -0.24448588658866 -2.29700732003200
 1  4.08731016691669 -0.70115818631863  0.35485452985299
 1  5.46439170367037  2.22403010081008 -2.42120470787079
 1  5.32018898269827  0.50168612381238 -3.39815288238824
 1  3.82402888808881  1.45303810971097 -2.66955231213121
 1  6.54759485658566  1.64585772967297 -0.24247944834483
 1  6.16623444924492  0.06847126182618  0.46589628372837
 1  7.25187584068407 -1.35423946934694 -1.18669351545155
 1  7.71895164626463  0.26926243084308 -2.21258011571157
 1  8.86796123772377  1.12470032153215 -0.05270401190119
 1  8.56840957085709 -0.65111219821982  0.74862771567157
 1  10.10984785008501 -0.10691049274927 -1.77476819971997
 1  9.30927811541154 -2.59382804560456 -2.22561178667867
 1  10.95631249224922 -2.56451812821282 -1.83753949954995
 1  9.71020946274627 -2.89801167866787 -0.41387490899090
 1  11.21123531363136  0.64037166096610  0.46058952155216
 1  11.43641121052105 -0.85941442694269  0.85973649534953
 1  12.85037154515451 -1.64639851885189 -0.70309375217522
 1  12.59137945454545 -0.42257953085309 -1.89485280378038
 1  13.39299033453345  0.89354975077508  0.27711288538854
 1  13.73382821832183 -0.45562851685169  1.24001357755776
 1  15.48852034943494  0.17596079587959 -1.43045969576958
 1  15.14481987698770 -2.33386166996700 -1.24435845634563
 1  16.73323005930593 -2.02350819031903 -0.86628802140214
 1  15.42846556415642 -2.42683230183018  0.44344704600460
 1  16.15709290089009  1.58348143684368  0.88132197579758
 1  16.33570989368937 -0.11645783668367  1.45430742754275
 1  18.12981905920592 -0.72004048264826 -0.10226491119112
 1  17.77123984938494  0.84822778587859 -0.89486679127913
 1  18.27355906180618  2.44213294099410  0.70181667666767
 1  18.39788280248025  0.94284312111211  1.78121937753775
 1  20.43337156695670  0.47041777547755  0.17977091419142
 1  19.91955465266527  3.51338347044704 -0.67041201540154
 1  21.26929544674467  2.40895649944995 -1.55926124952495
 1  19.29914815061506  1.82353238983898 -1.72380756195620
 1  21.06948196129613  1.46913646394639  2.31237516531653
 1  21.85485932763276  2.42121023762376  0.88125002480248
 1  20.76122378507851  3.18534820532053  1.82944554895490
 1 -7.21732551505151  1.78611288328833  0.66759001580158
 1 -7.67130849744975 -0.25228010361036 -0.03085640584058

