%nproc=4
%Mem=2GB
# td=(NStates=1) B3LYP/SVP 

TD

0 1
 6 -5.07251010151015 -1.92666247224722  0.46547517261726
 6 -4.78883504170417  2.78281851085109  1.35530220632063
 6 -9.26778602220222  3.23687988428843 -0.49901451765177
 6 -9.87661951305130 -1.52706430103010 -0.95313145854585
 7 -5.21849859785979  0.43813027412741  0.82960041804180
 6 -4.47998609620962 -0.77118610221022  0.94207029262926
 6 -3.15124687838784 -0.50449093259326  1.34931818121812
 6 -3.18086223862386  0.94740985858586  1.98973347874787
 6 -4.49154411251125  1.47848489388939  1.41802371377138
 6 -3.02799929782978  0.89838813981398  3.50444030203020
 6 -2.09359470227023 -0.66725173927393  0.23492009970997
 6 -0.56944533263326 -0.72979183398340  0.69020678577858
 6  0.42858736463646 -0.94979189648965 -0.57294315151515
 8  0.08091782768277 -1.47515720562056 -1.62695515011501
 8  1.64451952715272 -0.40987740624062 -0.26714170617062
 7 -6.95809899089909  2.71134587648765  0.33561415541554
 6 -6.03068724972497  3.44533126562656  0.99421354675468
 6 -6.34699597209721  4.77465554935494  1.19837138883888
 6 -7.63697676217622  4.97580890389039  0.48382361246125
 6 -8.05592104250425  3.60034863376338  0.08783011931193
 6 -5.47726688308831  5.88011179357936  1.64576057995800
 6 -8.25480206840684  6.13508322602260  0.34394944924492
 6 -9.14345186798680  6.51811110171017 -0.65040365666567
 7 -9.19096249554956  0.84226270087009 -0.61545852125213
 6 -9.88850062746275  1.95082838453845 -0.59665847654765
 6 -11.32333857185719  1.89656329582958 -1.01549562086209
 6 -11.46917235773577  0.55060910231023 -1.15486554815482
 6 -10.13892060046005 -0.10060711011101 -0.86686016641664
 6 -12.25815001220122  3.01442401150115 -1.15186961606161
 6 -12.75100519791979 -0.24472357075708 -1.61735397039704
 6 -12.79326379597960 -0.32427707410741 -3.18468565296530
 7 -7.52847597329733 -1.32341665616562 -0.24293063816382
 6 -8.64772075757576 -2.16170278447845 -0.51970889928993
 6 -8.18766237343734 -3.48007260876088 -0.52266600510051
 6 -6.81957398559856 -3.44451033533353 -0.19656176147615
 6 -6.37383592319232 -2.10589238833883 -0.02373021892189
 6 -9.06511049614961 -4.68433183318332 -0.95697820462046
 6 -5.60756687818782 -4.38896412331233  0.07288995859586
 8 -5.50185204130413 -5.57396390509051 -0.16487956755676
 6 -4.44543014761476 -3.32294940764076  0.40140539013901
 6 -3.80530294509451 -3.71270496569657  1.72413429872987
 8 -4.11610422212221 -3.24927588348835  2.84329479347935
 8 -2.99634214991499 -4.74313459475948  1.62062780578058
 6 -2.34664819511951 -5.29481038633863  2.73797026732673
 6  2.67288733213321 -0.72396108670867 -1.29219342464246
 6  4.00686479627963 -0.58386300970097 -0.62562917611761
 6  4.95664796499650  0.18995804340434 -0.93836924152415
 6  4.99419993019302  1.02549639133913 -2.25615815481548
 6  6.25895960806081  0.24615724402440 -0.30089155225523
 6  7.40846507370737 -0.35314464756476 -1.05175252865287
 6  8.78044152115212 -0.31731693859386 -0.19353423332333
 6  10.08433028772877 -0.72315679827983 -1.00304128402840
 6  10.00170396379638 -2.30462562836284 -1.45201931663166
 6  11.26955763036304 -0.50489015961596 -0.09288175617562
 6  12.70751933653365 -0.67324580298030 -0.74002187938794
 6  13.89577598479848 -0.04346704980498  0.19859622222222
 6  15.29636145724572 -0.39612264806481 -0.33799763556356
 6  15.61523885148515 -1.83799796169617 -0.67469720522052
 6  16.33197579477948  0.32716362756276  0.57336060046005
 6  17.71891873057305  0.47503323722372 -0.09421392919292
 6  18.66406625762576  1.46768538753875  0.71519021192119
 6  20.10744063996400  1.60946657195720  0.19111187158716
 6  20.19464039353936  2.32654208540854 -1.12822923192319
 6  20.96554702030203  2.36580031613161  1.26254265496550
 1 -4.10693886148615  3.43050943524353  2.02074431273127
 1 -10.14325191019102  3.96446588308831 -0.65579425332533
 1 -10.61832017191719 -2.31630764076408 -1.24989488338834
 1 -2.82532858435844 -1.15855621972197  2.10800259495950
 1 -2.27537810541054  1.85857580868087  1.73314281268127
 1 -2.06696421232123  0.63811123282328  3.77903462876288
 1 -3.11420472077208  1.93484812841284  3.96681578277828
 1 -3.89009958935894  0.17323802610261  3.79981882758276
 1 -2.21876133003300 -1.64408828652865 -0.50903776007601
 1 -2.16177211581158  0.19449692399240 -0.55097375807581
 1 -0.23458778217822  0.16921104700470  1.00239627012701
 1 -0.44459747264726 -1.67496667666767  1.40144726372637
 1 -4.81334599199920  6.04347248484849  0.65719885788579
 1 -6.07381860066007  6.74168928762876  1.99893549054905
 1 -4.67570934793479  5.51678152755276  2.67131819241924
 1 -8.21968206710671  6.97166420012001  1.18937024332433
 1 -9.14067946074607  5.72547053255325 -1.49422881888189
 1 -9.80851513071307  7.53530881618162 -0.50953065716572
 1 -12.41142568996900  3.55758625712571 -0.18264066266627
 1 -11.94481340364037  3.68226319101910 -1.97396461396140
 1 -13.31725912591259  2.57804342254225 -1.05726877377738
 1 -12.80707553345334 -1.28206833313331 -1.21110568436844
 1 -13.51790253255326  0.35509517091709 -1.37344102140214
 1 -12.92382689768977  0.69339635473547 -3.50075891929193
 1 -11.76251245894590 -0.87474687108711 -3.46839763646365
 1 -13.71223929712971 -0.79112647074707 -3.58214207290729
 1 -9.92974052085209 -4.86141823372337 -0.22801860576058
 1 -9.54521643184318 -4.72680969446945 -1.84720524112411
 1 -8.51510321582158 -5.74084486438644 -0.99048370187019
 1 -3.90646637393739 -3.67541489278928 -0.37090014981498
 1 -1.91091795979598 -6.31210781448145  2.40056576057606
 1 -1.42996956865686 -4.42535227422742  3.07983243354335
 1 -3.11643269866987 -5.46462346234623  3.37767928812881
 1  2.64642643444344 -1.73377011811181 -1.74306143944394
 1  2.41218306120612 -0.18730016801680 -2.21229884918492
 1  4.11569300520052 -1.03025109560956  0.30231927632763
 1  5.77912317681768  1.91024872267227 -1.98354094149415
 1  5.27577454125413  0.42132808800880 -3.32549561666167
 1  3.91986847204720  1.40826363226323 -2.50372572947295
 1  6.43040313741374  1.42958610251025 -0.06393159355936
 1  6.23206103190319 -0.24747033233323  0.67074676877688
 1  7.14503515661566 -1.48077212261226 -1.47237208330833
 1  7.68794854595460  0.16731223582358 -1.98468732643264
 1  8.77176161776178  0.69025687718772  0.11030228872887
 1  8.76410914081408 -1.03922100910091  0.76850970387039
 1  10.45210207550755 -0.20486028772877 -2.02861358425843
 1  9.14425161276128 -2.26112477527753 -2.23920314581458
 1  10.84462132313231 -2.62844452085209 -1.85745149074908
 1  9.98231667346735 -2.88573045054506 -0.51929545104510
 1  11.24347853795379  0.53327095089509  0.39087254985499
 1  11.37713528292829 -1.17263574907491  0.84696521822182
 1  12.96276278427843 -1.70689456845685 -1.00224366716672
 1  12.90159047564756 -0.25948322122212 -1.87071038953895
 1  13.75356639213921  1.00183057885789  0.13013818791879
 1  13.87651248674868 -0.41979493349335  1.33723329952995
 1  15.26849834723472  0.16545974577458 -1.27174382418242
 1  14.84486988198820 -2.33561184498450 -1.34439846034603
 1  16.61036777307731 -1.87629346884688 -1.28662005460546
 1  15.71885460306031 -2.27525714431443  0.20556325762576
 1  15.93162035363536  1.34365745444544  0.96288013161316
 1  16.35962228492849 -0.18915510641064  1.45617761456146
 1  18.34307038433844 -0.43918239683968 -0.37276196089609
 1  17.55546827222722  0.93605656875688 -1.04133143774377
 1  18.04469617551755  2.41062979067907  0.88042453745375
 1  19.08238125232523  1.06577541434143  1.70485174077408
 1  20.40698892869287  0.61669240294029  0.14848778587859
 1  19.99470216741674  3.36891902400240 -0.80806578077808
 1  21.17132564976497  2.53741934573457 -1.45153047644764
 1  19.63981221702170  1.67707774437444 -1.90268544974497
 1  21.21414642774278  2.21841139143914  2.28586251405141
 1  22.06621046274627  2.66301441804180  0.98094999479948
 1  20.68085574827483  3.44208387888789  1.20544314871487
 1 -6.99468325082508  1.71020529252925 -0.04262100530053
 1 -7.58209957655766 -0.25690056565657 -0.16093941414141

