%nproc=4
%Mem=2GB
# td=(NStates=1) B3LYP/SVP 

TD

0 1
 6 -5.10034288478848 -1.96028583458346  0.30118874397440
 6 -4.65437159535954  2.67714794379438  1.19370604670467
 6 -9.32490173377338  3.39850604690469 -0.10423503970397
 6 -9.87672952405240 -1.40073166776678 -0.90480662606261
 7 -5.05580232823282  0.38168462956296  0.72802026002600
 6 -4.46766486408641 -0.88720770437044  0.70508659425943
 6 -3.02969472317232 -0.74785526902690  1.18952220162016
 6 -2.98003215561556  0.77362247984798  1.73365787118712
 6 -4.21110606870687  1.30550759615962  1.19361127252725
 6 -2.74831132903290  0.95340364136414  3.20151000900090
 6 -2.00426576937694 -1.05421043514351 -0.06794018631863
 6 -0.56726511461146 -1.04299315411541  0.43746151125112
 6  0.45893039893989 -1.10307722502250 -0.63991984918492
 8  0.20755049094910 -1.45956564646465 -1.77985043964396
 8  1.67101217641764 -0.84151056955696 -0.25010000200020
 7 -7.10858403940394  2.79099384128413  0.55044563856386
 6 -5.80152433343334  3.36616334883488  0.93952807820782
 6 -6.06469774227423  4.70648873267327  0.97065861756176
 6 -7.37143020752075  5.04023534653465  0.44582981308131
 6 -8.03385883628363  3.76354495339534  0.34305564186419
 6 -5.07206636303630  5.71760554295429  1.26226223012301
 6 -8.01817840604060  6.32264198189819  0.31198625292529
 6 -8.91153867666767  6.62697198779878 -0.65320393669367
 7 -9.15829922922292  0.96621509610961 -0.39461643704370
 6 -9.92266404380438  2.19792309400940 -0.43334214491449
 6 -11.30864710271027  1.92962660216022 -0.79231330263026
 6 -11.44447988848885  0.63195723712371 -1.02180224182418
 6 -10.09819652805281  0.07782073267327 -0.74737821822182
 6 -12.33360755795580  3.00995356445645 -0.89101353045305
 6 -12.69240933833383 -0.20037913631363 -1.56400863586359
 6 -12.62965743534354 -0.55346999339934 -3.01500868526853
 7 -7.51985511121112 -1.24750906540654 -0.11716806190619
 6 -8.64406039153915 -1.97294390859086 -0.56705363376338
 6 -8.25495910311031 -3.33791839333933 -0.63143688218822
 6 -6.89794182238224 -3.36586247054705 -0.34788689398940
 6 -6.51572011161116 -2.10568236733673 -0.07856570247025
 6 -9.31137512261226 -4.48140154015402 -0.80815332213221
 6 -5.84881100260026 -4.40004523142314  0.05673834343434
 8 -5.83608546464647 -5.61684819351935  0.05361228162816
 6 -4.59449505410541 -3.35505261796180  0.38911416101610
 6 -4.02165458025803 -3.87800149534953  1.66675856115612
 8 -4.46073868556856 -3.55191614751475  2.80249071307131
 8 -3.05476799249925 -4.83113339463946  1.50451619461946
 6 -2.57139066936694 -5.31416232153215  2.68557502780278
 6  2.64244428782878 -1.11994068466847 -1.22429663496350
 6  3.95870998079808 -0.83003762716272 -0.59500611381138
 6  4.93549584978498  0.06031507910791 -1.07819322392239
 6  4.79893040324032  0.90183402510251 -2.34243678267827
 6  6.30971468356836  0.31569419771977 -0.32965442854285
 6  7.49889411661166 -0.22699203230323 -1.04956230963096
 6  8.80712418941894 -0.07904311121112 -0.19826470637064
 6  10.05069692439244 -0.77604208680868 -0.76526750665066
 6  9.95176897029703 -2.26495166096610 -0.84372848754875
 6  11.27584825942594 -0.31741141174117  0.02983051505151
 6  12.62615119971997 -0.60118859725973 -0.60701857905791
 6  13.69455586278628  0.00526782368237  0.23473983658366
 6  15.19064088518852 -0.10466350215022 -0.38379221502150
 6  15.46676400400040 -1.50328449034903 -0.55500523602360
 6  16.28972156935694  0.62288319951995  0.54190745514551
 6  17.74290112881288  0.85312104600460 -0.22897740554055
 6  18.71494134513451  1.52113073207321  0.83624231713171
 6  20.08361825772577  1.67827345264526  0.22103486388639
 6  20.17140807030703  2.47413684488449 -1.20139654865487
 6  21.00362082768277  2.26375011111111  1.21528792949295
 1 -3.58108627622762  3.04488087238724  1.50662290059006
 1 -9.98467605260526  4.37099653615361 -0.23300197409741
 1 -10.64939327922792 -1.95019102910291 -1.43292318621862
 1 -2.85483153465346 -1.36946731083108  1.91842363706371
 1 -2.21700226782678  1.42382233333333  1.02384188258826
 1 -1.79271678757876  0.36465388708871  3.45491221652165
 1 -2.69739303960396  1.87739238283828  3.67398649984999
 1 -3.59135971537154  0.39363006530653  3.55144399009901
 1 -2.29115856975698 -2.07365124282428 -0.55692254855486
 1 -2.29068500710071 -0.26443896959696 -0.74210287098710
 1 -0.22926725012501 -0.17749362346235  0.98366439693969
 1 -0.33759677257726 -1.80768994899490  1.36499361836184
 1 -4.32468712611261  5.84572270987099  0.40324346234624
 1 -5.56793801260126  6.82160727942794  1.17954355135513
 1 -4.83230500750075  5.58818866826683  2.36983804440444
 1 -7.76987708660866  7.15085211891189  1.05335664196420
 1 -9.22737813061306  5.93091107660766 -1.33662305830583
 1 -9.20256453565357  7.70342562786279 -0.61791149524952
 1 -12.17880242764276  3.87156765526553 -0.10247264586459
 1 -12.37574649694970  3.52397736243624 -1.99107632513251
 1 -13.35152255225523  2.49816543474348 -0.85147819471947
 1 -12.91324615051505 -1.09619974627463 -1.06575114891489
 1 -13.39863060536054  0.55130479187919 -1.46611028832883
 1 -12.61124563956396  0.31356837193719 -3.84225306870687
 1 -11.73081928962896 -1.19278867526753 -3.26328712541254
 1 -13.53416148934894 -1.01935929402940 -3.56723058175818
 1 -10.03169071587159 -4.47429952185218 -0.01119692359236
 1 -9.67637954815481 -4.51288830233023 -1.79582010261026
 1 -8.58247995349535 -5.40624140404040 -0.56338099159916
 1 -3.97809353665367 -3.68410576187619 -0.33126618641864
 1 -1.61781864986499 -6.08519512321232  2.44616032003200
 1 -2.19940651235123 -4.68982872187219  3.28418286858686
 1 -3.41048210361036 -5.79974697469747  3.36615813601360
 1  2.41864365616562 -2.21315805690569 -1.51549868316832
 1  2.45261710461046 -0.57329876787679 -2.18194581388139
 1  3.94569600550055 -1.30000807130713  0.28530757515752
 1  5.43476874137414  1.79965766356636 -2.24271685908591
 1  5.09259622342234  0.37328328352835 -3.40578364546455
 1  3.60941742694269  1.14131693759376 -2.58526388328833
 1  6.45152524962496  1.42140528442844 -0.28187338773877
 1  6.34561238703870 -0.06206179147915  0.78624831893189
 1  7.05197585068507 -1.19593363876388 -1.06392123822382
 1  7.86750650175018  0.18302380698070 -2.07484634233423
 1  9.10282472407241  0.99517736923692 -0.17928667016702
 1  8.54781751165117 -0.20656774377438  0.65898875177518
 1  10.18600546584658 -0.36359616131613 -1.76197692059206
 1  8.91683887148715 -2.66492515531553 -1.26763598909891
 1  10.66070293129313 -2.79598127452745 -1.27637338293829
 1  9.78279672147215 -2.40842271977198  0.34312079057906
 1  11.14109829992999  0.79486711051105  0.25763922652265
 1  11.16794436383638 -0.97315580108011  1.08346886858686
 1  12.68551505950595 -1.64227810681068 -0.85594903770377
 1  12.74719503610361  0.01066379347935 -1.60610392889289
 1  13.51688272377238  0.96307670347035  0.35841101520152
 1  13.83113794929493 -0.60219317331733  1.29067864406441
 1  14.93530502790279  0.40563376317632 -1.34725137493749
 1  14.90214560956096 -2.03886217001700 -1.26817083758376
 1  16.56791352765277 -1.76311215071507 -0.83539493209321
 1  15.29882259985999 -1.99109872847285  0.41465416671667
 1  15.93831102270227  1.66385947464747  0.75229907350735
 1  16.28739506220622  0.00905471457146  1.39444144094409
 1  18.24942101940194  0.03144466586659 -0.49914459915992
 1  17.45341806720672  1.64090705380538 -1.10907821242124
 1  18.36437814371437  2.57292602030203  1.39300579557956
 1  18.79959297349735  0.84258309510951  1.81421267686769
 1  20.58815704550455  0.53091382508251  0.14327726482648
 1  19.68135083228323  3.57733986608661 -1.10678565276528
 1  21.14585310251025  2.64792039583958 -1.66078140154015
 1  19.48190642644265  1.96596663326333 -1.98196337753775
 1  21.23135814891489  1.57110666096610  2.26759068686869
 1  21.99752359405941  2.25868398499850  0.65195709550955
 1  20.86985464816482  3.27743741424142  1.65974857925793
 1 -7.09682346484648  1.78623289528953  0.32153541034103
 1 -7.71379274587459 -0.35536041164116 -0.12233555375538

