%nproc=4
%Mem=2GB
# td=(NStates=1) B3LYP/SVP 

TD

0 1
 6 -5.07786063656366 -1.88884869086909  0.33812243734373
 6 -4.79070522872287  2.87580780978098  1.27697437353735
 6 -9.58084732833283  3.22856905320532 -0.16040065626563
 6 -9.84575642674267 -1.58515010961096 -0.82760890629063
 7 -5.25117186518652  0.48814527562756  0.78067552555256
 6 -4.42162025962596 -0.64034301790179  0.68522460806081
 6 -2.98906065976598 -0.35947643114311  1.23391664106411
 6 -3.09358351075108  1.00634575217522  1.77814231963196
 6 -4.43175813391339  1.50535758115812  1.30457236863686
 6 -2.99503600150015  1.02559086008601  3.27204706270627
 6 -1.98640398319832 -0.70550556465647  0.11520812851285
 6 -0.51478986708671 -0.60800965576558  0.54102186728673
 6  0.49479398529853 -0.80202712001200 -0.52887874507451
 8  0.16312604850485 -1.18537822772277 -1.61923437803780
 8  1.72515759095910 -0.55393181168117 -0.10270526252625
 7 -7.15371855285528  2.78210295219522  0.49065965996600
 6 -6.10539472047205  3.43733046554655  0.96952107750775
 6 -6.48332960546055  4.90162824662466  1.06770832253225
 6 -7.85202826732673  4.91560288328833  0.62853808390839
 6 -8.30983643404340  3.65081368026803  0.29914125042504
 6 -5.51187034343434  5.90458424082408  1.45820182408241
 6 -8.56286287448745  6.23782350005000  0.35975102940294
 6 -9.58353587638764  6.54635392599260 -0.49247786408641
 7 -9.40033343264327  0.75694416901690 -0.26513348874887
 6 -10.00866264366437  1.87446074777478 -0.42426123682368
 6 -11.43634987298730  1.69447308680868 -0.96898096939694
 6 -11.40651609210921  0.36655069646965 -1.23181324292429
 6 -10.10816752515252 -0.24418146754675 -0.81846532693269
 6 -12.39302349954995  2.82060462956296 -1.16143057215722
 6 -12.64875497289729 -0.47390648904890 -1.63065530053005
 6 -12.75316978657866 -0.76832147854785 -3.13509069346935
 7 -7.52986611231123 -1.25128944344434 -0.18139448454845
 6 -8.58161414691469 -2.05107172137214 -0.61136806520652
 6 -8.07767137433743 -3.43137773927393 -0.61443518201820
 6 -6.76367839603960 -3.35904178847885 -0.14178628392839
 6 -6.43355189478948 -2.06064786388639  0.03521567566757
 6 -8.89152313741374 -4.55887928792879 -1.00998350515052
 6 -5.56030215171517 -4.21058628552855 -0.01297862826283
 8 -5.41610346644664 -5.45074158285829 -0.11920500010001
 6 -4.40373597819782 -3.15336244894489  0.33138838843884
 6 -3.78952136693669 -3.72273596879688  1.61309319461946
 8 -4.12143475517552 -3.25776673257326  2.74033449744975
 8 -2.90855337103710 -4.72724300560056  1.39648539153915
 6 -2.12557608790879 -5.25177608290829  2.49088555885589
 6  2.69431947534753 -0.81987067766777 -1.14964917021702
 6  4.04007811761176 -0.45973059645965 -0.55733234643464
 6  5.03367566776678  0.30384943254325 -0.98641404600460
 6  4.87344785498550  1.05651949364937 -2.31554409340934
 6  6.31044475657566  0.36184881318132 -0.25770723382338
 6  7.52085631283128 -0.31708104120412 -0.79059641304130
 6  8.92167564456446 -0.18320352725273 -0.12790767066707
 6  10.24386624132413 -0.74443892649265 -0.89326030593059
 6  10.07659145254526 -2.32161732753275 -1.18708282298230
 6  11.32562323692369 -0.30207987858786  0.07350488248825
 6  12.70322890749075 -0.64625310371037 -0.58260613781378
 6  13.91965837303730 -0.26843954705471  0.25366172877288
 6  15.30183200430043 -0.40148318411841 -0.47624145994599
 6  15.63982130973097 -1.91318548044804 -0.57867760326033
 6  16.33520611781178  0.30467137833783  0.42616588098810
 6  17.61119795849585  0.43199893379338 -0.22404691249125
 6  18.61323117411741  1.27067568656866  0.62214090699070
 6  20.11931182708271  1.44498012331233  0.21166392679268
 6  20.33368429792979  2.00204963616362 -1.18983539253925
 6  21.01158162376238  2.18558229432943  1.25200160086009
 1 -4.36421458905891  3.58174455875588  1.88085032333233
 1 -10.17184476947695  4.07330676717672  0.03148447454745
 1 -10.50747908780878 -2.43080909090909 -1.08863875777578
 1 -2.74609066056606 -1.00792115621562  1.98329012371237
 1 -2.36908747634764  1.63296324742474  1.30648014641464
 1 -2.13091060696070  0.44107152885289  3.46501322662266
 1 -2.79492279257926  2.12611725532553  3.66078517971797
 1 -3.86533711311131  0.60215091739174  3.77673651935194
 1 -2.08185763966397 -1.60424430213021 -0.24709156545654
 1 -2.06701263986399 -0.00936346204620 -0.55788444914491
 1 -0.36891121452145  0.45969009490949  1.05704173467347
 1 -0.38676168906891 -1.35440462046205  1.35002212121212
 1 -4.48910356775678  5.85209334693469  1.01424456245625
 1 -5.89616083488349  7.06800191889189  1.13788938593859
 1 -5.32446422342234  6.10349019841984  2.40840190079008
 1 -8.26197629652965  7.21587862156216  0.86550785708571
 1 -9.95656104890489  5.78853683918392 -1.14855425142514
 1 -9.75059933913391  7.62853813911391 -0.63922362646265
 1 -12.37590213761376  3.10321081958196 -0.08103050165017
 1 -12.01321024332433  3.60231519621962 -1.73239045654565
 1 -13.42297969796980  2.47022264046405 -1.67972101900190
 1 -12.87527235313531 -1.31298142444245 -1.21053562736274
 1 -13.53680442274228  0.14131379277928 -1.27766144344434
 1 -12.83161767676768  0.08768578367837 -3.86858570197020
 1 -11.77447365506551 -1.26675607200720 -3.47170796749675
 1 -13.71994006720672 -1.27155451355135 -3.33426728542854
 1 -9.59027657445745 -4.71369346124612  0.02713690979098
 1 -9.41610352055205 -4.33782079557956 -1.86534705530553
 1 -8.31624332983298 -5.50646142604260 -1.06660131363136
 1 -3.49957568486849 -3.31225857715772 -0.25950901070107
 1 -1.09168603660366 -5.70338694239424  2.19424512851285
 1 -1.86992356405641 -4.35689542854285  3.34153860416042
 1 -2.89763081848185 -5.96521352135214  3.13944546474647
 1  2.58592038383838 -1.89174591569157 -1.28919605290529
 1  2.47453929682968 -0.35953739173917 -2.13972159145915
 1  4.10167160306031 -0.94321239173917  0.36343538793879
 1  5.43251851635164  1.97750544834483 -2.13516610401040
 1  5.39045600940094  0.49479543474347 -3.06141920902090
 1  3.80663714891489  1.16275908180818 -2.79307466436644
 1  6.70310040714071  1.48247139103910 -0.05377057745775
 1  5.86165399119912 -0.09596518181818  0.71696139023902
 1  7.20663131623162 -1.45200924632463 -0.72485733183318
 1  7.65181493259326  0.19221472607261 -1.89386824452445
 1  9.00246468806881  0.96580443194319  0.20976223472347
 1  8.87841057095710 -0.73962104910491  0.74423727662766
 1  10.12359922522252 -0.24173397509751 -1.76092681558156
 1  9.08202539013901 -2.37861652445244 -1.75557478297830
 1  10.70619748074808 -2.85420709710971 -2.02127787338734
 1  10.10171861366137 -2.89133101060106 -0.22472599409941
 1  11.27664185428543  0.73520114391439  0.30212367496750
 1  11.34882245164516 -0.80944943044304  1.05566608830883
 1  12.82342885088509 -1.63060693969397 -0.86972041484148
 1  12.68764908150815 -0.00240751365137 -1.55446876537654
 1  13.87355839133913  0.76618701450145  0.65938111221122
 1  13.95297013251325 -0.80002295629563  1.16662623882388
 1  15.28568006540654  0.05152835263526 -1.52374902470247
 1  14.76301169616962 -2.41570985478548 -1.04731875237524
 1  16.53177991429143 -1.98895473497350 -1.25099649224923
 1  15.94924764236424 -2.46675629422942  0.23488618991899
 1  15.98487567916792  1.33258634733473  0.50948479207921
 1  16.47753407610761 -0.05829202010201  1.44922691949195
 1  18.08541461876188 -0.71635011361136 -0.14226891159116
 1  17.45075780118012  0.96376934003400 -1.33909121372137
 1  18.13111481738174  2.36232496019602  0.71541803680368
 1  18.76421943614362  0.88273711051105  1.51855311091109
 1  20.47534576437644  0.56320705440544  0.09286222332233
 1  20.06757945514552  2.96350848294829 -1.18279325352535
 1  21.42825134233423  2.00124572837284 -1.48764408780878
 1  19.66114435023502  1.35606564316432 -1.96447162836284
 1  20.90024503760376  1.76389593989399  2.20709463726373
 1  22.01741558325832  2.03087120372037  1.05089698949895
 1  20.75205286798680  3.21043071357136  1.21953455785579
 1 -7.19703348584858  1.78212248424843  0.06611986878688
 1 -7.59545091169117 -0.23561843744374  0.01274795459546

