%nproc=4
%Mem=2GB
# td=(NStates=1) B3LYP/SVP 

TD

0 1
 6 -5.09039188968897 -1.94481428742874  0.32187081218122
 6 -4.77787394559456  2.80285051405141  1.29366604270427
 6 -9.23218246184618  3.25978217451745 -0.36194081028103
 6 -9.87731958305831 -1.50657225182518 -0.80810695609561
 7 -5.09539628762876  0.46734319541954  0.66296375437544
 6 -4.44368246584659 -0.66889587318732  0.73074916051605
 6 -2.97647940164016 -0.60686116961696  1.18921217061706
 6 -3.17530168256826  0.83928904650465  1.80404490989099
 6 -4.32841779987999  1.40091713711371  1.20765267666767
 6 -3.11646814471447  0.81186948794879  3.40505036303630
 6 -2.01290663346335 -0.59451446554655  0.03991059875988
 6 -0.53188157625763 -0.67173602840284  0.49580734583458
 6  0.39769427532753 -0.97274419171917 -0.66449230643064
 8  0.02403213911391 -1.27590728062806 -1.83011546614661
 8  1.70192526772677 -0.78973539203920 -0.25329032103210
 7 -7.00440362136214  2.81317605950595  0.42057265126513
 6 -5.92182636363636  3.36128286078608  0.89286341174117
 6 -6.31011228372837  4.87818590239024  0.96405795749575
 6 -7.53610667516752  5.08069939293929  0.44762999309931
 6 -8.02836828722872  3.70108870777078  0.17912924922492
 6 -5.31639079547955  5.80255403780378  1.48168417231723
 6 -8.16019260746075  6.29145886358636  0.45575062936294
 6 -9.26376389918992  6.64206349694970 -0.28249686598660
 7 -9.27876127542754  0.75342381698170 -0.47853482888289
 6 -9.90077185458546  2.03622692439244 -0.48978778947895
 6 -11.24084032203220  1.84307794729473 -0.91870594189419
 6 -11.44556999749975  0.45534957635764 -1.03190325192519
 6 -10.14078078647865 -0.16266331573157 -0.74060754115412
 6 -12.31793599079908  2.96961953105311 -1.02778720782078
 6 -12.66610670807081 -0.30283938233823 -1.61494372937294
 6 -12.56836130573057 -0.66878152455246 -3.04405158955896
 7 -7.52044517021702 -1.27124143864386 -0.22481882698270
 6 -8.60305629112911 -2.06560317451745 -0.49075600400040
 6 -8.19421302850285 -3.55984058555856 -0.56607034553455
 6 -6.69364139233923 -3.44097998229823 -0.34789689498950
 6 -6.40952949254925 -2.19045084418442 -0.07089493539354
 6 -9.04106809190919 -4.61166456645665 -0.81855436223622
 6 -5.48482460396040 -4.32539776667667 -0.14838216861686
 8 -5.49364122022202 -5.55313182188219 -0.15519859945995
 6 -4.44287989258926 -3.28843595629563  0.42738798839884
 6 -3.92719513431343 -3.67173086828683  1.78716060136014
 8 -4.31921453315332 -3.18732968886889  2.84455491949195
 8 -3.03301581728173 -4.69259954125413  1.62044778777878
 6 -2.80451398169817 -5.48808971427143  2.75494196449645
 6  2.62890293369337 -0.82625131573157 -1.34453865916592
 6  3.99144325412541 -0.78697332073207 -0.70953756695670
 6  4.92079437963796  0.15391443904390 -1.05109051365137
 6  4.80673118331833  1.18267210891089 -2.19428196719672
 6  6.25150886298630  0.25712834113411 -0.39057052015202
 6  7.54779900710071 -0.30038937203720 -1.00146750015002
 6  8.85087856485649 -0.14737994489449 -0.14541942184218
 6  10.07192904760476 -0.83739822242224 -0.73495447534753
 6  9.96191998539854 -2.29830499629963 -0.90087420212021
 6  11.30677135173517 -0.38411808240824  0.03680121212121
 6  12.72442102670267 -0.51344982338234 -0.63653153035304
 6  13.82675908310831 -0.18730143324332  0.39569593219322
 6  15.21634345544554 -0.22908594439444 -0.29704354015402
 6  15.64376170377038 -1.63808797069707 -0.70868060356036
 6  16.32905550275028  0.47282819401940  0.55920918531853
 6  17.74234107280728  0.62192792669267 -0.18816332413241
 6  18.72611246224622  1.45312393139314  0.76812550545055
 6  20.08821871777178  1.57335296059606  0.16792955335534
 6  20.22435336483649  2.07366679787979 -1.28918532753275
 6  20.96727719331933  2.38451218731873  1.07823422412241
 1 -4.05329349694970  3.29400578487849  1.70736297459746
 1 -9.82755034003400  4.19019845634563 -0.31513018691869
 1 -10.64510285018502 -2.15943195319532 -1.05801569546955
 1 -2.61979803130313 -1.19558992309231  1.95923771847185
 1 -2.23434400200020  1.59624957605761  1.61352085048505
 1 -2.23181069696970  0.27399482118212  3.59985671097110
 1 -3.20811411171117  1.66815145874588  3.84131323252325
 1 -4.13620419981998  0.31318202050205  3.83268211391139
 1 -2.23879333323332 -1.46324020172017 -0.74760161646165
 1 -2.21816775537554  0.31558903320332 -0.66454511521152
 1 -0.33547787118712  0.30605473137314  0.94244027452745
 1 -0.33127614051405 -1.40418959895990  1.30203732273227
 1 -4.12450710811081  5.50965910351035  1.10249338733873
 1 -5.62892411121112  7.01349646834684  1.36697229422942
 1 -5.31503328032803  5.58130798019802  2.63292435303530
 1 -7.69878997789779  7.16056309000900  0.88535984228423
 1 -9.70547594039404  6.02922090759076 -1.12656205220522
 1 -9.73348762796280  7.76012129742974 -0.46797650175017
 1 -12.55944049144914  3.38252875137514  0.10111771317132
 1 -11.79149807210721  3.96138110281028 -1.43969118661866
 1 -13.29379677967797  2.65443106130613 -1.63001604850485
 1 -12.79260408630863 -1.22835296159616 -1.05177975177518
 1 -13.68215895819582  0.13633329472947 -1.49640331763176
 1 -12.76833134813481  0.34840185528553 -3.61349019241924
 1 -11.74910111781178 -1.08101749814982 -3.24734553125313
 1 -13.45883395659566 -1.27052441054105 -3.35190904960496
 1 -9.88834638143815 -4.61075316721672  0.01710590669067
 1 -9.61625353555356 -4.76751376487649 -1.72079259985999
 1 -8.72887459295930 -5.71648242814281 -0.66890154365437
 1 -3.64497022432243 -3.55607295859586 -0.39798285808581
 1 -2.34953182118212 -6.44462106580658  2.35471117511751
 1 -2.08807537923792 -4.79640937993799  3.51505595589559
 1 -3.65274633003300 -5.80520752075207  3.45670719091909
 1  2.31021281308131 -1.64373111421142 -1.93214034733473
 1  2.40570241314131 -0.06595803380338 -2.20317793709371
 1  4.00502193809381 -1.67430550105010  0.12345138953895
 1  4.85344060856086  2.22954065186519 -1.87570015741574
 1  5.87695465926593  1.23784974017402 -2.95496856395640
 1  3.89613609880988  0.93389619551955 -2.93964932183218
 1  6.40420051715171  1.22812595649565  0.11817661726173
 1  5.95544337013701 -0.47052263756376  0.49091878597860
 1  7.37552820592059 -1.37750179557956 -1.08661350745074
 1  7.52178192929293  0.29387489208921 -1.97360621832183
 1  9.11127556915691  0.78575642714271  0.06358761726173
 1  8.50274300420042 -0.67727481448145  0.82805565846585
 1  10.11018788408841 -0.39003880558056 -1.54146486938694
 1  9.32378956655666 -2.45016367916792 -1.92002122762276
 1  10.95449231023102 -2.78168984538454 -1.12708845444544
 1  9.41284972677268 -2.88297017451745 -0.10237375887589
 1  11.06060025012501  0.67998562236224  0.14950841344134
 1  11.36447401680168 -0.70509899539954  1.15535605730573
 1  12.91999850785079 -1.58926280528053 -0.99059250205020
 1  12.71150146674667  0.28990171727173 -1.55598891739174
 1  13.66448748424842  0.77246764256426  0.99652482658266
 1  13.63281811731173 -1.02424537853785  1.11548112431243
 1  15.12997449484948  0.10411361116112 -1.35670232003200
 1  15.03534892989299 -2.29715799959996 -1.48239225972597
 1  16.36509324562456 -1.59327516701670 -1.45695708830883
 1  15.84713743134314 -2.33243286188619  0.33926662796280
 1  15.99514670627063  1.55454854355436  0.84267811141114
 1  16.48590491319132 -0.14037022792279  1.49316131293129
 1  18.20422649995000 -0.32794127272727 -0.42557724242424
 1  17.39936266166617  1.17419038213821 -1.11466877147715
 1  18.11510321622162  2.50702943064306  1.01679817481748
 1  18.98623163736374  1.02429126592659  1.60876213181318
 1  20.45323355315532  0.55136587028703  0.22615555265527
 1  19.55187788498850  3.15016714881488 -1.44490946514651
 1  21.25757427462746  2.40929653345335 -1.55356067946795
 1  19.70747898369837  1.22177221382138 -1.94738992019202
 1  20.90097511061106  2.03224277457746  2.05530945874587
 1  21.95146898859886  2.37195531213121  0.94644654445445
 1  20.72922058475848  3.39528919941994  1.14401700610061
 1 -6.92744652715272  1.84445871787179  0.25688894569457
 1 -7.45182654925492 -0.23170804640464 -0.01651497169717

