%nproc=4
%Mem=2GB
# td=(NStates=1) B3LYP/SVP 

TD

0 1
 6 -5.12961581208121 -1.93379318531853  0.51950057515752
 6 -4.71160731893189  2.82141237023702  1.36301297739774
 6 -9.36415565916592  3.35236143244324 -0.15473008920892
 6 -9.89484133523352 -1.44390598519852 -0.85567171257126
 7 -5.12899964796480  0.44962142324232  0.74128158615862
 6 -4.44417251485149 -0.68387737133713  0.79802588818882
 6 -3.02107386108611 -0.56637712121212  1.21123437283728
 6 -3.01242539493949  0.86391150875088  1.88603310871087
 6 -4.34389934803480  1.44668171357136  1.29962187358736
 6 -3.03411990989099  0.90350865186519  3.37235709370937
 6 -2.06799214201420 -0.77506252035204  0.08801540924092
 6 -0.59436782488249 -0.80412926772677  0.49834759985999
 6  0.38405291119112 -1.13645056235624 -0.64474033123312
 8  0.04113384928493 -1.46314600450045 -1.73581603620362
 8  1.64833990919092 -1.08804522302230 -0.19207419941994
 7 -7.09884306530653  2.86440118201820  0.60396099009901
 6 -5.89667384838484  3.40714744724472  0.94948907430743
 6 -6.11986325882588  4.84111219501950  0.85021657335734
 6 -7.50621368586859  4.99905122812281  0.50079530963096
 6 -8.04607005740574  3.72972157105711  0.31415275157516
 6 -5.10766992339234  5.80203398579858  1.23215921982198
 6 -8.01795838403840  6.28606832453245  0.28649370367037
 6 -8.99957748054806  6.57458674927493 -0.59542815911591
 7 -9.16844024332433  0.92268074267427 -0.38764573997400
 6 -9.87371914931493  2.10027332903290 -0.38853766446645
 6 -11.23399963796380  1.86217985748575 -0.81892596389639
 6 -11.41915735623562  0.52564660606061 -1.01364142574257
 6 -10.10642735113511 -0.03552060146015 -0.77545102550255
 6 -12.24541873907391  2.96484905400540 -1.10690511961196
 6 -12.64367446484648 -0.24324342274227 -1.63508574357436
 6 -12.50056452605261 -0.53766841324132 -3.08827601200120
 7 -7.53934706040604 -1.24277859235924 -0.34983132823282
 6 -8.59821580708071 -1.98982559675968 -0.65290221862186
 6 -8.22599620682068 -3.44178878037804 -0.58157189568957
 6 -6.83398542674267 -3.46201208550855 -0.23079518481848
 6 -6.39017755735574 -2.08834063316332 -0.04104195009501
 6 -9.04150813591359 -4.66375977597760 -0.88260076687669
 6 -5.70815693719372 -4.29880510741074 -0.12256958735874
 8 -5.61046290239024 -5.43720022872287 -0.01763484308431
 6 -4.53206881148115 -3.31676878957896  0.34077932753275
 6 -3.82535495029503 -3.72320601580158  1.57328921422142
 8 -4.07705031673167 -3.36768772467247  2.72837330133013
 8 -2.96917943364336 -4.81853213451345  1.37731347434743
 6 -2.48559208950895 -5.45974687998800  2.52887935823582
 6  2.71510155355536 -1.19586827742774 -1.23426763206321
 6  4.11464557435744 -0.87391201460146 -0.56163277647765
 6  4.96179848004800  0.10555960356036 -0.93594899949995
 6  4.72717322752275  0.99526336803680 -2.15055759475948
 6  6.21773548564857  0.33573620192019 -0.18109957305731
 6  7.34430865806581 -0.28500783388339 -0.79860721412141
 6  8.66540001700170 -0.10573578047805 -0.00730561046105
 6  9.93517537223722 -0.61584606720672 -0.80223120302030
 6  9.90729452285229 -2.19420458625863 -1.22534664936494
 6  11.22539321392139 -0.32508217881788  0.04142167416742
 6  12.62535111971197 -0.66773525192519 -0.59398727592759
 6  13.84912131933193 -0.17472017511751  0.23981034363436
 6  15.18970079117912 -0.29340237603760 -0.35131896769677
 6  15.62039936753675 -1.68066222812281 -0.71409114461446
 6  16.17507010421042  0.46996790799080  0.52737600200020
 6  17.54593143184318  0.67066280018002 -0.09654416221622
 6  18.58723857485748  1.56397501650165  0.70580927382738
 6  20.00000989688969  1.71240686598660  0.12840560096010
 6  20.14243517301730  2.29080851205121 -1.30494690369037
 6  20.91544200980098  2.52415615171517  1.17380378107811
 1 -3.83878204580458  3.56869325362536  1.61147338563856
 1 -9.93762134713471  4.24228366486649 -0.31973064696470
 1 -10.56851519141914 -2.11517752775278 -0.91768166206621
 1 -2.81652770427043 -1.20558092219222  2.08744053875388
 1 -2.18679924752475  1.38745869696970  1.63569306770677
 1 -2.06770428632863  0.78273569526953  3.74026075137514
 1 -3.24302760306031  1.90441508510851  3.80594969616962
 1 -3.81425200460046  0.32848355065507  3.79374822052205
 1 -2.29706916081608 -1.68541241894189 -0.61686854315432
 1 -2.40349628822882  0.11169864416442 -0.70077873857386
 1 -0.26632095549555 -0.00670654475448  1.01085711621162
 1 -0.38146115901590 -1.56044522452245  1.25767288628863
 1 -3.75710036743674  5.27655579317932  0.96164930293029
 1 -5.30048126692669  6.95771088978898  0.69293489048905
 1 -5.13955573257326  5.74683453285329  2.35122618321832
 1 -7.75629572847285  7.26292332603260  0.79306061236124
 1 -9.64204959775978  5.75323330883088 -1.10379977597760
 1 -9.52690696989699  7.61846713201320 -0.86632633673367
 1 -12.48143269066907  3.44833533203320 -0.22902530113011
 1 -11.85715463776378  3.62659762446245 -1.87966518401840
 1 -13.10254765476548  2.49398501670167 -1.38200124702470
 1 -12.86570139603960 -1.14314444074407 -0.98971354515452
 1 -13.54967570987099  0.39173883528353 -1.53870754805481
 1 -12.15168968396840  0.43815083018302 -3.57001584498450
 1 -11.79025523322332 -1.39424882128213 -2.99759055575558
 1 -13.38423649684969 -1.01095845394540 -3.52875673437344
 1 -10.09885743254326 -4.90104219611961 -0.16791259515952
 1 -9.42076398659866 -4.44179119261926 -1.78704922552255
 1 -8.45869757525753 -5.64572535243524 -0.74007866136614
 1 -3.83630935823582 -3.42561991329133 -0.31432449224922
 1 -1.68226509450945 -6.22238884258426  2.12300800480048
 1 -1.88355492719272 -4.77575731473147  3.39252370267027
 1 -3.47782883828383 -5.84501150115011  2.88989050925093
 1  2.78585037683768 -2.28083482458246 -1.38065519881988
 1  2.45090693359336 -0.58965040304030 -2.17940555985599
 1  4.36235767166717 -1.68877694819482  0.26541558595860
 1  4.92771803630363  2.16947464526453 -2.03346593399340
 1  5.46026299009901  0.79316527172717 -2.96336940404040
 1  3.77576406160616  0.90156296219622 -2.72996835373537
 1  6.36579667676768  1.41570471437144 -0.24754995539554
 1  6.18622644844484 -0.20415600090009  0.87645733983398
 1  7.19498015111511 -1.48682272767277 -0.90567541364136
 1  7.74523427452745  0.16689219381938 -1.93166202390239
 1  8.91398584018402  0.95249310081008  0.16927818631863
 1  8.57251998189819 -0.64635172217222  0.84322717561756
 1  9.92778964426443 -0.03776357805781 -1.46426714961496
 1  9.16387357495750 -2.33933259605960 -1.73996322182218
 1  10.76212307330733 -2.37461913831383 -1.74744048964896
 1  9.89500794259426 -2.91671354885489 -0.52143566506651
 1  11.34290848094809  0.70536816061606  0.30334379697970
 1  11.15093266266627 -0.73712219771977  0.97794831653165
 1  12.68751525952595 -1.72232611161116 -0.76714015681568
 1  12.76102641924192 -0.11997927082708 -1.44577789628963
 1  13.54661569706971  0.77538793459346  0.70056523062306
 1  13.99949478497850 -0.93597655165517  1.06874645084508
 1  15.06714821222122  0.16671987178718 -1.33506015581558
 1  15.01347674267427 -2.07637592139214 -1.74177819831983
 1  16.53802053835384 -1.84956079557956 -1.11255264786479
 1  15.16371908950895 -2.45894551315131  0.16384908620862
 1  15.89569676127613  1.47753084178418  0.69013285688569
 1  16.27471379407941 -0.12417860876088  1.61156315311531
 1  17.89475555285529 -0.54121259985999  0.09883519881988
 1  17.47417014241424  1.12205516861686 -1.00713801840184
 1  18.12362406830683  2.53019174687469  0.82989948494849
 1  18.70482349654966  1.25056389318932  1.70792204780478
 1  20.35236346614662  0.68743947764777 -0.00243730663066
 1  19.97072977017702  3.35894802690269 -1.38251322552255
 1  20.96817533473347  2.14310991479148 -1.68215353875388
 1  19.62774100990099  1.64741477807781 -2.14357953915392
 1  20.57495250835084  1.96886643694369  2.24411833963396
 1  21.95584942664266  2.43694181078108  0.76776867666767
 1  20.47692535523553  3.59521919241924  1.15762836723672
 1 -7.43672745524552  1.88563283528353  0.75822907970797
 1 -7.68208957555756 -0.09651452705271 -0.33396671687169

