%nproc=4
%Mem=2GB
# td=(NStates=1) B3LYP/SVP 

TD

0 1
 6 -5.07878072857286 -1.89060886688669  0.33975260036004
 6 -4.70420657885789  2.74502473147315  1.52902957905791
 6 -9.50545978957896  3.25937213351335  0.00440582438244
 6 -9.75953780488049 -1.47956955155516 -1.02175832123212
 7 -5.21058780678068  0.44848130923092  0.85938339633963
 6 -4.45397349494950 -0.68782776637664  0.72888897449745
 6 -3.12619437313731 -0.52312279577958  1.19997324672467
 6 -3.02468662106211  0.99756487408741  1.69215372077208
 6 -4.41687664576458  1.40826787218722  1.24792670407041
 6 -3.02698919681968  0.94196249724973  3.20560041804180
 6 -2.02057740054005 -0.80424543864386  0.07557416511651
 6 -0.62007039513951 -0.70766962176218  0.56086385148515
 6  0.39893439933993 -0.97098401570157 -0.55002085928593
 8  0.12102183808381 -1.39620931083108 -1.63797625222522
 8  1.64661973717372 -0.79777619611961 -0.19202419441944
 7 -7.07355053605361  2.71911665356536  0.50563115711571
 6 -6.04407858885889  3.32494922742274  1.04675880128013
 6 -6.33018429092909  4.79231731553155  1.18526007770777
 6 -7.62551561606161  4.87811913491349  0.58747397749775
 6 -8.16811226162616  3.66851545044504  0.33752508880888
 6 -5.43226238263826  5.82477626002600  1.66340234413441
 6 -8.32973956215621  6.27197691539154  0.46508156245625
 6 -9.22838036083608  6.59860915151515 -0.42084070037004
 7 -9.25750915021502  0.80477895249525 -0.48830580598060
 6 -9.89536131353135  1.94598790049005 -0.37411622232223
 6 -11.23817005500550  1.78960259975998 -0.99026309760976
 6 -11.43739918041804  0.50638467986799 -1.26904696629663
 6 -10.00692740114011 -0.18582563196320 -0.92916639703970
 6 -12.25611980918092  2.92903547264726 -1.18225265436544
 6 -12.61719181658166 -0.27124622302230 -1.85860809580958
 6 -12.43967843744374 -0.48712335873587 -3.33661084548455
 7 -7.42733585928593 -1.19346366086609 -0.40889723482348
 6 -8.55480146564656 -2.09726634083408 -0.74570149854986
 6 -8.17680128732873 -3.34789939143914 -0.69286302480248
 6 -6.79516154435444 -3.33586947124712 -0.33221532683268
 6 -6.36447498709871 -1.99385118421842 -0.17379522542254
 6 -8.90509449454945 -4.65473887388739 -1.05993850065007
 6 -5.66448256975698 -4.27255248214822 -0.01554888528853
 8 -5.50268212431243 -5.45850235893589 -0.16573965356536
 6 -4.54126973157316 -3.31395850855086  0.33830908050805
 6 -4.01946436123612 -3.74767846304630  1.73627551285129
 8 -4.37731034273427 -3.41653260916092  2.86993745774577
 8 -3.05064758045805 -4.71559184048405  1.66160190319032
 6 -2.50912444274427 -5.26807771307131  2.90601707200720
 6  2.83368341174117 -0.92090078067807 -1.16463066836684
 6  3.95485959575958 -0.68427305070507 -0.41906852005201
 6  4.98565086528653  0.19943899149915 -0.96128153275328
 6  4.88226873707371  0.99063290499050 -2.22844538353835
 6  6.30701441354135  0.40696332463246 -0.09960142324232
 6  7.53180740794079 -0.28714804790479 -0.76745409880988
 6  8.82795627262726 -0.15146035293529  0.08135325542554
 6  10.01802365706571 -0.64498898149815 -0.58820980088009
 6  9.91156494989499 -2.18264343014301 -0.75832994769477
 6  11.33085375997600 -0.37047671827183  0.16973450545055
 6  12.59089767436744 -0.70170864926493 -0.48569644684468
 6  13.86085249244924 -0.13720642374237  0.23708007060706
 6  15.13177499859986 -0.31153418921892 -0.37187102290229
 6  15.70697802540254 -1.81646580848085 -0.49892962846285
 6  16.26024862206221  0.54491540274027  0.41405466986699
 6  17.70563740244024  0.55140087398740 -0.21834634243424
 6  18.63012286328633  1.55355397439744  0.37149584248425
 6  20.14086398229823  1.56399202450245 -0.07982522212221
 6  20.30112104160416  1.88597802900290 -1.60017642664266
 6  20.99644010961096  2.44357809390939  0.81795819651965
 1 -4.00441860946095  3.39318570287029  2.07958019631963
 1 -10.31361894689469  3.88695813231323 -0.03853252715272
 1 -10.41628996889689 -2.09379538953895 -1.55627552145215
 1 -2.92537858935894 -1.32490285438544  1.91682347704771
 1 -2.37208777637764  1.53121307240724  1.39589908830883
 1 -2.11580909680968  0.34930235193519  3.25502222752275
 1 -2.96452975327533  2.14408905250525  3.49084818601860
 1 -3.80657123652365  0.26379708200820  3.64253309900990
 1 -2.18148760266027 -1.75868974667467 -0.38935579187919
 1 -2.15298123672367  0.14181165546555 -0.53531219191919
 1 -0.35036936033603  0.31590571647165  1.15818184868487
 1 -0.31526453935394 -1.58641782178218  1.27172429142914
 1 -4.64558921632163  5.90674881248125  0.98031116911691
 1 -5.98040925972597  6.97090220892089  1.81942753975398
 1 -5.08885066206621  5.63623347274727  2.72312337293729
 1 -8.01603170207021  6.84980201390139  1.42276358265827
 1 -9.66381177397740  6.04576256175618 -1.15848524452445
 1 -9.55290957015702  7.54722000730073 -0.49206891099110
 1 -12.68777332473247  3.32822332083208 -0.20256265486549
 1 -11.70450937323732  3.97117208190819 -1.49433665116512
 1 -13.00626802680268  2.70556617481748 -2.20828387528753
 1 -12.79124395029503 -1.24025415171517 -1.06197077087709
 1 -13.46220696299630  0.35364502590259 -1.68953263056306
 1 -12.39542405740574  0.35770278537854 -4.08366721012101
 1 -11.42759896759676 -1.08159755615562 -3.65625642234223
 1 -13.16329440264026 -1.26572393049305 -3.80749460816082
 1 -9.82978052485249 -4.75795788768877 -0.54470027392739
 1 -8.99743165336534 -4.58472548604860 -2.15780630123012
 1 -8.43865557105711 -5.66986776667667 -0.93376803030303
 1 -3.69635536283628 -3.37295464676468 -0.38464152395240
 1 -2.04588145614561 -6.18852545624562  2.61347705170517
 1 -1.86949352105210 -4.50177991699170  3.24548899919992
 1 -3.21906296169617 -5.45962296229623  3.84930645084509
 1  2.81450324212421 -1.77161390249025 -1.75646277957796
 1  2.57166900980098 -0.41234267226723 -2.12738035733573
 1  3.96933836973697 -0.96404447494749  0.42348139253925
 1  5.54241950645064  1.98167586538654 -1.94638722612261
 1  5.40634759855986  0.27905386058606 -2.96991005810581
 1  3.88611509670967  1.37235004090409 -2.63908926582658
 1  6.66046614371437  1.36552969686969 -0.13007820822082
 1  6.02789061486149  0.16598101280128  1.09003869796980
 1  7.31500215331533 -1.30109415481548 -0.92872771887189
 1  7.38740849194919 -0.21995649104911 -2.00753961166117
 1  8.71441588318832  0.86473432493249  0.08619987848785
 1  8.73391612151215 -0.40865795279528  1.16630948384838
 1  10.03495036033603 -0.34466426812681 -1.65282600550055
 1  8.92654984258426 -2.29030769356936 -1.33010223572357
 1  10.89771663266327 -2.53719539593959 -1.38854460006001
 1  9.98145658745875 -2.49327120462046  0.24110058855886
 1  11.41743593369337  0.72587021082108  0.34502796539654
 1  11.32718028742874 -0.82109059455946  1.29739026072607
 1  12.58418492649265 -1.87811169016902 -0.58655209800980
 1  12.70447076367637 -0.23025029792979 -1.60648396689669
 1  13.63627466296630  0.97066746254625  0.40617579167917
 1  13.78811364686469 -0.63565651965197  1.25958553475348
 1  15.21679317671767  0.10116331613161 -1.45389203900390
 1  15.26417181218122 -2.41504978877888 -1.50735475597560
 1  16.93192992929293 -1.72818865836584 -0.59199059165917
 1  15.37592030963096 -2.40298991759176  0.54527722902290
 1  15.83651084268427  1.59281236993699  0.31118496209621
 1  16.26617293999400  0.34349815891589  1.58824082088209
 1  17.99504558185819 -0.51037951655166 -0.06752143684368
 1  17.59160188558856  0.57066002910291 -1.42751005560556
 1  18.24393609950995  2.53352207990799  0.11000749574957
 1  18.47584059825983  1.41117995479548  1.58314957055706
 1  20.51372960276028  0.49125985968597 -0.00131719461946
 1  19.70896359355936  2.87719985208521 -1.73419839403940
 1  21.24376289348935  2.08551415521552 -1.98226354975498
 1  19.75087332313231  0.92010204680468 -2.24802998419842
 1  20.80423543664367  2.33292284258426  1.99490341814181
 1  21.90410425212521  2.40220833743374  0.38646054585459
 1  20.72860052275228  3.59465913641364  0.58330093449345
 1 -7.12800658315832  1.83887815981598  0.33154641144114
 1 -7.74397576417642 -0.06604147974797 -0.07161048124813

