%nproc=4
%Mem=2GB
# td=(NStates=1) B3LYP/SVP 

TD

0 1
 6 -5.21166401690169 -2.03937374337434  0.40762938803880
 6 -4.71788794699470  2.65748597759776  1.45391206730673
 6 -9.25381462506251  3.50549674597460 -0.28502311851185
 6 -9.89693154425443 -1.34017561216122 -1.02437858325833
 7 -5.22386913491349  0.32769923102310  0.87593505150515
 6 -4.56535463306331 -0.74129311291129  0.75487157275728
 6 -3.09092084578458 -0.61696217971797  1.21208445784578
 6 -3.09869402180218  0.77117223482348  1.83174768016802
 6 -4.50289524762476  1.28555560096010  1.37853976537654
 6 -2.90857735563556  0.72076037703770  3.32863272127213
 6 -2.09574491729173 -0.79793480758076 -0.01591498379838
 6 -0.64923331143114 -0.90450930573057  0.56625439053905
 6  0.38271277717772 -1.14275119241924 -0.44629048624862
 8  0.12528226412641 -1.33250294019402 -1.73693614821482
 8  1.60937601280128 -0.99171559005901 -0.10739573157316
 7 -6.95197837883788  2.72007674957496  0.55456605060506
 6 -5.84811899289929  3.33734046654665  1.02490661606161
 6 -6.05050632313231  4.76176426022602  1.10057160886089
 6 -7.30215327982798  5.05533685668567  0.64979020912091
 6 -7.98930438083808  3.70213881278128  0.24705604190419
 6 -5.04173332973297  5.82552633503350  1.57142314621462
 6 -8.01485807400740  6.22960267796780  0.57516257055706
 6 -8.79436695949595  6.58335762636264 -0.56318493479348
 7 -9.11035443474347  0.98170664526453 -0.44674164956496
 6 -9.78218999639964  2.27715101680168 -0.66333514421442
 6 -11.19321555955596  2.00371401090109 -1.02674674597460
 6 -11.33362880338034  0.64849889128913 -1.29171923352335
 6 -10.12776948534854  0.07208015861586 -0.92322580298030
 6 -12.18180237743774  3.12771534063406 -1.20067449654965
 6 -12.49622972037204 -0.00916001440144 -1.86078831383138
 6 -12.44818928852885 -0.35515016141614 -3.36298348274827
 7 -7.49966309200920 -1.26459077357736 -0.21307765286529
 6 -8.70024601010101 -1.97038365256526 -0.58927585598560
 6 -8.32384599179918 -3.40661526302630 -0.69107284578458
 6 -6.96786881508151 -3.50916680098010 -0.24910701600160
 6 -6.56396493609361 -2.10907270637064  0.02923507760776
 6 -9.13839782488249 -4.48660206020602 -1.13799630643064
 6 -5.82642876437644 -4.34452967986799  0.13830650025003
 8 -5.71164302040204 -5.49732624132413 -0.06547962756276
 6 -4.64432003660366 -3.34952206490649  0.52436768636864
 6 -4.02274468926893 -3.92962665786579  1.82634451975198
 8 -4.38811142284229 -3.53185414131413  2.86680714471447
 8 -3.18804131983198 -4.93729401070107  1.56234197719772
 6 -2.65693922422242 -5.64282518781878  2.70498696899690
 6  2.82616265966597 -1.29823851445145 -1.02014621992199
 6  4.05155926572657 -0.88488311171117 -0.41481809500950
 6  5.00439273947395 -0.07726867926793 -0.94332973757376
 6  5.00371088128813  0.67332117381738 -2.35731827082708
 6  6.16285999809981  0.18535116341634 -0.18564002710271
 6  7.42695692289229 -0.56364569766977 -0.76809416281628
 6  8.75863934093409 -0.19566477337734 -0.13511839173917
 6  10.02944479917992 -0.77238172077208 -0.78923990389039
 6  10.04696849024903 -2.22807797359736 -0.80722483718372
 6  11.25228590319032 -0.16485615621562  0.02405993799380
 6  12.68536712131213 -0.57779625802580 -0.50645852305231
 6  13.85134154135413  0.21437873477348  0.20105646824682
 6  15.22076389748975 -0.11043407920792 -0.35084892069207
 6  15.60284761236124 -1.65387954985499 -0.12570230573057
 6  16.32875547274728  0.82273318451845  0.34995826022602
 6  17.63820065876588  0.75233096699670 -0.26943145094509
 6  18.48221807280728  1.82659127812781  0.45339403230323
 6  19.94498439433943  1.71834746004600 -0.12957019661966
 6  20.09688061756176  2.29434886608661 -1.60089649864987
 6  20.96739720532053  2.60338407450745  0.83843024372437
 1 -4.00758892649265  3.32533891819182  1.91748398669867
 1 -9.99837742274227  4.34397383388339 -0.18748742264226
 1 -10.73530187008701 -1.81837784778478 -1.61269116301630
 1 -3.05600165166517 -1.58359872397240  1.87135893059306
 1 -2.28967953555356  1.30668061916192  1.60277977637764
 1 -1.97151466736674  0.36155357705771  3.79140586588659
 1 -2.52465576587659  1.88824346794679  3.62398149934993
 1 -3.74188476787679  0.26921762406241  3.92939178487849
 1 -2.32634208810881 -1.60270414811481 -0.72455931223122
 1 -2.32324826342634  0.20946842114211 -0.57293595429543
 1 -0.27138146154615 -0.09498537263726  1.17827385788579
 1 -0.81427444034403 -1.75303448344835  1.20611773077308
 1 -4.17134179157916  5.60800893849385  0.89794293229323
 1 -5.43862508130813  6.73229834853485  1.53517911491149
 1 -4.72366414341434  5.66838668806881  2.64311537213721
 1 -7.88139823872387  7.14526155985599  1.15291659795980
 1 -9.18065345814582  6.10414840034003 -1.43285268126813
 1 -9.39864414361436  7.45309059435944 -0.41631133523352
 1 -12.01716626402640  3.89262976147615 -0.17668006660666
 1 -12.01292021432143  3.83560852555256 -2.23084030153015
 1 -13.22277967796780  2.82526814501450 -1.30659370627063
 1 -12.69429425532553 -1.02646277257726 -1.32662723652365
 1 -13.49046978927893  0.65905556695670 -1.66302998029803
 1 -12.51087560256026  0.70296731183118 -3.91952079547955
 1 -11.43817002470247 -0.92903229962996 -3.75062585928593
 1 -13.26890496369637 -0.99700705880588 -3.92424628332833
 1 -9.91565911271127 -4.63367545944594 -0.47326313021302
 1 -9.41170308050805 -4.55096210971097 -2.16844736533653
 1 -8.53562526802680 -5.29014979487949 -1.10720537403740
 1 -3.96158188548855 -3.52510986228623 -0.34117717751775
 1 -1.78616548454845 -6.25901250495049  2.23722942694269
 1 -2.43303987568757 -4.99703944294429  3.38801325162516
 1 -3.40798185358536 -6.38880588058806  3.15457697789779
 1  2.92895468726873 -2.27013375447545 -1.43666079937994
 1  2.59836167906791 -0.82725416341634 -2.15670328962896
 1  4.22569400530053 -1.32117018751875  0.54335337973797
 1  4.99993525802580  1.75109280708071 -2.24543713111311
 1  5.83194015781578  0.70607656285629 -3.07668073517352
 1  3.93775026022602  0.46366917281728 -2.74202955985599
 1  6.45567566466647  1.32196534043404 -0.12504770517052
 1  5.97464529032903 -0.09432501780178  0.87487718181818
 1  7.27219787288729 -1.64323836923692 -0.75238008410841
 1  7.47169692079208 -0.12155665106511 -1.77791664936494
 1  8.94003844544454  0.94270212171217 -0.26536527802780
 1  8.96222895279528 -0.57821490849085  1.10737359025903
 1  9.99307617291729 -0.38225802750275 -1.77848857175718
 1  9.21767895549555 -2.59645830863086 -1.37461668716872
 1  11.07112397339734 -2.70074175057506 -1.09663540914091
 1  10.13911235303530 -2.67215909340934  0.22674915341534
 1  11.02520671077108  1.01307893169317 -0.14576111351135
 1  11.38020558995900 -0.39137762326233  0.96309683138314
 1  12.75436194419442 -1.67810168916892 -0.52393583638364
 1  12.88738905550555 -0.39866713961396 -1.69368268676868
 1  13.38830986648665  1.18033842964296  0.15763093719372
 1  13.73414825032503  0.28879592559256  1.31664124032403
 1  15.12850434783478  0.03384658445845 -1.38777542734273
 1  14.74807020202020 -2.21764004780478 -0.48009202970297
 1  16.52672940924093 -1.92290813031303 -0.74109550215021
 1  15.73021573917392 -2.04588420702070  0.86587928922892
 1  15.68685587718772  1.95151824052405  0.27821166476648
 1  16.27514383708371  0.71128493759376  1.51365336213621
 1  18.09746582388239 -0.13776225482548 -0.18202288698870
 1  17.55376810221022  0.82600556365637 -1.28247555215522
 1  18.31568327422742  2.91777050475048  0.17362385738574
 1  18.60522353655366  1.69782861966197  1.58960021562156
 1  20.24963319311932  0.56173690739074  0.03986692379238
 1  19.90130282748275  3.51880401250125 -1.52364733893389
 1  21.10584910211021  2.08065366916692 -1.72505782918292
 1  19.55546378217822  1.70302033863386 -2.40868604980498
 1  21.00224523762376  2.17511706200620  1.96269019681968
 1  22.05136897859786  2.60356847344734  0.30157205700570
 1  20.45406306900690  3.45838550905090  0.87224982938294
 1 -6.96845062756276  1.69229350135013  0.48926218301830
 1 -7.48995036163616 -0.13587846344634 -0.17481080128013

