%nproc=4
%Mem=2GB
# td=(NStates=1) B3LYP/SVP 

TD

0 1
 6 -5.22562541304130 -2.00106991299130  0.52065069016902
 6 -4.79074523272327  2.69763999299930  1.47053372947295
 6 -9.32291153475347  3.36120231653165 -0.16213082928293
 6 -9.89398124922492 -1.43173476807681 -1.07326347174717
 7 -5.20571731973197  0.38000446154615  0.87183464146415
 6 -4.57474557215722 -0.76938592219222  0.85206129172917
 6 -3.02545429912991 -0.58145862936294  1.30965421482148
 6 -3.09879403180318  0.81695681328133  1.88689319471947
 6 -4.45356031413141  1.31161820722072  1.43206511791179
 6 -3.01238773667367  0.99817811881188  3.52092195019502
 6 -2.04735007780778 -0.77434244834483  0.15146175387539
 6 -0.62507089518952 -0.77771662646265  0.54267203230323
 6  0.31396590249025 -0.88543546084608 -0.62028788598860
 8 -0.07221748584859 -1.31955164506451 -1.71316377097710
 8  1.54204928012801 -0.62972939143914 -0.30525551755176
 7 -7.13895707670767  2.67645238713871  0.52476307030703
 6 -5.95491967296730  3.35473220572057  1.08132225762576
 6 -6.24198547104710  4.80162824662466  1.11442299399940
 6 -7.48623168766877  4.96274759775978  0.61725695579558
 6 -8.01931738213822  3.69327792669267  0.28179951625163
 6 -5.16163531993199  5.76189997239724  1.56600260416042
 6 -8.15871245944594  6.25984570227023  0.40292534683468
 6 -8.93625114791479  6.68783807440744 -0.63240185648565
 7 -9.18183158245825  0.89942841744174 -0.64076105150515
 6 -9.81141291869187  2.12604590629063 -0.66988579927993
 6 -11.21410764876488  1.89550318981898 -1.17630170147015
 6 -11.38160360086009  0.55732977437744 -1.26063612521252
 6 -10.09860656905691  0.03341629222922 -0.98395187558756
 6 -12.14119831703170  3.02135470457046 -1.29195362446245
 6 -12.64415451285129 -0.12067116551655 -1.73094532953295
 6 -12.59094356395640 -0.61853650005001 -3.22044922932293
 7 -7.56749987568757 -1.30770508500850 -0.25203154825483
 6 -8.65366135163516 -2.08361497569757 -0.71543847224722
 6 -8.23932753995400 -3.47652225372537 -0.48570230873087
 6 -6.93080510871087 -3.46420230453045 -0.07908001330133
 6 -6.54900343994399 -2.09138093719372  0.09673182728273
 6 -9.02097608270827 -4.66292969296930 -1.09578208500850
 6 -5.84804092559256 -4.33845907280728  0.09841251085109
 8 -5.73730558665867 -5.54036054475448  0.10256717711771
 6 -4.66611221582158 -3.41004811751175  0.54628987858786
 6 -3.97916033083308 -3.90386408160816  1.78469035433543
 8 -4.12605521722172 -3.49397035293529  2.91522198619862
 8 -2.92937545324532 -4.82022230353035  1.52679842284228
 6 -2.32670620092009 -5.51287219251925  2.61730820112011
 6  2.62671271467147 -0.81767045764576 -1.25022922822282
 6  3.92209631943194 -0.52737736113611 -0.54787140034003
 6  4.99164146434643  0.24444349194920 -1.04687009160916
 6  4.87095760596060  0.88235207690769 -2.38222076107611
 6  6.21017472957296  0.32704533283328 -0.32719418251825
 6  7.64841906910691 -0.13136246934693 -0.96362371577158
 6  8.87954143114312 -0.21468667556756 -0.05403028292829
 6  10.10818267296730 -0.78137261986199 -0.74585556545655
 6  10.02920671407141 -2.21544671047105 -1.21000511521152
 6  11.40187086168617 -0.41065073567357 -0.02515498349835
 6  12.70796938153815 -0.60000847924792 -0.62148002520252
 6  13.85853226042604 -0.14970767386739  0.25075143774377
 6  15.19114093519352 -0.32221525732573 -0.33736757255726
 6  15.70497782538254 -1.77991215311531 -0.43904363986399
 6  16.28811140834084  0.54401531273127  0.45112837723772
 6  17.68306514521452  0.73194892879288 -0.13557806560656
 6  18.64705455645564  1.56448506750675  0.65069376227623
 6  20.08832872877288  1.61392701800180  0.10401316171617
 6  20.11357228672867  2.16816624782478 -1.28515492449245
 6  20.99784024962496  2.41942567866787  0.97247364806481
 1 -3.70739890749075  3.47796418071807  1.50963320162016
 1 -9.95026261126113  4.27452688918892 -0.30883955785579
 1 -10.67072541244124 -2.17708371837184 -1.24668456235624
 1 -2.87127317881788 -1.39805016911691  2.03495529022902
 1 -2.21755232283228  1.46949690079008  1.43020251865187
 1 -1.88331584748475  0.65525294699470  3.98860558585859
 1 -3.28730203050305  2.01638628222822  3.71014011521152
 1 -3.67024760416042  0.20508121042104  3.88522736843684
 1 -2.12376183008301 -1.53740761846185 -0.59082593889389
 1 -2.24987092569257  0.09500697499750 -0.52776143684368
 1 -0.48359268266827  0.16460058595860  1.30198622912291
 1 -0.25300831373137 -1.71357053705371  1.18337545654565
 1 -4.17827248464846  5.29202734033403  1.04800793879388
 1 -5.45753697249725  6.75255037373737  1.43817941494149
 1 -4.83132490949095  5.31964181358136  2.66912797339734
 1 -7.72161226012601  6.94916194989499  1.11347265356536
 1 -9.26538193099310  6.00098808430843 -1.33825322132213
 1 -9.38698297749775  7.69229451475147 -0.55170487458746
 1 -12.38305285268527  3.43630412891289 -0.29295169376938
 1 -11.79462838513851  4.04465943064306 -1.96278349584958
 1 -13.03057045704571  2.64001962016202 -1.70882392929293
 1 -13.07597242314231 -1.00538066436644 -1.06961153495350
 1 -13.75027576987699  0.64709437083708 -1.89435311261126
 1 -12.48068258325833  0.12958997409741 -3.98392723612361
 1 -11.80317652535254 -1.27027642404240 -3.37527832453245
 1 -13.45834390759076 -1.35700305840584 -3.45001886058606
 1 -9.82147969476948 -4.80933302520252 -0.48956476037604
 1 -9.16701861206121 -4.45549256275628 -2.21552207280728
 1 -8.39958166366637 -5.57331811171117 -1.12191684518452
 1 -3.80088581588159 -3.42201955325533 -0.14452751255126
 1 -2.02812968096810 -6.65863246694670  2.34571027502750
 1 -1.56292286398640 -4.56272601160116  3.05061951225122
 1 -3.12910396579658 -5.83662066206621  3.36237775797580
 1  2.63661545334533 -1.88000474157416 -1.67389452275228
 1  2.34656649954996 -0.14922636063606 -2.14780239953995
 1  3.85439687558756 -1.12370044054405  0.33798284268427
 1  5.23933919841984  1.90705840364036 -2.43889647704771
 1  5.35281224502450  0.12773872907291 -3.10878394549455
 1  3.68814529972997  0.87544034993499 -2.75537089398940
 1  6.43940403750375  1.46682982688269 -0.07893309370937
 1  6.26056388218822 -0.06912249754975  0.79687938203820
 1  7.39045969906991 -1.12378642404240 -1.49920476657666
 1  7.93310306140614  0.47478298289829 -1.92719157685769
 1  9.13684812641264  0.84356220772077  0.52913417191719
 1  8.64592732263226 -0.75346243324332  0.85516836973697
 1  10.21612847814781 -0.13989379107911 -1.73384410731073
 1  8.96414360196020 -2.26025468826883 -1.88569779527953
 1  10.71096795779578 -2.66562823922392 -1.81960770637064
 1  9.87075551735174 -2.73650552805281 -0.11628515001500
 1  11.27394158425843  0.63411103490349  0.40218368096810
 1  11.39401697109711 -0.96551503700370  1.08086860856086
 1  12.77083359135914 -1.78467234623462 -0.93398684148415
 1  12.74897521412141  0.13190591769177 -1.38205152365236
 1  13.51626266176618  0.88163855965597  0.48876405050505
 1  13.76705154065407 -0.77400035403540  1.18098767496750
 1  15.26754825222522  0.11207440724072 -1.48987563736374
 1  15.06584197919792 -2.32314059785979 -1.23544756525653
 1  16.83876061236124 -1.70127596709671 -0.55069646224622
 1  15.68640135773577 -2.14519413801380  0.71651435273527
 1  15.91310850245024  1.66243933263326  0.61554539813981
 1  16.52721904460446  0.15054886398640  1.52659465626563
 1  18.08718479577958 -0.28205668426843 -0.62462714741474
 1  17.39020174557456  1.23616657975798 -1.08973627822782
 1  18.30143184908491  2.52473120082008  0.69142563756376
 1  18.58726174037404  1.10077891469147  1.67063831943194
 1  20.33455168496850  0.62277301100110 -0.01471853475348
 1  19.75968866606661  3.06807893999400 -1.40531550575057
 1  21.18745726292629  2.25607121092109 -1.76866218961896
 1  19.85048328412841  1.57636767336734 -2.20887606880688
 1  21.08794380748075  1.72347189748975  1.83584751255126
 1  22.07871171287129  2.44195231183118  0.55361726152615
 1  20.61154881758176  3.45079474997500  1.24489709410941
 1 -7.31082486498650  1.62345661766177  0.35937919471947
 1 -7.83433480008001 -0.20352522812281 -0.39942326252625

