%nproc=4
%Mem=2GB
# td=(NStates=1) B3LYP/SVP 

TD

0 1
 6 -5.08315116561656 -1.88667847384738  0.39827845294529
 6 -4.70523668186819  2.75337556655666  1.32551922802280
 6 -9.24841408500850  3.48130432673267 -0.41873648984899
 6 -9.81890374147415 -1.42633422802280 -0.96119226462646
 7 -5.15725247324732  0.43359982108211  0.71919937793779
 6 -4.51891998959896 -0.68168715231523  0.85401148674867
 6 -3.06171792549255 -0.55763624712471  1.24682793219322
 6 -3.11020517291729  0.87808292589259  1.87397190259026
 6 -4.36096105420542  1.42817986338634  1.27121903330333
 6 -3.13933043094309  0.84946324732473  3.41733159115912
 6 -2.06895223802380 -0.72782779687969  0.16383299099910
 6 -0.66348473657366 -0.81749060386039  0.61866963206321
 6  0.34747925382538 -1.01339825712571 -0.55842169936994
 8  0.04937467336734 -1.38496818671867 -1.71006346094609
 8  1.56693176837684 -0.68107452595260 -0.30101509350935
 7 -6.92898607960796  2.74034877677768  0.41780237423742
 6 -5.89801398239824  3.41802853535354  1.00311443684368
 6 -6.09286055855585  4.78775685948595  1.04624617631763
 6 -7.43391645614561  5.03016433943394  0.49430466056606
 6 -7.88853430383038  3.67680627952795  0.12820415671567
 6 -5.25185434183418  5.95696947934793  1.70155615951595
 6 -7.96187277547755  6.27978769646965  0.29401445574557
 6 -9.09318684148415  6.66114540514051 -0.41412002830283
 7 -9.16081948124812  0.84593306790679 -0.41039801520152
 6 -9.78371014841484  2.15737903960396 -0.56547535823582
 6 -11.20074631263126  1.86976061556156 -0.96985105640564
 6 -11.43432887338734  0.57799184058406 -1.18187824942494
 6 -10.12790949934994 -0.06064311371137 -0.83472695309531
 6 -12.13844804200420  2.97568013711371 -1.15858028712871
 6 -12.63741383878388 -0.15619471787179 -1.49678191319132
 6 -12.80366483608361 -0.53653830023002 -3.02090927532753
 7 -7.54908803450345 -1.26124043854385 -0.08820516561656
 6 -8.58304428992899 -1.98638525272527 -0.59371630003000
 6 -8.11632523972397 -3.40751535303530 -0.51407514601460
 6 -6.79036106430643 -3.47997388168817 -0.22779488478848
 6 -6.45970451005101 -2.09582138123812  0.09080123422342
 6 -9.00021400650065 -4.53445684568457 -0.93315582238224
 6 -5.69665578707871 -4.30591581848185 -0.01716904730473
 8 -5.52711456755676 -5.45622213091309 -0.29397247684768
 6 -4.47689329392939 -3.30956806950695  0.31571682128213
 6 -3.86758917371737 -3.84704840004000  1.61527341264126
 8 -4.23011562326233 -3.46472742864286  2.72295275927593
 8 -3.09998251395140 -4.95498577987799  1.35618136113611
 6 -2.75106863716372 -5.73413431873187  2.48045451575158
 6  2.62941298469847 -1.04987367796780 -1.15661986728673
 6  4.00650476027603 -0.82208683208321 -0.62237885108511
 6  5.01959425962596 -0.12632358475848 -1.10643604820482
 6  5.05480599079908  0.71666550825083 -2.38942148114811
 6  6.25523923602360  0.09026165446545 -0.33076453955396
 6  7.58036226342634 -0.50288962206221 -1.03276062946295
 6  8.76264974197420 -0.12253746064606 -0.20307518741874
 6  10.08719057375738 -0.77406188878888 -0.60669164906491
 6  9.98914270767077 -2.24029919571957 -0.86378049274927
 6  11.20328100270027 -0.19974964556456  0.25771330333033
 6  12.55008359295930 -0.62051052945295 -0.37805568276828
 6  13.78363477067707 -0.00487319041904  0.39811617421742
 6  15.19244106520652 -0.22624566036604 -0.17608144394439
 6  15.49050637823782 -1.66444060596060 -0.02533226872687
 6  16.21223382058206  0.58797970917092  0.51004426882688
 6  17.63522036073607  0.74628036193619 -0.20328483628363
 6  18.52264211521152  1.70419903890389  0.54698339123912
 6  20.00166006190619  1.72046767206721 -0.14587182678268
 6  20.02600352985299  2.36216564776478 -1.44216062506251
 6  21.12152261786179  2.35865960206021  0.76716311701170
 1 -3.75214338193819  3.47554393869387  1.50939317761776
 1 -9.81009859485949  4.29198863536354 -0.25744441834183
 1 -10.64684302420242 -2.19096510651065 -1.09953984788479
 1 -2.71427747924792 -1.34404476857686  1.96132792749275
 1 -2.14409497709771  1.32367231833183  1.32182168056806
 1 -2.38791630753075  0.50933835553555  4.06718344364436
 1 -3.44266756705671  1.92195683928393  3.55318441964196
 1 -3.97141772117212  0.23357405970597  3.83957280298030
 1 -2.08351780568057 -1.66296017371737 -0.28534539083908
 1 -2.30438637723772 -0.06311883758376 -0.61629028972897
 1 -0.18612293569357  0.15662978887889  0.99706573707371
 1 -0.70793380628063 -1.59334851485149  1.45309242824282
 1 -4.07883254065407  5.93225136273627  1.06135927392739
 1 -5.53128434723472  7.07477259595960  1.49315491249125
 1 -5.20261203820382  5.74447429682968  2.78595965656566
 1 -7.51156125502550  7.24661169486949  0.99713101940194
 1 -9.68642403520352  6.01256924242424 -1.19708910491049
 1 -9.41328560776078  7.83515880118012 -0.23502320642064
 1 -12.29480402780278  3.50347084558456 -0.16726912551255
 1 -11.67182610491049  3.84870983568357 -1.93224044154415
 1 -13.02077947794780  2.54099971817182 -1.56220926782678
 1 -12.67621244714471 -1.01121124742474 -0.79654422822282
 1 -13.48998974127413  0.34449411081108 -0.93404708200820
 1 -12.51386590159016  0.46659367446745 -3.50388923232323
 1 -12.19171537923792 -1.57015641204120 -3.32620341704170
 1 -13.89770784398440 -0.86286364446445 -3.07136099479948
 1 -9.87524507130713 -4.59011110301030 -0.12348815271527
 1 -9.32435434563456 -4.61368838233823 -2.03568408900890
 1 -8.55177688318832 -5.52778355825583 -0.75448010151015
 1 -3.76598232553255 -3.51962931423142 -0.41297435723572
 1 -2.01371823982398 -6.21281788548855  1.90251595559556
 1 -2.26189276097610 -5.03726346534653  3.44637908820882
 1 -3.71816287168717 -6.33376037603760  3.01134265446545
 1  2.30690248204820 -2.32947968906891 -1.52849998329833
 1  2.43221506440644 -0.53065450345034 -2.01974959425943
 1  4.12677411331133 -1.27295536603660  0.50239928432843
 1  5.17791305580558  1.87812551035104 -2.19673226062606
 1  5.77363432723272  0.43166912211221 -3.14348741584158
 1  3.98560504570457  0.54808761466147 -2.68382373927393
 1  6.50494059115911  1.03455659955996 -0.18576377677768
 1  6.23928175397540 -0.27490307560756  0.63570326442644
 1  7.42420307340734 -1.60784482988299 -1.14305915201520
 1  7.83427317841784  0.00091559615962 -2.09727858555856
 1  8.73146758835884  0.98947679917992 -0.27408615011501
 1  8.74706743664366 -0.24332141914191  0.86273912681268
 1  10.28037490279028 -0.33928373007301 -1.65609633253325
 1  9.14892207980798 -2.52534119691969 -1.43182240774077
 1  10.97203406440644 -2.64013568996900 -1.35987173277328
 1  9.83651209300930 -2.64904678217822  0.10985746424642
 1  10.95477966806681  0.99254687848785  0.47322078467847
 1  11.30691826122612 -0.66481496699670  1.23661418311831
 1  12.63382989098910 -1.67286116511651 -0.33545698849885
 1  12.74908522512251 -0.25042231513151 -1.54525784428443
 1  13.44681571707171  1.04965536133613  0.68080325442544
 1  13.77758259375938 -0.40557351135113  1.37878745494549
 1  15.13334483188319  0.04963816361636 -1.38045469526953
 1  14.78771416641664 -2.25761404520452 -0.66504052455246
 1  16.43534027032704 -1.99041488098810 -0.69429082168217
 1  15.62891560916092 -2.09447906650665  1.10848354965497
 1  15.76538372997300  1.69529261796180  0.73845768936894
 1  16.52580890359036  0.32478628772877  1.61849384618462
 1  17.88847492479248 -0.42068054665467 -0.20467515221522
 1  17.37496022142214  0.97901086418642 -1.23961126572657
 1  18.18083978987899  2.64327305500550  0.47712420742074
 1  18.59274228842884  1.49624846164616  1.55480673627363
 1  20.34784301410141  0.69571030473047 -0.53297035993599
 1  19.63248594579458  3.47875000710071 -1.44546952115211
 1  21.05019353655365  2.40672627642764 -2.03916924032403
 1  19.24885312111211  2.00095013161316 -2.26798197939794
 1  21.03163817691769  1.74068361866187  1.80691461926193
 1  22.18525236693669  2.29969808640864  0.24106600640064
 1  20.97713537623763  3.58973864436444  0.76386899129913
 1 -6.77115089758976  1.69640391239124  0.14355761256126
 1 -7.47608897549755 -0.25862073767377 -0.22292561276128

