%nproc=4
%Mem=2GB
# td=(NStates=1) B3LYP/SVP 

TD

0 1
 6 -5.15619847034703 -1.93467327332733  0.55342396749675
 6 -4.78456461466147  2.78974920392039  1.33552022812281
 6 -9.37970721432143  3.25927212351235 -0.25009962616262
 6 -9.78049990109011 -1.42308390299030 -0.89320546594659
 7 -5.30202695069507  0.36033249434944  0.89668712671267
 6 -4.54756285388539 -0.77489647324732  0.95208129372937
 6 -3.08645039873987 -0.51274175767577  1.32867611701170
 6 -3.18923307570757  0.94744986258626  1.94030853625363
 6 -4.54709966806681  1.39880692609261  1.33248515991599
 6 -3.15935243314331  1.04891319231923  3.47763762176218
 6 -2.16524186698670 -0.85724073817382  0.15545215291529
 6 -0.65288367646765 -0.71184003880388  0.54700246534653
 6  0.34834934083408 -0.87835475277528 -0.55157101430143
 8 -0.01906217031703 -1.21949163906391 -1.68138059265927
 8  1.60835591079108 -0.59287570607061 -0.24699969196920
 7 -7.05195837683768  2.75788052995300  0.41498209220922
 6 -6.03144732573257  3.39472620512051  1.03511763716372
 6 -6.20106137863786  4.81907999179918  0.97646919861986
 6 -7.53006607110711  4.95449677267727  0.44557978807881
 6 -8.17357280768077  3.70704930383038  0.16200753705371
 6 -5.22315147154715  5.89511329372937  1.49154515841584
 6 -8.08653524172417  6.33436315401540  0.33621867616762
 6 -9.18714623742374  6.73896318691869 -0.42279089538954
 7 -9.21434483378338  0.83695216981698 -0.45992296769677
 6 -9.86011778917892  2.05302860456046 -0.54572338303830
 6 -11.21738797679768  1.86216985648565 -1.14032810411041
 6 -11.45022046254626  0.42104614601460 -1.16372643424342
 6 -10.12255896429643 -0.07670471987199 -0.74475795619562
 6 -12.14892909010901  2.89662223132313 -1.44806923602360
 6 -12.61695179257926 -0.31054015241524 -1.65757799279928
 6 -12.72611708130813 -0.53205785218522 -3.13480066446645
 7 -7.54973809950995 -1.25263957845785 -0.18635498059806
 6 -8.53893987948795 -2.09574618881888 -0.58909583798380
 6 -8.20665427262726 -3.42433703520352 -0.60203394189419
 6 -6.81237326552655 -3.36064194849485 -0.21781388668867
 6 -6.42900143974397 -1.97605940504050  0.12049420352035
 6 -8.95549953505351 -4.70260366036604 -1.00372287908791
 6 -5.81247736923692 -4.29205443234323 -0.09497682808281
 8 -5.70292214831483 -5.48629513821382 -0.10609368896890
 6 -4.48289389398940 -3.30959807250725  0.50541579117912
 6 -3.98469088388839 -3.86617031223122  1.75348723402340
 8 -4.29467207890789 -3.47562851875187  2.88520898489849
 8 -3.16923943964396 -4.89432971427143  1.57577332033203
 6 -2.54770830113011 -5.57976888218822  2.66304277457746
 6  2.61644168756876 -0.68370706130613 -1.21315552085209
 6  3.92023613341334 -0.49682430583058 -0.43903051625163
 6  5.04803710391039  0.10494954255426 -0.98703410801080
 6  5.11820233043304  0.81360520222022 -2.32381492049205
 6  6.26661037313731  0.17808043634363 -0.23789525262526
 6  7.60907513471347 -0.41683101620162 -0.95142249564956
 6  8.97508098509851 -0.35157036393639 -0.09537441734173
 6  10.14826668136814 -0.63379786238624 -0.96713769366937
 6  10.15585937933793 -2.11770693649365 -1.56113022772277
 6  11.38810948554855 -0.62129179977998  0.13066059805981
 6  12.78350693529353 -0.73618209660966 -0.62656053325333
 6  13.92692910011001 -0.24422712581258  0.32681904450445
 6  15.35428724982498 -0.37853088888889 -0.29481331713171
 6  15.71513884148415 -1.88651281318132 -0.66397613311331
 6  16.38114071127113  0.47838875007501  0.39684294869487
 6  17.72464930363036  0.69863559745975 -0.22963747154715
 6  18.73781363236323  1.52631125012501  0.70765945884588
 6  20.12492238813881  1.76996262156216  0.13772653305331
 6  20.12058298779878  2.45150458165817 -1.29555596459646
 6  20.99309977557756  2.44125786188619  1.18165456615662
 1 -3.85008317591759  3.35754213851385  1.73769600790079
 1 -10.07999558455846  4.16601603810381 -0.18070674457446
 1 -10.51581992189219 -2.06644265426543 -1.16709660356036
 1 -2.80368642014201 -1.27826819091909  2.16428822352235
 1 -2.28749931753175  1.65759571067107  1.73256275467547
 1 -2.18509602550255  0.80253767546755  3.73780050535054
 1 -3.23493679397940  1.99887453105310  3.91052015321532
 1 -3.94137471687169  0.41541224352435  3.84173301900190
 1 -2.31633108700870 -1.79574345204520 -0.41856871317132
 1 -2.24600053865387 -0.10309283498350 -0.68019668036804
 1 -0.48858318171817  0.16869099499950  1.12039807030703
 1 -0.55689870277028 -1.59116829682968  1.35745286428643
 1 -4.51593625102510  6.29793793139314  0.45137827582758
 1 -5.74421564036404  6.83642876157616  1.76940253725373
 1 -4.51938371537154  5.60149999939994  2.36434749534954
 1 -7.84109420832083  7.08301533523352  1.12087339363936
 1 -9.55465085788579  6.18645663116312 -1.33135253125313
 1 -9.55303958315832  7.83486877217722 -0.57536724082408
 1 -12.30679522692269  3.80587108560856 -0.67256965556556
 1 -11.89700862316232  3.49864482918292 -2.45501271877188
 1 -13.18409580958096  2.58160377857786 -1.69250229712971
 1 -12.47598242414241 -1.38100822712271 -1.08490306410641
 1 -13.54963570587059  0.04429409080908 -1.40968464576458
 1 -12.92020653565357  0.34155117021702 -3.66492533593359
 1 -11.53769997769777 -0.78063746014601 -3.43345414211421
 1 -13.41505957915792 -1.42420977907791 -3.36178003670367
 1 -9.84901244804480 -4.90491258315832 -0.29197500140014
 1 -9.57463937413741 -4.76119313281328 -2.01758227882788
 1 -8.21979368486849 -5.50449122902290 -1.01270592409241
 1 -3.87430315761576 -3.43980133143314 -0.32293535333533
 1 -1.97984485248525 -6.39104570827083  2.29348505250525
 1 -1.98074464616462 -4.97633737273727  3.29735418571857
 1 -3.35976703210321 -6.01989898989899  3.54246576677668
 1  2.66587837963796 -1.80143688478848 -1.67349448274827
 1  2.52825466836684  0.08751731373137 -2.04271189048905
 1  3.96167760366037 -1.03439150965096  0.53219226362636
 1  5.82866813131313  1.86359405720572 -2.43750633803380
 1  5.46565352915292  0.35965192039204 -3.17555062216222
 1  4.16798328352835  1.17632043794379 -2.81048640554055
 1  6.52815291239124  1.17075021892189  0.00452525212521
 1  6.27505533133313 -0.36590217551755  0.83249294339434
 1  7.42973362646265 -1.40837488288829 -1.29805465156516
 1  7.95096484758476  0.04057956255626 -1.92769162686269
 1  8.96755119671967  0.73859171067107  0.27913917241724
 1  8.94142687258726 -1.10229731673167  0.94114696759676
 1  10.35259212451245  0.50148034633463 -1.71763248614862
 1  9.49008619621962 -2.31273993679368 -2.51312053755376
 1  11.32557941894189 -2.38602027842784 -1.98081382698270
 1  9.87114555635564 -3.13519539703970 -0.88046156765677
 1  11.39812400250025  0.36720434423442  0.68628209080908
 1  11.16577414681468 -1.52808129362936  0.96196671837184
 1  12.92076858485849 -1.92092597159716 -0.92622606540654
 1  12.47551786838684 -0.13357062996300 -1.42727604610461
 1  13.88801983748375  0.84168456425643  0.59862503660366
 1  13.90249508500850 -0.96876983098310  1.27525710191019
 1  15.07966946434644  0.12455565536554 -1.30386703650365
 1  14.90750614561456 -2.17232551635164 -1.43999802030203
 1  16.83631036733674 -1.89663550305030 -0.97409880248025
 1  15.73865658325833 -2.54689430803080  0.27478017931793
 1  15.79887707930793  1.48714180288029  0.49348319191919
 1  16.52002832553255  0.11651546064606  1.40673267006701
 1  17.98959503680368 -0.24603308190819 -0.43882856755676
 1  17.40837356275628  1.20591355445545 -1.27330463506351
 1  18.31169287518752  2.48482721042104  1.12201869686969
 1  18.67771078527853  0.87508634543454  1.65957721332133
 1  20.66177440724072  0.76725745944594  0.09433237033703
 1  19.53562625982598  3.39537166926693 -1.18318329252925
 1  21.21734025122512  2.64786038983898 -1.59836515991599
 1  19.70751898769877  1.84561459805981 -2.15251043224322
 1  21.03377839093909  1.90723027332733  2.01346527432743
 1  22.00019386108611  2.67092520912091  0.81723362316232
 1  20.73721138383839  3.46713638413841  1.35019762416242
 1 -7.58656243874387  1.68282255425543  0.62103536033603
 1 -7.80082144874487 -0.16695157075708 -0.26030935113511

