%nproc=4
%Mem=2GB
# td=(NStates=1) B3LYP/SVP 

TD

0 1
 6 -5.13135598609861 -1.98543834983498  0.28853747884788
 6 -4.82216837503750  2.80319054805481  1.50661733783378
 6 -9.28146739033903  3.35136133243324 -0.41455607180718
 6 -9.78459031013101 -1.41511310591059 -1.11662780818082
 7 -5.18459520752075  0.36604306540654  0.90932839083908
 6 -4.42916101370137 -0.82947193079308  0.75217130273027
 6 -3.10961271497150 -0.59125960946095  1.37267051645165
 6 -3.09717386978698  0.94503962156216  1.89875438083808
 6 -4.46209116721672  1.40244729012901  1.37672958435844
 6 -3.07032353025303  1.02425072607261  3.46536639463946
 6 -2.00985632843284 -0.79601461556156  0.23127973567357
 6 -0.55458384648465 -0.77171602640264  0.68540630573057
 6  0.40549505540554 -0.94096101340134 -0.52965882308231
 8  0.04353408930893 -1.51506119601960 -1.56033848844884
 8  1.69725480068007 -0.70127654615462 -0.24130912291229
 7 -7.13636681768177  2.73344808670867  0.55229582358236
 6 -6.00947512851285  3.37903463596360  1.09981410681068
 6 -6.28135940844084  4.76217430123012  1.26595814751475
 6 -7.59438250275027  4.88474979797980  0.73217844794479
 6 -8.06135158555856  3.66583518241824  0.19238057435744
 6 -5.41377053345335  5.80341412381238  1.74892089598960
 6 -8.21223781198120  6.22226194389439  0.47243229752975
 6 -8.99641716451645  6.61449073967397 -0.51454007030703
 7 -9.24127752705271  0.89957843244324 -0.50182715811581
 6 -9.89389116651665  2.07507080878088 -0.64651346204620
 6 -11.23507974597460  1.91759539903990 -1.07322139343934
 6 -11.33649909040904  0.58850289168917 -1.27245730733073
 6 -10.09334604300430 -0.01621867126713 -0.93042652305231
 6 -12.32717691489149  2.98947151625163 -1.30089451855186
 6 -12.62675277267727 -0.12178127652765 -1.75049728472847
 6 -12.55897036663666 -0.44683933033303 -3.22379956435644
 7 -7.45199832553255 -1.22994730923092 -0.19472581768177
 6 -8.61843782928293 -1.99676629082908 -0.66188311671167
 6 -8.15462907010701 -3.36326092759276 -0.66915065356536
 6 -6.94209623782378 -3.39544542884288 -0.18537064236424
 6 -6.42586112571257 -2.00407220632063 -0.00774862076208
 6 -9.02477646274627 -4.50110351035103 -1.07641014781478
 6 -5.73710983248325 -4.26317154405441 -0.04541187158716
 8 -5.67907976407641 -5.46398290699070 -0.25889896949695
 6 -4.49725533013301 -3.42158927162716  0.42549779937994
 6 -3.92623503830383 -3.85765946114611  1.75316720202020
 8 -4.14983759545955 -3.29499045494549  2.75566603060306
 8 -3.13210572627263 -4.87261754305431  1.58761450445045
 6 -2.55483901420142 -5.49622052735273  2.71732820312031
 6  2.68348839223922 -0.96562525312531 -1.15301950725072
 6  3.94235834563456 -0.68023264666467 -0.52181879507951
 6  4.97188948914891 -0.05012596499650 -1.07303270787079
 6  4.98228873907391  0.52841668336834 -2.41377391639164
 6  6.31190490259026  0.23873650195020 -0.35826728982898
 6  7.52707693489349 -0.42677201030103 -0.96814416781678
 6  8.78189166616662 -0.23954916181618 -0.09803468336834
 6  10.05476733143314 -0.75615009760976 -0.69201018091809
 6  10.07751154455446 -2.33597876367637 -0.82395651035104
 6  11.31983265786579 -0.27967763836384  0.05047257925793
 6  12.67904648924893 -0.62674115251525 -0.61031890909091
 6  13.83996040324032  0.04401169806981  0.20631699429943
 6  15.27792961406140 -0.28092112791279 -0.42643647944794
 6  15.71760908850885 -1.75056921882188 -0.21398113361336
 6  16.26652925012501  0.74890580178018  0.36511977637764
 6  17.67293413211321  0.59577531143114 -0.08975348314831
 6  18.63481333233323  1.70497911691169  0.46535522842284
 6  20.03895379127913  1.66124174947495 -0.03151039063906
 6  20.27299822932293  2.18346777797780 -1.51007741674167
 6  20.99071953755375  2.53473720982098  0.89211561226123
 1 -4.08365653325333  3.38188457275728  2.01138337663766
 1 -10.05872345734574  4.23244268076808 -0.48756743064306
 1 -10.50115845574557 -2.22176818681868 -1.28755864976498
 1 -2.87893394489449 -1.11901226532653  2.20033182788279
 1 -2.37392796039604  1.54087403850385  1.55207470587059
 1 -2.16197371327133  0.56879430113011  3.73228995429543
 1 -3.16208950925092  2.01419606320632  3.94086318751875
 1 -3.79239981938194  0.37026772907291  3.96579542524252
 1 -2.14908436233623 -1.77572144984499 -0.32836969326933
 1 -2.07667360596060  0.01035851015101 -0.49846850755076
 1 -0.12633695709571  0.22324645054505  1.14228025852585
 1 -0.31191420432043 -1.39378855885589  1.51377849684968
 1 -4.52097675507551  6.19999813741374  1.16720985898590
 1 -5.81519273807381  6.74479959865987  2.05872146914691
 1 -5.04626640364036  5.34231408080808  2.64602566316632
 1 -7.95408550745075  6.95281231493149  1.37961926822682
 1 -9.23244863766377  6.05563354885489 -1.42782217821782
 1 -9.51864614381438  7.57468275357536 -0.45899560366037
 1 -12.83332788018802  3.45461596009601 -0.46786918551855
 1 -11.96347526982698  3.82422738743874 -1.85739295679568
 1 -13.16451385138514  2.50969658785879 -1.94828787568757
 1 -12.48537336323632 -1.21569169546955 -1.14643921772177
 1 -13.72201294359436  0.28265792719272 -1.51289496679668
 1 -12.79379389438944  0.47596461156116 -3.82001084448445
 1 -11.43965017271727 -0.75154455085509 -3.63819461616162
 1 -13.39339741294129 -1.04855221332133 -3.79286314501450
 1 -9.84491203800380 -4.61248334023402 -0.41998780268027
 1 -9.29964187438744 -4.52906992049205 -2.18119864046405
 1 -8.35042674817482 -5.25064584448445 -1.07986263976398
 1 -3.60310603790379 -3.55959331063106 -0.36649970977098
 1 -1.92541940994099 -6.34334093779378  2.22217792179218
 1 -1.71937850955095 -4.75337507650765  3.27064151445145
 1 -3.37005806120612 -5.69544654465447  3.63119463966397
 1  2.44833662546255 -2.14325106620662 -1.40902803610361
 1  2.54596643954395 -0.40403184118412 -2.06274389368937
 1  4.08645008090809 -0.93657172767277  0.55544458885889
 1  5.38318358285829  1.55668336613661 -2.30307289468947
 1  5.74193115691569  0.04893084828483 -3.23539660676068
 1  3.93218970417042  0.60304311021102 -2.74645000190019
 1  6.42673277037704  1.38885202910291 -0.33443864426443
 1  6.19800762656266  0.01902631733173  0.68667836193619
 1  7.48164881798180 -1.55797984338434 -1.05890073617362
 1  7.91745149624963 -0.06165066046605 -2.06090494819482
 1  8.81538598019802  0.83085093659366  0.00066132463246
 1  8.53290602050205 -0.58484557155716  0.91474432733273
 1  10.36495336063606 -0.55332513421342 -1.81681240414041
 1  9.19103629122912 -2.68405706850685 -1.52162138763876
 1  10.98969583058306 -2.82226390279028 -1.34485023062306
 1  10.15413385518552 -2.85404728222822  0.20930740924092
 1  11.19551374147415  0.69055667946795  0.13544700730073
 1  11.32574014341434 -0.73029151465146  1.01168168986899
 1  12.89924643264326 -1.63892777177718 -0.77130057285729
 1  12.51276159275927 -0.18130540344034 -1.86531985048505
 1  13.80569160466047  1.08398879467947  0.43853902800280
 1  13.74515935143514 -0.36762971697170  1.14470404660466
 1  15.17067856525653 -0.10332713291329 -1.58014466426643
 1  14.86599199419942 -2.48241652545255 -0.57327134763476
 1  16.56804354065407 -1.92837867736774 -0.60013140574057
 1  15.92240495809581 -2.04046366496650  0.82662536383638
 1  15.70857804940494  1.74870795949595 -0.05737189358936
 1  16.06413273597360  0.55797960706071  1.46683868066807
 1  17.98075415271527 -0.44581305990599  0.16564187948795
 1  17.74307703310331  0.60587355045505 -1.27516482108211
 1  18.23661536743674  2.72894162186219  0.14122061706171
 1  18.89020203440344  1.64067290409041  1.71535279087909
 1  20.44714294409441  0.74944567826783  0.03553649074908
 1  19.91363406060606  3.08489062116212 -1.43407838203820
 1  21.38086660386038  1.98691429522952 -1.72419774317432
 1  19.80238847464746  1.56290632723272 -2.16681186238624
 1  20.89034404750475  1.90120967126713  1.84138806660666
 1  22.08917275897590  2.48925704230423  0.63796569636964
 1  20.47398506120612  3.50949061956196  1.11237384178418
 1 -7.29259304180418  1.81633590559056  0.47532078887889
 1 -7.67511887848785 -0.20293516911691 -0.18320164036404

