%nproc=4
%Mem=2GB
# td=(NStates=1) B3LYP/SVP 

TD

0 1
 6 -5.12955580608061 -1.98243804980498  0.36380500560056
 6 -4.74165032323232  2.75198542754275  1.59634631073107
 6 -9.26722596619662  3.27561375767577 -0.35937055325533
 6 -9.81989384048405 -1.51376297089709 -1.04311045644564
 7 -5.20810755875588  0.38382484358436  0.97768522652265
 6 -4.57191528912891 -0.75356434003400  0.90349643524352
 6 -3.13590534423442 -0.63843432693269  1.39656290569057
 6 -3.16662081448145  0.84563968156816  1.95669017441744
 6 -4.49882484058406  1.32979002440244  1.49779169056906
 6 -2.92303880178018  0.78005630663066  3.43622348034803
 6 -2.18235357815782 -0.86308132223222  0.18489509720972
 6 -0.74440282838284 -0.75489434423442  0.75973373847385
 6  0.36215072097210 -1.03096001330133 -0.43668952615262
 8  0.01576131203120 -1.29486917681768 -1.59302175677568
 8  1.66934200940094 -0.74588100660066 -0.11118611061106
 7 -7.08391157215722  2.72947768966897  0.55451604560456
 6 -5.91335551655165  3.34372110461046  1.14981910731073
 6 -6.22521379387939  4.73244132793279  1.00200175187519
 6 -7.59676274077408  4.97625894889489  0.58499372947295
 6 -8.03304875527553  3.61200979987999  0.25042637893789
 6 -5.27831698809881  5.79821360376038  1.64921092499250
 6 -8.13245983418342  6.36111582928293  0.28626368066807
 6 -8.79642716551655  6.69134842544254 -0.75813442974297
 7 -9.18220161946195  0.86696517111711 -0.50489746514651
 6 -9.80307208460846  2.06243954565457 -0.70949976067607
 6 -11.17406364436444  1.95514915441544 -1.08743281458146
 6 -11.41067650815082  0.60721476287629 -1.22267232883288
 6 -10.19415612401240 -0.05513256265627 -0.85687916831683
 6 -12.19332352955296  3.10019258835884 -1.27893232233223
 6 -12.63185328272827 -0.16823592199220 -1.67578981398140
 6 -12.62347681728173 -0.38926357275728 -3.16136332073207
 7 -7.50091321702170 -1.31321563606361 -0.31642798789879
 6 -8.58731471697170 -2.05685229942994 -0.77685461386139
 6 -8.10597420462046 -3.40695529702970 -0.83144688318832
 6 -6.88314034223422 -3.42731861616162 -0.34949705500550
 6 -6.46093463306331 -2.06518831793179 -0.00754860076008
 6 -9.02562654775477 -4.53165656565657 -1.22750525732573
 6 -5.81220734223422 -4.33240846774678 -0.05329265966597
 8 -5.73621547764777 -5.54946145484548 -0.08762184178418
 6 -4.59540514511451 -3.36568368106811  0.38476372597260
 6 -3.98710112491249 -3.82127582278228  1.66151803710371
 8 -4.22450506220622 -3.34744570047005  2.74912537653765
 8 -3.01704422012201 -4.85040532183218  1.59827557055706
 6 -2.66100963126313 -5.49999090439044  2.74725119541954
 6  2.60023006640664 -1.03902259285929 -1.07115132043204
 6  3.98669277907791 -0.78127275067507 -0.50468708190819
 6  5.01528382858286  0.09409845744574 -0.92477788238824
 6  5.03893440364036  0.83241708340834 -2.25504804380438
 6  6.26511022312231  0.21022365066507 -0.10801226432643
 6  7.46817104430443 -0.26676600970097 -0.79375672907291
 6  8.79377285428543 -0.24087929482948  0.12422754285429
 6  10.08409026372637 -0.70528501110111 -0.61896287618762
 6  10.08424221762176 -2.15426059185919 -0.97174128882888
 6  11.39485015961596 -0.30241991259126  0.12053958595860
 6  12.69502808740874 -0.64660313871387 -0.61066894409441
 6  13.91468787598760 -0.01302400550055  0.26594295689569
 6  15.28750057115711 -0.21423445924592 -0.33295713151315
 6  15.62028935653565 -1.69419358125813 -0.38197793329333
 6  16.25988858605861  0.63815472667267  0.33718698309831
 6  17.72805964466447  0.59050478437844 -0.24820932873287
 6  18.65361521252125  1.64211283028303  0.42985167806781
 6  20.02301219711971  1.69308493379338 -0.18583582318232
 6  20.03814474397440  2.36503593479348 -1.54729113811381
 6  21.08298876447645  2.39637337343734  0.74087048774877
 1 -4.06500466806681  3.39957634193419  2.12806504480448
 1 -9.71620920592059  4.41913134963496 -0.51621029492949
 1 -10.57630597049705 -2.18391440144014 -1.38014790869087
 1 -2.90823687518752 -1.46178654275428  2.13032482718272
 1 -2.30589115671567  1.30667061816182  1.31044054245425
 1 -1.97449496539654  0.22447986968697  3.66976370167017
 1 -3.06871017131713  1.93956860046005  4.03021212241224
 1 -3.73379395879588  0.24061476377638  3.76680552625263
 1 -2.32330178407841 -1.97326120382038 -0.09213606990699
 1 -2.29078501710171 -0.29742226792679 -0.86159482018202
 1 -0.28857318071807  0.15263938983898  1.11582761326133
 1 -0.46082909580958 -1.50778995899590  1.60053717271727
 1 -4.20572522992299  5.67693583118312  1.27216035403540
 1 -5.64629584838484  6.89062418111811  1.04933053005301
 1 -5.55441721872187  6.05611546094609  2.92937399799980
 1 -7.85297539643964  7.16719375307531  1.02472377867787
 1 -9.11353674647465  6.13242122762276 -1.54338373437344
 1 -9.18608288748875  7.55216050135013 -0.73657336143614
 1 -12.50026457385739  3.41292179067907 -0.21556395499550
 1 -11.79947887018702  3.97421238593859 -1.95404262176218
 1 -13.26715411541154  2.66233185138514 -1.67002004890489
 1 -12.71578640454045 -1.12100222652265 -1.25305987978798
 1 -13.49869061136114  0.40687034843484 -1.48906258355836
 1 -12.71849636463646  0.64626164126413 -3.70061890529053
 1 -11.75271147884789 -0.85111450785079 -3.62572336903690
 1 -13.37928600180018 -0.87217457555756 -3.70909476817682
 1 -10.04256180298030 -4.55558765066507 -0.44610041394139
 1 -9.32464437463746 -4.18053506700670 -2.32478299889989
 1 -8.47082878837884 -5.47119789968997 -1.32649730323032
 1 -3.96409213651365 -3.67298464976498 -0.45883894369437
 1 -1.93971083908391 -6.20737734143414  2.57278298229823
 1 -2.08775534723472 -4.80467020602060  3.42439688998900
 1 -3.52848390379038 -5.83234023402340  3.51240276047605
 1  2.67863965576558 -2.00453719481948 -1.71631876517652
 1  2.56432827572757 -0.38089952795280 -1.92212983228323
 1  4.27311874777478 -1.30904897539754  0.29917896229623
 1  5.60699596409641  1.74388208600860 -2.26743933133313
 1  5.65121208500850  0.08360431563156 -2.87653072017202
 1  4.06155264046405  0.76473927982798 -2.89011436833683
 1  6.30589068616862  1.26120926482648  0.23290809040904
 1  6.10307813361336 -0.30228581388139  0.98183787788779
 1  7.41408206130613 -1.33473751915192 -1.02748759485949
 1  7.65380513161316  0.21779728432843 -1.83251210891089
 1  8.93137757935794  0.62898074957496  0.57873913241324
 1  8.41560429032903 -0.94393148014801  1.06539939283928
 1  10.10586745204520 -0.08089789148915 -1.51077180008001
 1  9.06763395099510 -2.44630329312931 -1.57043626912691
 1  10.95225208620862 -2.51901357775778 -1.44996074167417
 1  10.17383582538254 -2.82992486998700 -0.17062058355836
 1  11.49306349644964  0.76971459525953  0.45962942554255
 1  11.38276584598460 -0.87335582108211  1.18072859455946
 1  12.86283279127913 -1.66079995899590 -0.58891233403340
 1  12.40634095069507 -0.38048532143214 -1.77952127062706
 1  13.88781981748175  0.92045244104410  0.70664583868387
 1  13.73435827132713 -0.52436539053905  1.29725930213021
 1  15.30637213461346  0.09708290809081 -1.25638228802880
 1  14.93437883288329 -2.33598188198820 -0.86484050455046
 1  16.66439317561756 -1.92445828532853 -0.81067245984598
 1  15.62366508410841 -2.23249286788679  0.64613731503150
 1  15.96739393099310  1.66547963666367  0.38557240084008
 1  16.29353567626763  0.48205201430143  1.42725472227223
 1  18.10515659295930 -0.48355683428343 -0.35950063476348
 1  17.65298802420242  0.92820578367837 -1.45207251185118
 1  17.97382908880888  2.42035076277628  0.30118661366137
 1  18.81633464766477  1.40020885768577  1.52437369296930
 1  20.24487271707171  0.59623035673567 -0.22772983588359
 1  19.72346504370437  3.39004113621362 -1.25709068326833
 1  21.02154067126713  2.42508811261126 -1.96969229262926
 1  19.44943317911791  1.97447748434843 -2.44645982718272
 1  21.00657567066707  1.81036058635864  1.71514544234423
 1  22.03556739843984  2.33830194679468  0.20887278707871
 1  20.69980764346435  3.45366503700370  0.85688829322932
 1 -7.32211599409941  1.76987125912591  0.56335959275928
 1 -7.56730809740974 -0.24150902650265 -0.28155147534754

