%nproc=4
%Mem=2GB
# td=(NStates=1) B3LYP/SVP 

TD

0 1
 6 -5.01508435893589 -1.93091289728973  0.28063668876888
 6 -4.67289344754475  2.66115634463446  1.38708538463846
 6 -9.32655189878988  3.37899409570957 -0.26434105030503
 6 -9.83405525662566 -1.32770436503650 -0.89994614001400
 7 -5.12521926992699  0.37059352045205  0.91258871687169
 6 -4.43587168476848 -0.75412439603960  0.78500458605861
 6 -3.08715046874687 -0.59465994949495  1.33169641904190
 6 -3.01586573897390  0.86028114571457  1.86083058845885
 6 -4.37274223232323  1.32391943734373  1.43432534393439
 6 -2.85586208410841  0.96163446444644  3.38408826682668
 6 -2.15927126992699 -0.82122713681368  0.13123973167317
 6 -0.71049943804380 -0.88931778657866  0.61807957305731
 6  0.29667417331733 -1.19191610891089 -0.48994485168517
 8  0.08935867176718 -1.63500319021902 -1.61761421602160
 8  1.58795387058706 -0.71725814431443 -0.11449644164416
 7 -6.92230541154115  2.78419316121612  0.53730432443244
 6 -5.90067424842484  3.38596532903290  1.00985511091109
 6 -6.13372464496450  4.83273135693569  1.00650220192019
 6 -7.38773183768377  4.96008733173317  0.46581181128113
 6 -7.99104455485549  3.64530312921292  0.22807414371437
 6 -5.12784194059406  5.80053383578358  1.38551455535554
 6 -8.02061865006501  6.21728144584458  0.34590964526453
 6 -8.97877540034003  6.58550784138414 -0.63756237253725
 7 -9.16036943624362  0.92846132073207 -0.46730370577058
 6 -9.86187796519652  2.08924222592259 -0.50579939063906
 6 -11.28631486948695  1.93339697919792 -0.91850592189219
 6 -11.41791723222322  0.63036707810781 -1.08231829342934
 6 -10.04953166156616  0.03214616521652 -0.86602008240824
 6 -12.21049524672467  3.06563913301330 -1.01524595369537
 6 -12.65745584298430 -0.25452455085509 -1.59457169216922
 6 -12.68439290889089 -0.40097474387439 -3.10530771517152
 7 -7.46091921762176 -1.30664497899790 -0.28513485858586
 6 -8.55547153265326 -1.92299891409141 -0.70966789518952
 6 -8.16148975617562 -3.35754035553555 -0.68826256475648
 6 -6.79152118031803 -3.40240612491249 -0.29193129842984
 6 -6.42588112771277 -1.99621142024202 -0.04296214211421
 6 -9.12533651875187 -4.58239163916392 -0.93749625642564
 6 -5.70882700420042 -4.31801702860286 -0.08590592099210
 8 -5.67401925802580 -5.46116262496250 -0.17932101170117
 6 -4.48117372197220 -3.29544665736574  0.31152640224022
 6 -3.86627904270427 -3.79183287848785  1.70115200050005
 8 -4.10442305400540 -3.42697365326533  2.81201166516652
 8 -3.04544706040604 -4.85507578887889  1.48518426142614
 6 -2.58484201450145 -5.58188909420942  2.61313778407841
 6  2.58255829922992 -1.03343203380338 -1.13585779107911
 6  3.88962307210721 -0.70770539393939 -0.58168478167817
 6  4.84869716991699  0.10116916451645 -1.06636204080408
 6  4.73102361256126  0.90023386508651 -2.43799633863386
 6  6.10502421452145  0.29289191749175 -0.41192265536554
 6  7.41063529072907 -0.52376170927093 -0.97461481488149
 6  8.73724720172017 -0.36668187508751 -0.13492837273727
 6  10.01251310601060 -0.81393587618762 -0.77411839173917
 6  10.09867366076608 -2.26280144594459 -0.93811792649265
 6  11.24503517811781 -0.37882755335534  0.10317784978498
 6  12.63514209880988 -0.58602708110811 -0.58357623482348
 6  13.81491789898990  0.04104140104010  0.18355471807181
 6  15.24590641174117 -0.27949098489849 -0.33961779757976
 6  15.67801512911291 -1.78596275817582 -0.32324205970597
 6  16.21016361356136  0.69077998919892  0.45984924932493
 6  17.64015085378538  0.76110184408441 -0.13388789658966
 6  18.51859171017102  1.67239585858586  0.66616530943094
 6  19.98407830373037  1.76186181148115  0.09143190359036
 6  20.05833676317632  2.13174260546055 -1.35398180718072
 6  20.85917638323832  2.68597233333333  1.04061046174617
 1 -3.96112428002800  3.39917630193019  1.91270350865087
 1 -10.07623520852085  4.22419185568557 -0.22662133603360
 1 -10.53888222812281 -2.17106311631163 -1.32418231213121
 1 -2.78331438293829 -1.45377574167417  2.06355815051505
 1 -2.24304487208721  1.43386333743374  1.31158065646565
 1 -1.64394191009101  0.73673109480948  3.74206093139314
 1 -2.95975927622762  1.98545318891889  3.81620072127213
 1 -3.56387696709671  0.08991969426943  3.81604044974497
 1 -2.38617807170717 -1.89693357105711 -0.43166002230223
 1 -2.29796573517352 -0.00816334203420 -0.57311597229723
 1 -0.42201652505250 -0.04894076817682  1.13179921042104
 1 -0.57657066996700 -1.87855703570357  1.32472959195920
 1 -4.33536819421942  5.61622976057606  0.71311444944494
 1 -5.45746696549655  6.81859697839784  1.31634723172317
 1 -5.05009678667867  5.77057690709071  2.41969302990299
 1 -7.73279337823782  7.12656969066907  0.89365067136714
 1 -9.32649804260426  5.97786577207721 -1.36748614461446
 1 -9.50183446264626  7.63707899319932 -0.73718342244225
 1 -12.31530607800780  3.59301980048005 -0.03902630123012
 1 -11.56227514981498  4.07761272597260 -1.43264048154815
 1 -13.15461286128613  3.01709732793279 -1.60020306720672
 1 -12.39408423432343 -1.20897102340234 -1.19672424622462
 1 -13.48896963926393  0.34234389578958 -1.29696337363736
 1 -12.78402291729173  0.54551156625663 -3.65096393979398
 1 -11.85165137283728 -0.86449584598460 -3.66012680938094
 1 -13.72825089828983 -0.77109446754675 -3.48664252295230
 1 -9.59273682048205 -4.67976006790679  0.04296849294930
 1 -9.67184909510951 -4.50542755625563 -1.86072659325933
 1 -8.42945465096510 -5.51777255715572 -1.14737939143914
 1 -3.68667439473947 -3.60596794809481 -0.43618667846785
 1 -2.12184905290529 -6.51228783248325  2.05174087808781
 1 -1.81947851955196 -5.10427016601660  3.26211066136614
 1 -3.38018907430743 -6.19406640664066  3.18939045924593
 1  2.53006479827983 -2.11208794989499 -1.42719985328533
 1  2.28295013791379 -0.42582402040204 -2.02662028132813
 1  4.13624506040604 -1.17459553005301  0.31117016141614
 1  5.09250451495150  2.01078877667767 -2.23193578097810
 1  5.26253321712171  0.34905086028603 -3.29369243634363
 1  3.60335682088209  0.96084889078908 -2.80961631853185
 1  6.54145424252425  1.37433057695770 -0.41364656505651
 1  6.31457928372837  0.04834924962496  0.70227992209221
 1  7.04391504460446 -1.56474051945195 -1.18320316641664
 1  7.69493924502450 -0.04492898829883 -2.04346320402040
 1  8.81642608420842  0.64791264276428  0.21243250175017
 1  8.49054178407841 -1.06069315631563  0.75427828072807
 1  10.12665953125313 -0.29026882858286 -1.59135985888589
 1  9.20331751935194 -2.73919258205821 -1.51770099559956
 1  11.10835769676968 -2.46734841124112 -1.53192893849385
 1  9.74412285408541 -2.85804768226823 -0.00703422492249
 1  11.12285647574757  0.80556818061806  0.33922738533853
 1  11.10311788118812 -0.89855834133413  1.05511603330333
 1  12.71729823782378 -1.66978085708571 -0.65803924672467
 1  12.51937225382538 -0.04065133803380 -1.47833115161516
 1  13.78833986948695  1.29345974177418  0.26435160926093
 1  13.70298513401340 -0.32482543654365  1.19657923412341
 1  15.06063756115612  0.05689888968897 -1.42565921572157
 1  15.12601799679968 -2.52986126992699 -1.04598861936194
 1  16.65598233453346 -1.65340117961796 -0.78782017461746
 1  15.76673939153915 -2.17191681028103  0.69918261956196
 1  15.53909110071007  1.59921301000100  0.18771261486149
 1  16.28293461616162  0.10286409550955  1.43160515731573
 1  17.88476455375537 -0.39286776537654 -0.23148783348335
 1  17.81802452785278  0.83209617271727 -1.27575488008801
 1  18.20172187808781  2.73160188788879  0.69264575957596
 1  18.68839185338534  1.50825966276628  1.76844810041004
 1  20.41773000280028  0.86931766546655  0.05486842394239
 1  19.48035073227323  3.13042517461746 -1.69476445064506
 1  21.13078159535953  2.32378798259826 -1.67258258165817
 1  19.64754299009901  1.30413044964496 -1.94650983218322
 1  21.03848886198620  2.53921347164716  2.17151107890789
 1  21.92600644234423  2.87558567516752  0.76915881568157
 1  20.48442610531053  3.81074074457446  1.13110571497150
 1 -7.26215999849985  1.85330960296030  0.50159341614161
 1 -7.51387275387539 -0.26290116571657 -0.20192351255126

