%nproc=4
%Mem=2GB
# td=(NStates=1) B3LYP/SVP 

TD

0 1
 6 -5.07254010451045 -1.97306711271127  0.51183980908091
 6 -4.57700385858586  2.70011024002400  1.46160283638364
 6 -9.08850809440944  3.41421761806181 -0.36028064426443
 6 -9.78611046214621 -1.37244883948395 -1.05629177457746
 7 -5.18495524352435  0.35851231233123  0.94192165016502
 6 -4.58403650125013 -0.80580956455646  0.91696778237824
 6 -3.13735548924892 -0.71355183868387  1.43275652505251
 6 -3.06238039043904  0.74284940254025  1.95851035643564
 6 -4.27717267536754  1.36855390079008  1.34559647104710
 6 -2.86338283618362  0.81773007400740  3.38876873487349
 6 -2.04532987578758 -0.91106612071207  0.27957456515652
 6 -0.56965535363536 -1.05146400120012  0.80375814091409
 6  0.32522702860286 -1.29173609090909 -0.41951780898090
 8 -0.08142840694069 -1.68432812271227 -1.53478593319332
 8  1.62243731893189 -1.06030244874487 -0.05453044504450
 7 -6.92324550555055  2.77679242114211  0.42427302130213
 6 -5.81245542654265  3.43503023552355  1.00526465186519
 6 -6.03924519701970  4.77388547234724  1.05708726042604
 6 -7.30774383888389  5.04124544754475  0.51420665076508
 6 -7.90701615201520  3.73839243814381  0.18125946224622
 6 -5.08108726512651  5.74706848924892  1.59639564346435
 6 -7.81628821702170  6.27942766046605  0.34406946124612
 6 -8.73320084288429  6.75760505110511 -0.59022763906391
 7 -9.16174957425743  0.95247372197220 -0.61232820822082
 6 -9.68357013441344  2.13765706740674 -0.74412322302230
 6 -11.08739497749775  2.03310695019502 -1.08687275857586
 6 -11.33032847334733  0.64394843624362 -1.27506756835684
 6 -10.15131183958396  0.01529448004800 -0.98548202860286
 6 -12.13354755195520  3.18175074417442 -1.23989841894189
 6 -12.56652675007501 -0.01764086248625 -1.85711794679468
 6 -12.49660413001300 -0.10781542794279 -3.47472465686569
 7 -7.45306843254325 -1.18127244174417 -0.23161950705070
 6 -8.61582756825683 -1.98567518171817 -0.68261518991899
 6 -8.26075968316832 -3.42490709220922 -0.67831156965697
 6 -6.83847587578758 -3.44438032233223 -0.38144024932493
 6 -6.45737427702770 -2.06873867296730  0.04760691479148
 6 -9.13142712781278 -4.58605200520052 -1.01094360116012
 6 -5.79505562706271 -4.38320354725473  0.04342701230123
 8 -5.82959481558156 -5.57624413311331  0.27097401780178
 6 -4.54011961656166 -3.40511762446245  0.46370161976198
 6 -3.95208762356236 -3.90971466666667  1.83558544384438
 8 -4.13316592829283 -3.50253120902090  2.91853231723172
 8 -3.23752626832683 -5.02250253155316  1.58972471547155
 6 -2.70509403970397 -5.65703660896090  2.83076954725473
 6  2.55905594899490 -1.32312100270027 -1.00303450875088
 6  3.95250936073607 -1.10194481788179 -0.67541415461546
 6  4.78424072427243 -0.18226917931793 -1.02124752935294
 6  4.64244475467547  0.62869671137114 -2.28098063706371
 6  6.09560327242724 -0.00684805650565 -0.17627909100910
 6  7.41294552175218 -0.34091342444244 -0.98687604100410
 6  8.66148962596260 -0.21531673857386 -0.11067594749475
 6  9.90105195989599 -0.56365084768477 -0.96882786268627
 6  9.94117791119112 -2.00377554335434 -1.38130224492449
 6  11.12124279887989 -0.06370604120412 -0.11792426042604
 6  12.50553913851385 -0.22379085748575 -0.68574645184518
 6  13.82324873207321  0.10586788368837  0.14488085068507
 6  15.15241706280628  0.09654661886189 -0.47952178797880
 6  15.56776410401040 -1.35680984288429 -0.81024075957596
 6  16.21788438563857  0.88412932413241  0.36287955235524
 6  17.61238807750775  0.83143887778778 -0.12558706650665
 6  18.60677052805280  1.66764538353835  0.61615030793079
 6  20.06523641954195  1.66265189048905  0.23587634803480
 6  20.15524645414542  2.29975940714071 -1.19290569956996
 6  20.97012747834783  2.30626436253625  1.20275667636764
 1 -3.83979214681468  3.37141352565257  2.18864110241024
 1 -9.77028461346135  4.36628606510651 -0.58213688758876
 1 -10.57977631753175 -2.24315032503250 -1.10984087798780
 1 -2.90602665416542 -1.41019138323832  2.23000479517952
 1 -2.20276084368437  1.33053300440044  1.69068856725673
 1 -1.90215773167317  0.64209163086309  3.70701742704270
 1 -3.21879517981798  1.80814545814581  3.73269237043704
 1 -3.50638121752175  0.03493419571957  3.89827867356736
 1 -2.34946440034003 -1.72116599429943 -0.39224608090809
 1 -2.09255519411941 -0.21525405110511 -0.25368402910291
 1 -0.25454977837784 -0.21565743984398  1.36825285578558
 1 -0.35046805970597 -1.97489666966697  1.47538465746575
 1 -4.06653131053105  5.87716585418542  1.06372951095109
 1 -5.51338255705571  6.67771288998900  1.64437003400340
 1 -4.74123590059006  5.46945679507951  2.75862692329233
 1 -7.62957305620562  7.03199023272327  1.20499180548055
 1 -8.91167656045604  6.14006199169917 -1.45085448144814
 1 -9.07046132533253  7.60798608390839 -0.69985969006901
 1 -12.13058760616062  3.85098559705971 -0.41868426702670
 1 -11.91940086238624  3.78194315901590 -2.06610382788279
 1 -13.09119651965197  2.62809842804280 -1.37233027992799
 1 -12.64162898879888 -1.07468759505951 -1.51254582838284
 1 -13.52514325662566  0.56616627802780 -1.37552122942294
 1 -12.49315383038304  0.94407142224222 -3.98792763616362
 1 -11.56325253295330 -0.85317471387139 -3.95609640634063
 1 -13.31656973017302 -0.80964832293229 -3.71776563526353
 1 -10.22672021882188 -4.57499959185919 -0.59295509940994
 1 -9.23766567676768 -4.48198521202120 -2.02367288788879
 1 -8.56973867936794 -5.38067884778478 -0.84593924742474
 1 -3.85451117841784 -3.37450480178018 -0.20992405220522
 1 -2.18232510051005 -6.52465906960696  2.54454015801580
 1 -2.33355992769277 -4.87102684168417  3.48788323862386
 1 -3.59508056345635 -5.99075607560756  3.64427594779478
 1  2.21475326712671 -2.31537827892789 -1.40322745604561
 1  2.26202804570457 -0.65283672167217 -1.88098571787179
 1  4.22085352125213 -1.67863593409341  0.20239928432843
 1  4.78342360686069  1.69577727552755 -2.08849143654365
 1  5.57087405120512  0.32519847504750 -2.87216028312831
 1  3.68149463466347  0.63328613451345 -2.66119147604760
 1  6.20422051915192  1.16067921182118  0.14465926552655
 1  5.92052987878788 -0.52709829512951  0.75895558965897
 1  7.32749340244024 -1.46253029842984 -1.49183402950295
 1  7.46544629572957  0.36246175077508 -1.85961481918192
 1  8.65592003360336  0.83846169766977  0.09380063856386
 1  8.65014774467447 -0.90612769976998  0.90615346824682
 1  9.79198606390639  0.02933313161316 -1.84141486438644
 1  9.17214440204020 -2.58057672047205 -2.17779700520052
 1  11.06629349034904 -2.28883055945595 -1.67074281988199
 1  9.74226266806681 -2.58257013451345 -0.64034755625563
 1  11.05950014011401  0.90020764456446  0.23752721532153
 1  11.16353392279228 -0.76022450795079  0.82661318301830
 1  12.58371487948795 -1.24464834383438 -0.92187563036304
 1  12.59862017861786  0.30592331943194 -1.70455377387739
 1  13.65817685318532  1.09271966776678  0.41946712081208
 1  13.69595443094309 -0.25433838783878  1.15942551875188
 1  15.02914441184118  0.75441864166417 -1.35516216601660
 1  14.74340973597360 -1.91554983878388 -1.48591261176118
 1  16.35163189948995 -1.40879671917192 -1.75140653325333
 1  16.23169588718872 -1.99083870247025  0.20628332963296
 1  15.83055024662466  1.81535462416242  0.48238208180818
 1  16.09632595529553  0.30418422752275  1.40876287308731
 1  18.13039911721172 -0.17624610321032 -0.23366805150515
 1  17.60485321072107  1.33043600670067 -1.24465176977698
 1  18.29838154405441  2.89806853455346  0.90049654465447
 1  18.51948496269627  1.42995183198320  1.57828908450845
 1  20.34352258205821  0.59273000670067  0.02467540464046
 1  19.72687538473847  3.31572370447045 -1.16782175637564
 1  21.14398291549155  2.10053565736574 -1.31197652105210
 1  19.49740797659766  1.50345038163816 -1.92477765896590
 1  21.17210222332233  1.86176572687269  2.24354828262826
 1  22.05420926262626  2.26664478107811  0.73737563736374
 1  20.63000066276628  3.36413608410841  1.37007961236124
 1 -7.08033181568157  1.78385265726573  0.38445170197020
 1 -7.52404377097710 -0.24221909750975 -0.17647096729673

