%nproc=4
%Mem=2GB
# td=(NStates=1) B3LYP/SVP 

TD

0 1
 6 -5.20911376187619 -2.02360216621662  0.47205583068307
 6 -4.67144330253025  2.75559578857886  1.45413208930893
 6 -9.27307655125512  3.47660385668567 -0.23383800000000
 6 -9.84070592169217 -1.29047064166417 -0.92529867526753
 7 -5.26354310231023  0.47164362546255  0.68904636263626
 6 -4.59373747134713 -0.78533751735174  0.84137022262226
 6 -3.09206095979598 -0.64596508000800  1.34487773717372
 6 -3.15487964036404  0.81710682828283  1.91082558795880
 6 -4.47801275937594  1.38451549694969  1.32244415581558
 6 -3.20166666456646  0.71118941994199  3.43042290029003
 6 -1.94135947874787 -0.74701971607161  0.23105971367137
 6 -0.58454684278428 -0.99243809860986  0.75023278837884
 6  0.38313281918192 -1.19616653395340 -0.33370922812281
 8  0.20943067896790 -1.91154084398440 -1.41026348094809
 8  1.67792286748675 -0.87411382988299 -0.04627961996200
 7 -6.96336951795180  2.83777851975197  0.51398199219922
 6 -5.82470665166517  3.39485621812181  1.01179530493049
 6 -6.10092136463646  4.78966705050505  1.09035058675868
 6 -7.39686275077508  5.02850417341734  0.65985121522152
 6 -7.96915236563656  3.77854645354535  0.22926426272627
 6 -5.10303946034603  5.80870465286529  1.65038104200420
 6 -7.97542413061306  6.31866158385839  0.67649270357036
 6 -8.77391491429143  6.74478376897690 -0.44790340664066
 7 -9.10132353165316  0.95426390099010 -0.55597257265727
 6 -9.73213499089909  2.19360266196620 -0.76079489018902
 6 -11.15176141414141  2.06999063856386 -1.19961403270327
 6 -11.33545898639864  0.71946598799880 -1.34331439303930
 6 -10.05066177457746  0.05185813641364 -0.99555303570357
 6 -12.03260745794579  3.13671624072407 -1.47982241134113
 6 -12.58236833423342 -0.11943104150415 -1.83238547354736
 6 -12.48809327892789 -0.35528017441744 -3.38820600500050
 7 -7.48691181688169 -1.22504681918192 -0.24632097719772
 6 -8.59718570407041 -1.91793840804080 -0.64042097049705
 6 -8.22540614781478 -3.31275587708771 -0.68327206570657
 6 -6.89126115431543 -3.43227911221122 -0.37566967226723
 6 -6.45094363396340 -2.08655045414541  0.00423257735774
 6 -9.28897288238824 -4.34223762376238 -1.02732523932393
 6 -5.79150527202720 -4.31371659855986 -0.02481981238124
 8 -5.75180703680368 -5.55115162386239 -0.15804888448845
 6 -4.56400200480048 -3.42862997569757  0.42637788738874
 6 -4.05937835263526 -3.92857655285529  1.78337022232223
 8 -4.30269288098810 -3.35956691259126  2.86060652465247
 8 -3.33859637533753 -5.07657793909391  1.70164590759076
 6 -3.17877140744074 -5.92972387768777  2.92315878617862
 6  2.68979902330233 -1.29566825742574 -1.02619682498250
 6  3.96305041484148 -0.94336896029603 -0.36517313051305
 6  4.88434073427343 -0.17212816521652 -0.99809521412141
 6  4.79375988618862  0.30242408410841 -2.54713725272527
 6  6.28571228332833  0.18018064636464 -0.41194265736574
 6  7.53672789999000 -0.56316564966497 -0.93490084348435
 6  8.66486996399640 -0.22553776067607 -0.13535841574157
 6  9.99279113381338 -0.78215269786979 -0.76080706060606
 6  9.88578237163716 -2.34262942874287 -0.93978809350935
 6  11.19734040864086 -0.22768243884388  0.02949048104810
 6  12.65994457905791 -0.61059953835384 -0.53624150135013
 6  13.80425683288329  0.05346264316432  0.17530389298930
 6  15.30645246634663  0.00646761096110 -0.46006984278428
 6  15.87412474007401 -1.37936209810981 -0.84504423992399
 6  16.26541913911391  0.82575348654865  0.33993725812581
 6  17.70999783848385  0.97700343424342 -0.28474298209821
 6  18.61678152915291  1.87810642964296  0.52386107900790
 6  20.09834973087309  1.84772039733973  0.00028278867887
 6  20.36718764826483  2.59239867106711 -1.34114052305231
 6  20.97728819441944  2.46577031313131  1.02211861256126
 1 -3.67238540614061  3.27372375667567  1.67349958825883
 1 -9.96300388538854  4.35937537403740 -0.34366304020402
 1 -10.47442578247825 -2.09561557155716 -1.52236213011301
 1 -2.79148520002000 -1.43275363946395  2.18108990369037
 1 -2.13056362396240  1.22425237633763  1.80027952635264
 1 -2.17327484338434  0.49246666836684  3.82131885718572
 1 -3.58190149044904  1.61277592119212  3.94716381758176
 1 -3.89689026842684 -0.02903220092009  3.76696554225423
 1 -2.05635508940894 -1.75430930863086 -0.44391124742474
 1 -2.20043598219822  0.06673414771477 -0.41567022772277
 1  0.00502617921792 -0.04550042414241  1.17882391289129
 1 -0.54350736363636 -1.82506168616862  1.26951407040704
 1 -4.07700235763576  5.93417155475548  1.15602874087409
 1 -5.45763698249825  6.83086820552055  1.69183478047805
 1 -4.82345412241224  5.76321617101710  2.68403946454646
 1 -7.58626872577258  7.12348938263826  1.49149045534554
 1 -8.88787418021802  6.06634461996200 -1.32809220522052
 1 -9.07215149434943  7.74253953925392 -0.33213291739174
 1 -11.99623417081708  3.84528502700270 -0.52279467806781
 1 -11.59018794109411  3.81398636333633 -2.15700291779178
 1 -12.92874027402740  2.73175879407941 -1.81659470637064
 1 -12.62501732763276 -0.84640476677668 -1.05226980078008
 1 -13.69541028332833  0.35814547594760 -1.45354903220322
 1 -12.23495801080108  0.60613762886289 -3.88090693409341
 1 -11.88793500120012 -1.30511990839084 -3.50694149084909
 1 -13.41166924012401 -0.93426078417842 -3.60835469416942
 1 -9.97841538833883 -4.20621271317132 -0.22248805270527
 1 -9.67544945514551 -4.31704871837184 -1.94703522412241
 1 -8.77073877937794 -5.32261304120412 -0.90943559705971
 1 -3.77392311961196 -3.77328467976798 -0.28243130293029
 1 -2.61550841884188 -6.88303490719072  2.61170687468747
 1 -2.54115068676868 -5.50141988098810  3.75783023332333
 1 -4.15232628802880 -6.23635063506351  3.34004552475248
 1  2.47260905270527 -2.45939268036804 -1.24885201850185
 1  2.41203304620462 -0.84020545854585 -2.02843046234623
 1  4.14725616151615 -1.19519759025903  0.91458050245024
 1  5.06992225672567  1.31995969376938 -2.51576416381638
 1  5.26748371217122 -0.26944098889889 -3.38315138223822
 1  3.76673315851585  0.33103590949095 -2.77476283318332
 1  6.45514561166117  1.25434857875788 -0.28478367876788
 1  6.06460428622862 -0.25941152645265  0.56914660876088
 1  7.11047170027003 -1.51385543094309 -0.93066791289129
 1  7.70092984408441 -0.33452794819482 -2.03582243994399
 1  8.81781622322232  0.82247009850985  0.04145540404040
 1  8.67063979387939 -0.70564765176518  0.96924977787779
 1  10.20990785608561 -0.35193499519952 -1.77417814071407
 1  9.11871905950595 -2.67899656245625 -1.53110233573357
 1  10.90510737173717 -2.86721839823982 -1.16972271787179
 1  9.54911335313531 -2.75203708120812  0.11311779027903
 1  11.26537072717272  0.76707433123312 -0.05382191959196
 1  11.10165773517352 -0.45105359085909  1.23327384908491
 1  12.66761326932693 -1.58074195319532 -0.66714015681568
 1  12.66517683428343 -0.29632690559056 -1.61249456795680
 1  13.52826386188619  1.15507590339034  0.39301447554755
 1  14.01171600710071 -0.45380833483348  1.29153873007301
 1  15.16586808420842  0.69377257705771 -1.27193384318432
 1  15.07587298229823 -1.95554383818382 -1.46974099459946
 1  16.83602033833384 -1.55512135163516 -1.21766315891589
 1  15.92924564216422 -1.82468208680868  0.12235493679368
 1  16.07008420002000  1.87729081778178  0.34069791339134
 1  16.45962228492849  0.66428023712371  1.34075607240724
 1  18.13972004930493 -0.15625410401040 -0.51991667636764
 1  17.62599532493249  1.53976693979398 -1.32339964456446
 1  17.82698440434044  2.87669639733973  0.46826332133213
 1  18.59706272047205  1.49837867466747  1.71767302290229
 1  20.37345557535754  0.86818755245525 -0.22487955085509
 1  19.97849054625463  3.68446057815782 -1.19088406260626
 1  21.23380189738974  2.42625822962296 -1.72680800420042
 1  19.62668090389039  2.24473451005101 -2.00349553075308
 1  20.76669168226823  2.07082663296330  2.09356328412841
 1  22.05613945564556  2.38388650525052  0.88931083088309
 1  20.84371203390339  3.64335400590059  1.13445605000500
 1 -6.97270105260526  1.83355762776278  0.55485874267427
 1 -7.35368673527353 -0.20038491409141 -0.06722004220422

