%nproc=4
%Mem=2GB
# td=(NStates=1) B3LYP/SVP 

TD

0 1
 6 -5.08754160466047 -2.09710951695169  0.51384000910091
 6 -4.65762192039204  2.72842307130713  1.49266594269427
 6 -9.19972921652165  3.38207440374037 -0.37860247644764
 6 -9.80373222432243 -1.40861245584558 -0.86191233663366
 7 -5.18497524552455  0.39285574667467  0.95924338233823
 6 -4.51746984458446 -0.82217120072007  0.95249133473347
 6 -3.08725047874787 -0.53206368986899  1.37684093349335
 6 -3.10058421082108  0.77574269186919  1.93456796219622
 6 -4.43002796089609  1.29966701210121  1.40851276267627
 6 -3.03447994589459  0.84623292429243  3.41968182618262
 6 -2.11004634743474 -0.71809682378238  0.11696830453045
 6 -0.61615000310031 -0.86736559135914  0.64536230133013
 6  0.33573807970797 -1.02454937223722 -0.40123598079808
 8  0.02753248914891 -1.31972166206621 -1.58036049064906
 8  1.62734780998100 -0.74179059755976 -0.06864185618562
 7 -6.83151633263326  2.77088183008301  0.49566016001600
 6 -5.83140732173217  3.39602633513351  1.10812493789379
 6 -6.07337861036104  4.75509359315932  1.14923647534753
 6 -7.32996606110611  4.90336165916592  0.44520975107511
 6 -7.90008545894590  3.61396999589959  0.16121745804580
 6 -5.30516967336734  5.76995077747775  1.72375837973797
 6 -8.08105469366937  6.19162888058806  0.32909796409641
 6 -8.92014953775378  6.57609690029003 -0.69041765806581
 7 -9.13891729102910  0.97296577117712 -0.50099707510751
 6 -9.83563534093409  2.18376167786779 -0.66248505920592
 6 -11.11546778477848  1.98434207370737 -1.11834590589059
 6 -11.33939938043804  0.59782382378238 -1.29552961456146
 6 -10.01585829422942 -0.00142719211921 -0.85075855625563
 6 -12.14116831403140  3.02593516261626 -1.35672010111011
 6 -12.55176527392739 -0.14954405280528 -1.76483871887189
 6 -12.60193466306631 -0.37834248064806 -3.27230441484148
 7 -7.42772589828983 -1.28775308980898 -0.21551789688969
 6 -8.56563254875488 -1.96628324252425 -0.67211413981398
 6 -8.23812741994199 -3.41028563006301 -0.65593933243324
 6 -6.81182321052105 -3.44891077537754 -0.22767487278728
 6 -6.44833337293729 -2.10473227232723  0.00144229832983
 6 -9.05516950205021 -4.55014841484148 -1.07903040984098
 6 -5.78491461296130 -4.36030125702570  0.13297596719672
 8 -5.66384824092409 -5.52401891059106 -0.08070114971497
 6 -4.49752535713571 -3.37347446014601  0.52374762436244
 6 -3.87653006780678 -3.90615431063106  1.74256614191419
 8 -4.11314392609261 -3.43991494739474  2.87841830583058
 8 -3.10274278997900 -4.87720800210021  1.55163090609061
 6 -2.54901843214321 -5.51492239753975  2.74032050235023
 6  2.58348839223922 -0.93143183378338 -1.04396860216022
 6  3.83803791359136 -0.57433205660566 -0.52135874907491
 6  4.92421472167217  0.01878092569257 -1.13598900350035
 6  4.74925543574357  0.61611545324532 -2.51428396739674
 6  6.15836954905491  0.31314394269427 -0.36577804090409
 6  7.45363959115912 -0.39367870097010 -1.00162751615162
 6  8.63681715871587 -0.18592379927993 -0.20364524442444
 6  10.09612146684668 -0.77033151575158 -0.85106608650865
 6  10.01553534693469 -2.28761392719272 -1.00151426612661
 6  11.28556923152315 -0.31017068766877 -0.01393386138614
 6  12.63221180578058 -0.70643912231223 -0.73965184238424
 6  13.72739914711471  0.07506480338034  0.06358272087209
 6  15.28353017411741 -0.27863089888989 -0.51467530333033
 6  15.52659998759876 -1.67574173607361 -0.73903363886389
 6  16.20543314051405  0.49418032923292  0.44969823422342
 6  17.54253109180918  0.63843957785779 -0.07925243304330
 6  18.47671752275227  1.62307092609261  0.66726541944194
 6  19.95378527442744  1.75586121142114  0.19318207860786
 6  20.16918784828483  2.32547197839784 -1.26476288528853
 6  20.81475194079408  2.56098983508351  1.24885128582858
 1 -3.89910807840784  3.32224860916092  1.78637087538754
 1 -9.79807739273927  4.25638507500750 -0.47583625752575
 1 -10.55300364026403 -2.02496850685069 -1.15871576547655
 1 -2.64792084358436 -1.44345470957096  2.04132592729273
 1 -2.26273684128413  1.37008695979598  1.52004150255026
 1 -2.11656917281728  0.46007342904290  3.71780850615062
 1 -3.17076037633763  1.93085772937294  3.84539364056406
 1 -3.79388996839684  0.33536423872387  3.88544739043904
 1 -2.31228068196820 -1.48587246494649 -0.84377123342334
 1 -2.16973291189119  0.29458693299330 -0.43174183488349
 1 -0.33595791919192  0.24783890979098  1.12887891839184
 1 -0.51959497239724 -1.57916709670967  1.57320443944394
 1 -4.18290294769477  5.58825696329633  1.41493463146315
 1 -5.65048626742674  6.85477059575958  1.56771236823682
 1 -5.36023780078008  5.59426927632763  2.86131719231923
 1 -8.17146724562456  7.00018705240524  1.20166147244724
 1 -9.08343373617362  5.94585257075708 -1.53141253725373
 1 -9.19611389058906  7.70783606890689 -0.62777248134813
 1 -11.98768331573157  3.99514001250125 -0.49643204180418
 1 -11.88607753005301  3.49655462016202 -2.38105532303230
 1 -13.14108150815082  2.58883450165016 -1.43905695259526
 1 -12.83114794069407 -1.15858598489849 -1.17362193599360
 1 -13.40850159245925  0.43425308670867 -1.57425110241024
 1 -12.64606912191219  0.65325234033403 -3.80797964136414
 1 -11.70967717541754 -1.07775717211721 -3.53818461516152
 1 -13.64505257845785 -0.84959231733173 -3.68823268196820
 1 -9.93215076187619 -4.74490658255826 -0.40077588148815
 1 -9.56417832803280 -4.38310532403240 -1.86610713131313
 1 -8.35992769826983 -5.47420820072007 -1.18238289178918
 1 -3.89994572187219 -3.56538388968897 -0.44743780358036
 1 -1.82288915691569 -6.22608921262126  2.36406211021102
 1 -1.96099267096710 -4.74511425042504  3.33388783908391
 1 -3.27484854025403 -6.14635163516352  3.39140066026603
 1  2.70598239003900 -2.02096883798380 -1.57349448274827
 1  2.13201504440444 -0.32376381438144 -1.90012763206321
 1  4.04478591449145 -1.17241531203120  0.42865190959096
 1  5.43774903940394  1.73748144594459 -2.86287887528753
 1  5.05399236303630 -0.16484052885289 -3.27205027212721
 1  3.74376086128613  0.82462526842684 -2.75453080998100
 1  6.35769586668667  1.37919106300630 -0.25188038843884
 1  5.96322414821482  0.08515292999300  0.69244893899390
 1  7.12787344044404 -1.47533157855786 -1.09690453655366
 1  7.43541329242924  0.09446495109511 -2.01698055575558
 1  8.91403584518452  0.94361221272127 -0.09524826632663
 1  8.53246597649765 -0.58428551555155  0.95055790869087
 1  10.16289315461546 -0.51243104480448 -1.81476219911991
 1  8.89684687228723 -2.68274693749375 -1.42430165566557
 1  10.94274113511351 -2.71019269566957 -1.86319206480648
 1  10.31869031083108 -2.87369924742474 -0.05129865136514
 1  11.30918510861086  0.79662728652865 -0.10990752815281
 1  11.33269083848385 -0.68094658015802  0.89239976167617
 1  12.90465697369737 -1.73985786478648 -0.94212765556556
 1  12.68077839443944 -0.41300857375738 -1.92976629512951
 1  13.72681371687169  1.29928032383238  0.01590676477648
 1  13.84366920242024 -0.05445839983998  1.11850142634263
 1  15.15368686608661  0.26516971677168 -1.48302495229523
 1  14.71473686868687 -1.97786607040704 -1.57335135563556
 1  16.39019575587559 -1.98285412491249 -1.09106049864986
 1  15.43439615721572 -2.29075869446945  0.09854255555556
 1  15.72873006460646  1.53826691539154  0.72799664326433
 1  16.20072639533954  0.02162597169717  1.42788478527853
 1  18.04270034733473 -0.37297577617762 -0.52327701240124
 1  17.38329105450545  1.06209917301730 -1.17010431503150
 1  17.93384509040904  2.63574230193019  0.96633312831283
 1  18.64471748594860  1.26162499929993  1.67403865946595
 1  20.54425265506551  0.72294302800280  0.01975491259126
 1  19.60918361556156  3.38915104720472 -1.34752972717272
 1  21.28319683688369  2.35106070987099 -1.52217754115411
 1  19.57263549934994  1.80185022162216 -2.19206438763876
 1  20.77770278337834  2.02412196249625  2.18779270707071
 1  21.81092493419342  2.59521763836384  1.03009490929093
 1  20.67109477217722  3.65462513301330  1.26728933333333
 1 -7.03296707920792  1.75851012301230  0.72280553735374
 1 -7.71597296389639 -0.11651652725272 -0.22571589178918

