%nproc=4
%Mem=2GB
# td=(NStates=1) B3LYP/SVP 

TD

0 1
 6 -5.06815966646665 -1.90887069306931  0.42656128122812
 6 -4.66763292149215  2.90919114811481  1.30093676977698
 6 -9.45865510911091  3.26288248454845 -0.08069268546855
 6 -9.79259111021102 -1.44239583418342 -0.90515666106611
 7 -5.14915166316632  0.51204766586659  0.81274873287329
 6 -4.49132723032303 -0.74206318991899  0.76173225882588
 6 -3.04799655335534 -0.49846032953295  1.14680793019302
 6 -3.03101725412541  0.99102422002200  1.66329083448345
 6 -4.37286224432443  1.48177522292229  1.28276018741874
 6 -2.75382188008801  1.16536483748375  3.21300115811581
 6 -2.04295963876388 -0.68383339743974 -0.06349974227423
 6 -0.55939432753275 -0.58420727552755  0.42990075517552
 6  0.32077658355836 -1.10472739003900 -0.71322717991799
 8 -0.11107137123712 -1.63308299819982 -1.71931438603860
 8  1.59229430463046 -0.80217663616362 -0.51812680468047
 7 -7.05463864486449  2.67941268316832  0.51985257925793
 6 -5.93528770977098  3.44932166466647  0.94779890529053
 6 -6.27713898639864  4.86668475227523  1.00609216091609
 6 -7.58086115061506  5.00946226922692  0.74898012811281
 6 -8.07587303770377  3.70303890279028  0.26745808210821
 6 -5.37737689408941  5.78622240464046  1.62509851375138
 6 -8.34731131933193  6.20426014371437  0.58976403070307
 6 -9.31395891869187  6.55208449904991 -0.29831844814481
 7 -9.21218461776178  0.85708418301830 -0.42060903630363
 6 -9.97987976537654  2.05704900660066 -0.38641745244524
 6 -11.28357459545955  1.84222786228623 -0.84511858315832
 6 -11.38247368786879  0.50252429382938 -1.16965702730273
 6 -10.13315002340234 -0.07357440684068 -0.81247472787279
 6 -12.27733193039304  2.99628219731973 -1.11052548164816
 6 -12.62079217661766 -0.29259835823582 -1.73952618761876
 6 -12.69610408000800 -0.64715936233623 -3.22239942434243
 7 -7.50739386508651 -1.22508682318232 -0.21366771187119
 6 -8.55927191269127 -1.95494210841084 -0.56407333573357
 6 -8.18899250645064 -3.38592319381938 -0.62547628612861
 6 -6.78252028022802 -3.33077896219622 -0.24243634893489
 6 -6.49385792539254 -2.00344214331433  0.12278443254325
 6 -9.02315630073007 -4.59397279727973 -0.86467897469747
 6 -5.68394451595159 -4.26365159205921 -0.05739306970697
 8 -5.65193704980498 -5.46170267896790 -0.08946202580258
 6 -4.55744134873487 -3.29106621932193  0.38085333493349
 6 -3.78966138093809 -3.72291598679868  1.65562744804480
 8 -4.04362697439744 -3.26676763266327  2.76535699969997
 8 -2.79479199489949 -4.66107638893889  1.42542828582858
 6 -2.37633116341634 -5.36936784208421  2.53011948224822
 6  2.72271231463146 -1.19469816041604 -1.41270547584758
 6  4.05392950275028 -0.81347597099710 -0.79638625182518
 6  5.07157945814581 -0.00492144454445 -1.13709911451145
 6  4.95019552975297  0.66516035773577 -2.60781332033203
 6  6.26081979407941  0.32085471377138 -0.38932039513951
 6  7.61317554475448 -0.29181851495150 -1.05172252565257
 6  8.80190366736674 -0.30446565346535 -0.10088496839684
 6  10.04791664636464 -0.81579606220622 -0.64210519041904
 6  10.11962575597560 -2.36182134793479 -0.85725984068407
 6  11.27163783838384 -0.36718638923892  0.10417794979498
 6  12.64954353895390 -0.64992347074707 -0.37841571877188
 6  13.77258366556656  0.05282257915792  0.43639000160016
 6  15.21950377147715 -0.27081011681168 -0.23217705350535
 6  15.59201652925293 -1.78703286518652 -0.19885962146215
 6  16.24339693689369  0.56632754395440  0.50775403980398
 6  17.63924076277628  0.47643337723772 -0.16055056285629
 6  18.59305915691569  1.43528214721472  0.59295798869887
 6  20.04425432133213  1.76531215651565  0.08766152655266
 6  20.05776670617062  2.23903333453345 -1.28185459445945
 6  20.82899336493649  2.51302503860386  1.04377077777778
 1 -3.93493166076608  3.53712009630963  1.34371660996100
 1 -10.09792737773777  4.19484892139214 -0.25369404330433
 1 -10.53880222012201 -2.22230824082408 -1.32240213411341
 1 -2.74608065956596 -1.28366873097310  2.01609340404040
 1 -2.20857142474247  1.64923487458746  0.99998949734973
 1 -1.69804732063206  0.67986540824082  3.30411713701370
 1 -2.92421572187219  2.10421506510651  3.61155025622562
 1 -3.48545912531253  0.54627532983298  3.89699854555455
 1 -2.21831128502850 -1.64316819451945 -0.63795065136514
 1 -2.14214015261526  0.02682015631563 -0.88302696339634
 1 -0.29550387378738  0.52042616851685  0.91019705020502
 1 -0.38829184208421 -1.10898007800780  1.27719483848385
 1 -4.58650330773077  6.04666280388039  0.95506864486449
 1 -5.91210242904290  6.62221734043404  1.96330192719272
 1 -4.90543232023202  5.38960881028103  2.53009407000700
 1 -7.82129222812281  6.95247228092809  1.32284359065907
 1 -9.64038943174318  5.80088807430743 -0.98241763776378
 1 -9.77351163036304  7.54615990129013 -0.32105180928093
 1 -12.11025557295729  3.83218371687169 -0.10604300290029
 1 -12.36317523982398  3.40803576827683 -2.21443866136614
 1 -13.41138853885389  2.52471809000900 -0.68136118301830
 1 -12.60201502740274 -1.18278840514051 -1.18030260406041
 1 -13.45911665396540  0.37080674207421 -1.48426210351035
 1 -12.61445596059606  0.32512952805280 -3.90694953835384
 1 -11.78425463316332 -1.32679207560756 -3.46110690739074
 1 -13.71936000920092 -1.08137549564956 -3.14911877057706
 1 -9.80212775957596 -4.77456954885489 -0.06625242914291
 1 -9.50682259245924 -4.30045705920592 -1.84545506610661
 1 -8.54843654915492 -5.52191297119712 -0.78218287178718
 1 -3.69389511681168 -3.31648900020002 -0.34020708050805
 1 -1.33161002900290 -5.90007661136114  2.44326003000300
 1 -2.03236980868087 -4.69568930793079  3.56802125242524
 1 -3.31080213561356 -5.90991799179918  2.75053657385739
 1  2.62737452925293 -2.26820356145615 -1.50493762706271
 1  2.64231607450745 -0.78871030903090 -2.51024864416442
 1  4.37737917381738 -1.35127319781978  0.10949999439944
 1  5.04561982648265  1.83708140594059 -2.51841442884288
 1  5.78368533233323  0.22528848404840 -3.24469753685369
 1  3.96598308350835  0.39410221612161 -2.95306066296630
 1  6.26655675277528  1.49005214911491 -0.33795899629963
 1  6.25668349414941 -0.21351693699370  0.47707740184018
 1  7.49637029012901 -1.14254830023002 -1.58418326442644
 1  7.57454720582058  0.51048655325533 -1.97868672637264
 1  9.12478692029203  0.84477232873287  0.23429468796880
 1  8.57396012591259 -0.69230631763176  0.81032388528853
 1  10.19247611291129 -0.34677447914791 -1.67623834673467
 1  9.09459664726473 -2.57472613541354 -1.31596082158216
 1  10.97982484348435 -2.72435411181118 -1.37264300990099
 1  10.23411185298530 -2.79357123462346  0.24494097259726
 1  11.24197838793879  0.79498712251225  0.32180564316432
 1  11.34025159455946 -0.65694417991799  1.15146566826683
 1  12.99348585658566 -1.77043092209221 -0.32193563636364
 1  12.66499681628163 -0.37797507040704 -1.53127644614461
 1  13.50640167566757  1.20991138693869  0.46183135723572
 1  13.87379221472147 -0.39414236823682  1.55511508770877
 1  15.18512000940094  0.16377957775778 -1.30640729052905
 1  14.90603599859986 -2.46165444924492 -0.89187320782078
 1  16.60912764906491 -1.99592543204320 -0.43317471007101
 1  15.28027074467447 -2.22214183278328  0.81517421872187
 1  15.92173936553655  1.59379246794679  0.59679352295230
 1  16.45732205490549  0.43555736483648  1.27648964576458
 1  18.07374345164516 -0.64967344594459 -0.06570125482548
 1  17.66444917031703  0.72175513861386 -1.16697400200020
 1  17.83463516941694  2.36662539023902  0.74198069306931
 1  18.88287130133013  1.11042987978798  1.58662991859186
 1  20.36288451825183  0.80744147784778 -0.05176223912391
 1  19.35951864906491  3.13623575567557 -1.59550452465247
 1  21.21245976317632  2.44050965476548 -1.47244256765677
 1  19.54740297609761  1.41611164776478 -1.94772995419542
 1  20.87950296339634  1.84854440474047  2.19456338413841
 1  21.93783762546255  2.53477159375938  0.58732063186319
 1  20.38570623332333  3.50841051155115  1.54217682208221
 1 -7.07492127462746  1.47043131513151  0.40307356415642
 1 -7.64346571317132 -0.12749762536254 -0.07849116931693

