%nproc=4
%Mem=2GB
# td=(NStates=1) B3LYP/SVP 

TD

0 1
 6 -5.10484333483348 -1.89790959695970  0.38320694579458
 6 -4.70211636983698  2.65058528752875  1.46597327342734
 6 -9.31854109770977  3.39917611391139 -0.22847746394639
 6 -9.75963781488149 -1.41311290589059 -1.00785693109311
 7 -5.20382713071307  0.48498495959596  0.62234969296930
 6 -4.52203030063006 -0.68022700630063  0.67994408000800
 6 -3.01665341904190 -0.63424390789079  1.16955020442044
 6 -2.99848400080008  0.80780589818982  1.74572907830783
 6 -4.37812277037704  1.27807485288529  1.35278719011901
 6 -2.92785928382838  0.98253655465547  3.27882774077408
 6 -1.97637298009801 -0.78871388548855  0.02096870457046
 6 -0.54812320042004 -0.70188904370437  0.47644540964096
 6  0.39523402930293 -1.01080799809981 -0.69228508570857
 8  0.12114185008501 -1.48646833673367 -1.77175963056306
 8  1.64934000920092 -0.76857327582758 -0.31259625162516
 7 -6.95607878887889  2.69645438733873  0.42642323632363
 6 -5.88667284828483  3.29836656915692  0.95178930433043
 6 -6.15985725822582  4.76426451025103  1.05454700640064
 6 -7.51300436493649  4.95345666866687  0.43333856395640
 6 -8.00305575597560  3.63648224712471  0.17779911621162
 6 -5.20863001940194  5.78313209560956  1.52590859475948
 6 -8.25867245544554  6.23144286198620  0.44336939123912
 6 -9.19019654245425  6.73068235883588 -0.49747836413641
 7 -9.26668006730673  0.97652612721272 -0.37958493389339
 6 -9.93118489588959  2.12193549524953 -0.44709352005201
 6 -11.31529776777678  1.90768440794079 -0.90904497579758
 6 -11.33910935143514  0.58086212761276 -1.17368743034303
 6 -10.02797950635064 -0.06251330073007 -0.80541402180218
 6 -12.27841203840384  3.02697526662666 -0.99806423552355
 6 -12.68183828122812 -0.10085918431843 -1.68513074807481
 6 -12.71685615521552 -0.25032967936794 -3.27759494389439
 7 -7.53672679837984 -1.20613492799280 -0.07081342644264
 6 -8.61195718121812 -1.97274388858886 -0.49528645704570
 6 -8.20096370357036 -3.31793639513951 -0.49184292279228
 6 -6.85903793199320 -3.38938482278228 -0.11265337063706
 6 -6.51261980158016 -1.99604140324032  0.07454960906091
 6 -9.02261624672467 -4.55399879987999 -0.88662116891689
 6 -5.71531765326533 -4.38048327522752 -0.02722005240524
 8 -5.76728858495850 -5.54423093179318 -0.07708078767877
 6 -4.53698930353035 -3.36784389708971  0.39983523312331
 6 -3.72600501530153 -3.75060875607561  1.69776166146615
 8 -4.03374598629863 -3.40270122602260  2.81477194119412
 8 -2.92395491119112 -4.78701898319832  1.53872961596160
 6 -2.37164069436944 -5.47470837613761  2.67014348464846
 6  2.70399044244424 -1.19523821442144 -1.25953015831583
 6  3.97148125792579 -0.89853447684768 -0.66613322652265
 6  5.00287258745875 -0.05194614701470 -1.05756116071607
 6  4.98259877007701  0.76531037273727 -2.36186872587259
 6  6.27792150425042  0.14026665496550 -0.25641710481048
 6  7.44193842104210 -0.60180951405141 -0.87852520592059
 6  8.80479395639564 -0.33027823472347 -0.17065194509451
 6  10.10670252495250 -0.91220570317032 -0.76383736363636
 6  9.94035782918292 -2.52641780758076 -0.74583869856986
 6  11.31677235183518 -0.35793546414641  0.07362489448945
 6  12.64501308590859 -0.62101057945795 -0.62609048624863
 6  13.73794020122012 -0.08719142224222  0.26914327692769
 6  15.19787160826083 -0.19001203700370 -0.41372520832083
 6  15.55675300290029 -1.68438260016002 -0.47115685118512
 6  16.20247284448445  0.57718863006301  0.36659992439244
 6  17.63692053075307  0.67744347824782 -0.27132163996400
 6  18.51365121612161  1.64232285128513  0.66895558845885
 6  19.89021891779178  1.81715734103410  0.10654341474147
 6  19.96375730523052  2.67171660286029 -1.16658306730673
 6  20.85932639823983  2.47543127922792  1.22165856655666
 1 -4.05007317491749  3.25016140044004  2.05357759605961
 1 -9.74643222822282  4.34533396989699 -0.43412208610861
 1 -10.53828216811681 -1.93631964196420 -1.37045693959396
 1 -2.81226727822782 -1.26612697679768  1.86092788748875
 1 -2.19500006760676  1.59010896199620  1.15055455385539
 1 -1.95620313621362  0.82178960066007  3.68178490379038
 1 -3.00317361766177  1.99109375297530  3.42216131733173
 1 -3.77105768516852  0.40169087138714  3.83706255195520
 1 -1.97233668756876 -1.91342522022202 -0.63256011231123
 1 -2.02003794239424 -0.00701322702270 -0.76650531123112
 1 -0.30629495289529  0.32084621052105  0.84709073957396
 1 -0.40641365426543 -1.54036321632163  1.29482660166017
 1 -4.23860851825183  5.61422956055605  1.00046318431843
 1 -5.62465368416842  6.80709582828283  1.11523712071207
 1 -4.95718749574957  5.76593644304431  2.71944300490049
 1 -7.77653775267527  6.97313434713471  1.08130943724372
 1 -9.58784417721772  5.93275126062606 -1.30323971997200
 1 -9.48618289748975  7.68929421472147 -0.64340404450445
 1 -12.57005155255525  3.63459395789579 -0.15954835343534
 1 -11.94531345364537  3.67995295999600 -1.80245746324632
 1 -13.16869426942694  2.55730134833483 -1.58551159805981
 1 -12.62866769266927 -0.92213233953395 -1.27137171097110
 1 -13.40058080038004  0.51130079147915 -1.42482615991599
 1 -12.73817833283328  0.84377139223922 -3.69305814921492
 1 -11.86527273497350 -0.69193859025903 -3.56148694539454
 1 -13.65506357955796 -0.91146850495050 -3.41077493619362
 1 -9.79702724952495 -4.73307539943994 -0.18212401630163
 1 -9.40019192939294 -4.49428644214422 -1.98753927452745
 1 -8.47790949644964 -5.39422020192019 -0.59509416291629
 1 -3.78078380568057 -3.55041239253925 -0.53636669646965
 1 -1.71578844684468 -6.22116872057206  2.29824552855286
 1 -1.74074064576458 -4.97486722572257  3.21680613091309
 1 -3.25413646904690 -5.62772977297730  3.40031155135514
 1  2.75021681348135 -2.23920066116612 -1.56059319261926
 1  2.65572741564156 -0.57517895589559 -2.09764738403840
 1  4.25966740264026 -1.35868393889389  0.20254929932993
 1  5.09097436193619  1.91849954775478 -2.17352994039404
 1  5.55012197599760  0.49561551675168 -2.95756882398240
 1  4.01830831603160  0.68103090899090 -2.98544390129013
 1  6.60001009810981  1.28620176407641 -0.53933913431343
 1  6.00317814361436  0.03166758145815  0.78964865896590
 1  7.10856150925093 -1.65107915331533 -0.88141298739874
 1  7.40333008410841 -0.08064255965597 -1.93015187288729
 1  8.77579202080208  0.87788564006401 -0.02714145564557
 1  8.68726145604561 -0.69263635063506  0.92342519541954
 1  10.20619748504850 -0.56466626832683 -1.71111183408341
 1  9.15948313591359 -2.66864552735273 -1.24462368786879
 1  10.92062892389239 -2.90317199359936 -1.14772051765177
 1  9.91361980378038 -2.90801267876788  0.27781425992599
 1  11.19195338543854  0.71583920772077  0.33112657525753
 1  11.41652922232223 -1.02926141164116  1.08557907960796
 1  12.84315082308231 -1.73796767576758 -0.76862030483048
 1  12.75206552315231 -0.11449872277228 -1.67894121262126
 1  13.56371740724072  0.91718211401140  0.63946912101210
 1  13.53639847534753 -0.71663461746175  1.06061563776378
 1  15.03145464286429  0.19868306810681 -1.34086073587359
 1  14.87560295529553 -2.36708499229923 -0.97166118661866
 1  16.44768150445045 -1.80531637113711 -1.18682007460746
 1  15.76654937253725 -2.12231184978498  0.49884258555856
 1  15.64774196579658  1.42350543924392  0.49115295889589
 1  16.19681600430043  0.29640344944494  1.38307030383038
 1  18.10411648894890 -0.31580005860586 -0.43324800950095
 1  17.61675440084008  1.10376333943394 -1.18743604820482
 1  17.92718442434244  2.68257698539854  0.82323881888189
 1  18.60433344754476  1.12323115991599  1.54913616921692
 1  20.35640387018702  0.78553928762876 -0.11095815871587
 1  19.69691238843885  3.87788992109211 -0.98157313151315
 1  21.06874539173917  2.60923652745275 -1.64205952935294
 1  19.56768500430043  2.40911094769477 -2.15831101230123
 1  20.91261627472747  1.85667521782178  2.16625055285529
 1  21.85293913561356  2.33390150675068  0.80838273807381
 1  20.55978364106411  3.53961363186319  1.54511711611161
 1 -7.08969275177518  1.64915918791879  0.76008926572657
 1 -7.41294266086609 -0.10342521812181 -0.44911823202320

