%nproc=4
%Mem=2GB
# td=(NStates=1) B3LYP/SVP 

TD

0 1
 6 -5.11650450095010 -1.94318412441244  0.54327295239524
 6 -4.78669482768277  2.71488171717172  1.45477215331533
 6 -9.29319856345634  3.34582077837784 -0.25345996219622
 6 -9.90845269636964 -1.42962455705571 -0.78920506590659
 7 -5.15919266726673  0.46445290639064  0.68064552255226
 6 -4.60268836643664 -0.70849983358336  0.78211429702970
 6 -3.06711846554655 -0.60289077257726  1.29420266966697
 6 -3.15445959835984  0.80034515211521  1.96349085448545
 6 -4.41906686478648  1.38637568296830  1.28123003440344
 6 -3.30084658255826  0.69107740874087  3.48947880588059
 6 -2.07320266306631 -0.75430044414441  0.20168677637764
 6 -0.63721210931093 -0.68386724152415  0.56692445754575
 6  0.31937644354435 -0.95557247454745 -0.50720657785779
 8  0.09719945584558 -1.51362105200520 -1.51340379497950
 8  1.68509358455846 -0.74807122562256 -0.21382637463746
 7 -7.07968114911491  2.80110485238524  0.48945953995400
 6 -5.92936711771177  3.47349408190819  0.98409253465347
 6 -6.24697597009701  4.79732781658166  1.23603515521552
 6 -7.55115818031803  5.03248457145715  0.60632586268627
 6 -7.99965541594160  3.71174977387739  0.17089842614261
 6 -5.24359351575157  5.75529931233123  1.78656466036604
 6 -8.13749033723372  6.29492921062106  0.38963401770177
 6 -8.97786530933093  6.63373266386639 -0.60506912321232
 7 -9.26192959225923  0.92296077067707 -0.54071104650465
 6 -9.85749752715271  2.09980328202820 -0.58846765746575
 6 -11.19533577157716  1.92746638613861 -1.12847691899190
 6 -11.33928936943694  0.52902694409441 -1.24964502610261
 6 -10.14836154455446 -0.10680773017302 -0.71130461086109
 6 -12.24010820802080  2.98672124122412 -1.30271470057006
 6 -12.60906100350035 -0.21337043544354 -1.70184241924192
 6 -12.50527499709971 -0.60467511391139 -3.20976816121612
 7 -7.54781790749075 -1.20570488498850 -0.15045139023902
 6 -8.64995098059806 -2.05573218741874 -0.50319724812481
 6 -8.19701330853085 -3.42353695519552 -0.64528826732673
 6 -6.87727975617562 -3.37935381968197 -0.16288839413941
 6 -6.54387292689269 -2.07688948804880  0.14390654475448
 6 -9.06769075417542 -4.55565896589659 -0.99600210701070
 6 -5.74501062256226 -4.28242346924693  0.08322099169917
 8 -5.62953480958096 -5.51412792149215 -0.06659973957396
 6 -4.48488409300930 -3.30271738443844  0.35709095869587
 6 -3.90893330813081 -3.83134682988299  1.70610249554955
 8 -4.06033864556456 -3.32263321922192  2.79796026002600
 8 -3.11803431913191 -4.78525880718072  1.46261200420042
 6 -2.43790732103210 -5.42510341564156  2.55880235053505
 6  2.69225926932693 -0.97643633423342 -1.16091029632963
 6  3.95754986478648 -0.68580320372037 -0.57801441464146
 6  4.97309961016102  0.07830687828783 -1.23101850645064
 6  4.92884339453945  0.31940578227823 -2.73885642464246
 6  6.33882759485949  0.29727235553555 -0.42907437053705
 6  7.49275350255026 -0.38434776787679 -1.14806215961596
 6  8.77219069606961 -0.23090829772977 -0.30273515341534
 6  10.12173402810281 -0.74362884548455 -0.82423340324032
 6  10.13374716811681 -2.23236840264026 -0.92456657135714
 6  11.32279295389539 -0.22843251385139  0.07172470447045
 6  12.68273685828583 -0.48409688808881 -0.59829770697070
 6  13.89502590979098 -0.02030473357336  0.28607497009701
 6  15.24682650375038 -0.17403043884388 -0.39205304110411
 6  15.66013334093409 -1.68828299019902 -0.54991472697270
 6  16.26757935513552  0.62731364256426  0.44981824622462
 6  17.65898273697370  0.72652838673867 -0.17639214701470
 6  18.69193904490449  1.51869048804880  0.73928262116212
 6  20.06667656355636  1.53071869716972  0.09626238663866
 6  20.11368229772977  2.25321475267527 -1.27832424142414
 6  20.95854632023202  2.30558429452945  1.18991539223922
 1 -4.13741190879088  3.53634001830183  2.04118635693569
 1 -10.09828741374137  4.15312474897490 -0.32329100300030
 1 -10.75500384028403 -2.05652166216622 -0.99463935783578
 1 -2.94400045154515 -1.20148051215122  2.08014980968097
 1 -2.34170473807381  1.37975792689269  1.74303380178018
 1 -2.21187870377038  0.36373379507951  3.88096482178218
 1 -3.67068036833683  1.66880152375238  4.09416851805180
 1 -3.95224580398040 -0.13634293199320  3.83204204990499
 1 -2.18915836973697 -1.45943982168217 -0.48323517981798
 1 -2.28906484508451  0.12786026032603 -0.27114577527753
 1 -0.27459178257826  0.28309243514351  1.00431646214621
 1 -0.30187320022002 -1.38468764876488  1.28466558555856
 1 -4.32491714911491  5.72335047264727  1.11417455545555
 1 -5.83013423222322  6.90335545424542  1.93286888388839
 1 -4.69810158715872  5.43623347274727  2.65692675327533
 1 -7.71387148604860  7.12474950865086  1.18350965726573
 1 -9.19881527432743  5.79835782128213 -1.40407980398040
 1 -9.16573085228523  7.74836012131213 -0.73121282538254
 1 -12.39530407780778  3.41959245774577 -0.21434383298330
 1 -11.92845176747675  3.82164712941294 -1.87226444394439
 1 -13.34252165216522  2.59801541974197 -1.47599064596460
 1 -12.71578640454045 -1.00751087738774 -0.97792236603660
 1 -13.47314805710571  0.48196785818582 -1.89799347664767
 1 -12.19790430543054  0.15617263236324 -3.77900674407441
 1 -11.76974318201820 -1.47059645604560 -3.40293108980898
 1 -13.39049712291229 -1.12481984008401 -3.56582044074407
 1 -10.04849239603960 -4.86970906280628 -0.47219302320232
 1 -9.54669657985798 -4.30614762826283 -2.03762428302830
 1 -8.35704741024102 -5.39875065496550 -1.39077373087309
 1 -3.75188091539154 -3.32437978927893 -0.47823088288829
 1 -1.94303117111711 -6.39594619831983  2.22347805180518
 1 -1.57580415211521 -5.04964470347035  3.05568001830183
 1 -3.27332838823882 -5.47489448944894  3.30417193739374
 1  2.59043083488349 -2.12055879697970 -1.59980711401140
 1  2.44932677557756 -0.34873631163116 -2.07462508180818
 1  3.96006744264426 -0.93906197669767  0.44462350675067
 1  5.47518278277828  1.33879157695770 -2.88778136553655
 1  5.56424338813881 -0.17940198499850 -3.53702676977698
 1  3.77670415561556  0.45680848674867 -2.94189954685468
 1  6.27511760886089  1.42303544744474 -0.55937113751375
 1  6.13103092889289 -0.17895348064807  0.38790848494849
 1  7.36173682678268 -1.33842788818882 -1.24919976607661
 1  7.76748649974998  0.12880838543854 -2.10948980668067
 1  8.96860130173017  0.91115896739674 -0.14825356685669
 1  8.45314804470447 -0.60077716471647  0.67013986688669
 1  10.30581744704470  0.10674087238724 -1.72148287118712
 1  9.18276546414642 -2.64695335813581 -1.58497772327233
 1  11.13346020702070 -2.58549022542254 -1.21924767036704
 1  10.10003844564456 -2.58619049654966  0.08728520702070
 1  11.07528171827183  0.91344896869687 -0.00543708110811
 1  11.40269783918392 -0.55514399989999  1.11816233793379
 1  12.77710421842184 -1.58560243924392 -0.96455989878988
 1  12.81260157675768 -0.03974124702470 -1.51841516001600
 1  13.51133216871687  1.07400779657966  0.50677585168517
 1  13.77381221672167 -0.47158011201120  1.22039161536154
 1  15.29139063646365  0.13528672847285 -1.26375302510251
 1  14.80635603060306 -2.10260854465447 -1.31463548404841
 1  16.78318505480548 -1.85244108360836 -0.78260965356536
 1  15.27754047164717 -2.18443806240624  0.47028973027303
 1  15.72408960056006  1.59324241294129  0.57953179677968
 1  16.28209453215322 -0.07786397729773  1.42908490529053
 1  17.98943502080208 -0.37139561816182 -0.24845953065307
 1  17.56288901430143  1.15182814591459 -1.19775708030803
 1  18.29864157005701  2.58691741944194  1.01975847084708
 1  18.84007702190219  1.18038687548755  1.77018827442744
 1  20.48378660846085  0.48918965266527  0.01346428352835
 1  19.40356305350535  3.09027115921592 -1.24223919811981
 1  21.13633215041504  2.66381198499850 -1.61462678607861
 1  19.60244848064806  1.66243628022802 -2.00411559275928
 1  21.04036905000500  1.77172672297230  2.10656458425843
 1  22.11995583728373  2.67387550415042  1.03290519031903
 1  20.43363102580258  3.37883755425543  1.32942554695470
 1 -7.17938172067207  1.86668094009401 -0.03395013821382
 1 -7.51043240984098 -0.10575545114511 -0.24604792499250

