%nproc=4
%Mem=2GB
# td=(NStates=1) B3LYP/SVP 

TD

0 1
 6 -5.07335018551855 -1.97212701870187  0.38953757885789
 6 -4.70787694589459  2.77567779677968  1.48188486458646
 6 -9.32053129672967  3.28136433273327 -0.21912652885289
 6 -9.86858870997100 -1.48383997859786 -0.87481362676268
 7 -5.29344609260926  0.43612007310731  0.87842530053005
 6 -4.44095219281928 -0.67468645224522  0.84107019261926
 6 -3.04864661836184 -0.58512899639964  1.31733498289829
 6 -3.07184133653365  0.89799491709171  1.92179668506851
 6 -4.45216017411741  1.37911495689569  1.43607551895190
 6 -2.89459595749575  0.98973727472747  3.45712557055706
 6 -2.01887723052305 -0.70499551365136  0.06792340004000
 6 -0.61114950305031 -0.73367222202220  0.49109687478748
 6  0.46556106200620 -0.96298321562156 -0.64108996619662
 8  0.19595933183318 -1.36943663356336 -1.72458491309131
 8  1.61521659685969 -0.55777219571957 -0.21665665766577
 7 -7.07701088208821  2.78439318121812  0.49782037603760
 6 -5.94509869086909  3.43472020452045  0.99394351975198
 6 -6.21922319481948  4.79833791759176  1.17830938263826
 6 -7.52519558405841  4.90812213521352  0.62738796889689
 6 -8.05609105950595  3.67165576447645  0.29583091939194
 6 -5.30137929432943  5.77123090549055  1.71256726062606
 6 -8.22891948014801  6.18641835953595  0.38993404770477
 6 -9.27304482728273  6.48742803340334 -0.53453206950695
 7 -9.25733913321332  0.86124459905991 -0.50092706810681
 6 -9.86792857025702  2.06063936563656 -0.65414422512251
 6 -11.26385262326233  1.80101374087409 -0.93888796009601
 6 -11.42849829032903  0.48352239363936 -1.15554561616162
 6 -10.15935264366437 -0.13184023342334 -0.80521400180018
 6 -12.26684088128813  2.94352692179218 -1.30876530563056
 6 -12.74529462686269 -0.07068616701670 -1.63937617261726
 6 -12.62502697229723 -0.46172081848185 -3.11684886928693
 7 -7.53779690539054 -1.29633394789479 -0.38917526262626
 6 -8.62588857435744 -2.09686630083008 -0.69129605800580
 6 -8.15911951915191 -3.46164076557656 -0.64318805730573
 6 -6.79199122732273 -3.43053893819382 -0.24489659495950
 6 -6.45039357895790 -2.08951075017502 -0.04783262916292
 6 -9.03273725882588 -4.67572097209721 -0.86642914971497
 6 -5.68532465396540 -4.32200742764276  0.06491916151615
 8 -5.60812266836684 -5.51641815051505  0.05614253465347
 6 -4.58341394599460 -3.35428254095410  0.40036528612861
 6 -3.93020543534353 -3.69483317851785  1.70795268056806
 8 -4.12889550125013 -3.31403235913591  2.76095655965597
 8 -2.96423893959396 -4.69465974727473  1.44104984798480
 6 -2.42176570687069 -5.38385929122912  2.51949842014201
 6  2.73330337373737 -0.84230292089209 -1.26287049234924
 6  4.07544165396540 -0.63192781618162 -0.60801741494149
 6  5.01624392459246  0.13518256585659 -1.22313771837184
 6  5.05092560276028  0.73028687038704 -2.66663920292029
 6  6.26829054115412  0.33492612091209 -0.36905836893689
 6  7.52547677487749 -0.28333766686669 -1.09079643304330
 6  8.79955343234323 -0.25462066896690 -0.11496637653765
 6  10.08659051375137 -0.84115859845985 -0.76898787868787
 6  9.96326011941194 -2.34145931173117 -0.90216433113311
 6  11.30896157075708 -0.25178484908491 -0.00270273827383
 6  12.61948053265326 -0.70232871127113 -0.60248812601260
 6  13.77711411861186 -0.15192789588959  0.25953231583158
 6  15.23383520462046 -0.35367840364036 -0.27004083988399
 6  15.56287361496150 -1.78558272017202 -0.20884061956196
 6  16.23150574777478  0.57674858605861  0.47293055745575
 6  17.63279011771177  0.66757249114911 -0.23509801760176
 6  18.60953080408041  1.56940555955596  0.64337303020302
 6  20.11767166306631  1.56393201850185  0.07890065046505
 6  20.11420234973497  2.18902833403340 -1.26871328032803
 6  20.93850431603160  2.35886962306231  1.10585698639864
 1 -4.13111127872787  3.65028141244124  1.92287452575258
 1 -9.93756134113411  4.11153058955896 -0.12997167106711
 1 -10.63450179007901 -2.12289829982998 -1.32151204510451
 1 -3.02340839233923 -1.24524488858886  2.12489428412841
 1 -2.24938550615061  1.36812676377638  1.27920741914191
 1 -2.03246076197620  0.37357477917792  3.49702642794279
 1 -2.77280058035804  1.97775241884188  3.76131523272327
 1 -3.62972355175518  0.39060976327633  4.03480232593259
 1 -2.28859831373137 -1.67300117781778 -0.44038089438944
 1 -2.27827376597660  0.15272274657466 -0.73964262496250
 1 -0.26194051745175  0.10395452135214  0.92568859935994
 1 -0.42636564946495 -1.28631781178118  1.49846696569657
 1 -4.50569522692269  5.86727486508651  1.07108024602460
 1 -5.83890510931093  6.82873799249925  1.56416201320132
 1 -5.00869264626463  5.79374922432243  2.79391045164516
 1 -7.98701880078008  7.08709574327433  1.15332663896390
 1 -9.56386177897790  5.89621760726073 -1.33823321932193
 1 -9.64921920112011  7.53165845114511 -0.66812651675168
 1 -12.29469401680168  3.65980647914792 -0.36153855245525
 1 -12.07506642894290  3.57778274297430 -2.06191340884088
 1 -13.36503390339034  2.56128174637464 -1.19739278617862
 1 -13.25457028292829 -0.93201332763276 -1.00089466326633
 1 -13.48699944224422  0.63321298269827 -1.54420809810981
 1 -12.36363087808781  0.46784379947995 -3.76972581598160
 1 -11.78037424512451 -1.09411880828083 -3.34767556425643
 1 -13.59772784598460 -0.83633099119912 -3.49260311901190
 1 -9.80679822662266 -4.64539663156316 -0.22066787068707
 1 -9.39538144834483 -4.62907992149215 -2.03200372097210
 1 -8.51156286178618 -5.84568534843484 -0.70417507100710
 1 -3.59514524182418 -3.54921227252725 -0.42821588138814
 1 -1.48745561356136 -5.87773437713771  2.06730243424342
 1 -2.22536910861086 -4.49109884888489  3.25417986828683
 1 -3.00181123652365 -6.03224022402240  3.17117863806381
 1  2.59327111891189 -1.93787052815282 -1.63832096539654
 1  2.60279212211221 -0.13903534153415 -2.02004962426243
 1  4.08212964886489 -0.92539060956096  0.48262730713071
 1  5.00419568406841  1.90279797759776 -2.66051863926393
 1  5.83124008780878  0.15642159735974 -3.21005407250725
 1  4.03597008220822  0.48713151905191 -3.12667802470247
 1  6.51281137823782  1.45459860376038 -0.36874207460746
 1  6.26684451025103  0.14837925262526  0.65001469556956
 1  7.36211686478648 -1.19727377277728 -1.34948979507951
 1  7.92225197629763  0.28766427102710 -1.99009786748675
 1  9.03445788738874  0.75816366786679  0.19062032053205
 1  8.56601933183318 -0.81003809080908  0.94442729562956
 1  10.17883474877488 -0.29989979167917 -1.81011173407341
 1  9.01120830843084 -2.53467213001300 -1.47846707220722
 1  10.92442930393039 -2.71411308770877 -1.59043478907891
 1  10.03007144894489 -2.73837571507151  0.05450192869287
 1  11.19212340244024  0.88736636043604  0.12979644224422
 1  11.21178874827483 -0.60091857735774  0.98422894459446
 1  12.68574508250825 -1.82016589558956 -0.60378382118212
 1  12.76147646424642 -0.55383265616562 -1.71260457895790
 1  13.47422845834583  0.90381077687769  0.43357853195320
 1  13.79647448294829 -0.70473342734273  1.20743031923192
 1  15.27212871027103  0.02059525932593 -1.36979362916292
 1  14.99478487348735 -2.36350463426343 -0.80131415191519
 1  16.64419115541554 -2.12118795829583 -0.60324171677168
 1  15.38745146274628 -2.03900351895190  0.90479318061806
 1  15.81594878647865  1.67463055175518  0.43460730433043
 1  16.30342666536654  0.14114792389239  1.55463746054605
 1  18.02240831813181 -0.24107258585859 -0.32596728142814
 1  17.58045077047705  1.13466642974297 -1.14198150275027
 1  18.19819152505251  2.57592632033203  0.64005050005000
 1  18.45441845604561  1.26129496629663  1.70003125872587
 1  20.39900813061306  0.49137987168717  0.06887982508251
 1  19.85601829902991  3.19178131023102 -1.14957993219322
 1  21.15212372957296  2.25423102690269 -1.87242256565657
 1  19.45850408620862  1.73055309190919 -1.96984216541654
 1  20.86077109020902  1.86312586288629  2.04304823262326
 1  21.94533837553755  2.54951306790679  0.69241114091409
 1  20.47138480118012  3.31939160966097  1.03533613801380
 1 -6.88178196069607  1.81258553055306  0.35126838363836
 1 -7.62388375497550 -0.44237911351135 -0.31119443964396

