%nproc=4
%Mem=2GB
# td=(NStates=1) B3LYP/SVP 

TD

0 1
 6 -5.15825867636764 -1.86640644664466  0.29331795689569
 6 -4.62227838603860  2.75860608960896  1.41218789488949
 6 -9.20228947254726  3.37502369866987 -0.19874449064906
 6 -9.83906575767577 -1.30833242784278 -0.92201834723472
 7 -5.09130587858786  0.46814327542754  0.70352781078108
 6 -4.41817991559156 -0.69841882548255  0.78882496809681
 6 -3.11132288598860 -0.65992647614761  1.27852110151015
 6 -2.99537368976898  0.79380449804981  1.81554606000600
 6 -4.25244020212021  1.41653869926993  1.29242115351535
 6 -2.91876837473747  0.95912421342134  3.32556241424142
 6 -2.04576991979198 -1.06840185428543  0.25107171487149
 6 -0.66636502460246 -1.12150100490049  0.68006577167717
 6  0.32854736063606 -1.39987690499050 -0.45077093429343
 8  0.03005274117412 -1.81108079797980 -1.50566302090209
 8  1.66087116231623 -1.07480389888989 -0.13675866786679
 7 -6.88993217421742  2.71044578647865  0.45570616461646
 6 -5.81962614361436  3.41889862236224  0.97111123652365
 6 -6.12531380388039  4.78469655345535  1.00250180188019
 6 -7.35358842334233  4.97575889888989  0.52499772987299
 6 -7.92043749414942  3.65053365226523  0.15411674797480
 6 -5.17166632303230  5.80193397579758  1.37916392029203
 6 -7.87581416961696  6.23027274497450  0.22492754705471
 6 -8.77784530733073  6.70663995459546 -0.75206382268227
 7 -9.13341674097410  1.02389086368637 -0.60347732313231
 6 -9.89256103350335  2.15357865956596 -0.49043785448545
 6 -11.21682792079208  1.97535117461746 -0.83753782508251
 6 -11.39908534903490  0.68426246764676 -1.12443250485049
 6 -10.06462317071707  0.02730568116812 -0.84266774717472
 6 -12.24876907410741  3.10224279337934 -0.84304873397340
 6 -12.54993509090909 -0.09584868326833 -1.59052128712871
 6 -12.79765423502350 -0.25186983338334 -3.09143632803280
 7 -7.45936906260626 -1.20193450795080 -0.39416576167617
 6 -8.59105509100910 -1.98437505170517 -0.63615054345435
 6 -8.22876648384839 -3.42007660916092 -0.73322706120612
 6 -6.86942897109711 -3.43658954325433 -0.30054215951595
 6 -6.38132667226723 -1.99642144124412 -0.02487033293329
 6 -9.09672365746575 -4.48172157215722 -1.01948445524552
 6 -5.69093521502150 -4.23604883178318 -0.19404673507351
 8 -5.66321817791779 -5.43435994469447 -0.21534461406141
 6 -4.55462106670667 -3.30469758245825  0.39002425202520
 6 -4.09783219801980 -3.78559225442544  1.73353523882388
 8 -4.30490310201020 -3.38412936883688  2.78808927292729
 8 -3.25756827252725 -4.90717099839984  1.49285502850285
 6 -2.82325585588559 -5.58546945224522  2.70057652795280
 6  2.67398744214421 -1.53353204380438 -1.03582778807881
 6  3.98593270307031 -1.04192881628163 -0.37906451965197
 6  4.90491279147915 -0.16068702110211 -0.92144754935494
 6  4.68714922512251  0.81619546124612 -2.05658819781978
 6  6.13957766986699  0.02317494579458 -0.06000746384638
 6  7.43878810601060 -0.44843417651765 -0.88519587298730
 6  8.67776125312531 -0.28944415131513 -0.00355523542354
 6  9.96035789048905 -0.73653813641364 -0.77943892379238
 6  9.93669746314631 -2.16008117391739 -1.07847196189619
 6  11.28284895949595 -0.30076974757476 -0.00220268826883
 6  12.65270385498550 -0.49451793019302 -0.74525240244024
 6  13.86074248144814 -0.07225992909291  0.21906826942694
 6  15.23704552565257 -0.09553258905891 -0.48724256005601
 6  15.77927525512551 -1.56669083098310 -0.43674340984098
 6  16.15334793199320  0.87014792599260  0.23298656305631
 6  17.58118495719572  0.84939067296730 -0.32273678147815
 6  18.60837068806881  1.67889650865087  0.59678837173717
 6  20.08915881178118  1.89978560386039  0.06005876627663
 6  20.07971890139014  2.72585201640164 -1.27385379437944
 6  20.94483494909491  2.50149388548855  1.13744014471447
 1 -3.67852602020202  3.48545492979298  1.58033027132713
 1 -9.77106469146915  4.33105254175418 -0.12169084298430
 1 -10.59230757065707 -2.00308631863186 -1.24916481038104
 1 -2.98108415991599 -1.20669103320332  2.13839563426343
 1 -2.07788835643564  1.18402835393539  1.15325482388239
 1 -2.09088660456046  0.49576699839984  3.89554627992799
 1 -2.80793409370937  2.09260390399040  3.53705280648065
 1 -3.82263284268427  0.48773947624762  3.71222006770677
 1 -2.35701515541554 -2.06143002070207 -0.06813366966697
 1 -2.06622256085609 -0.24336686238624 -0.54573323402340
 1 -0.26541086448645 -0.19517539163916  1.37262329282928
 1 -0.56714972787279 -1.92705188518852  1.29049616861686
 1 -4.12970762816282  5.77279541714171  0.73248638663866
 1 -5.58118933773377  6.86474159285929  1.01296689368937
 1 -4.97039881688169  5.61255110451045  2.41689274987499
 1 -7.77517761666167  6.97599463316332  1.03832513881388
 1 -9.11985737853785  6.13877186268627 -1.65828522452245
 1 -9.27578185738574  7.76425171047105 -0.64251395549555
 1 -12.19801434883488  3.49368986748675  0.19871747314731
 1 -11.76733565586559  3.93558852355235 -1.65064228172817
 1 -13.34164156415642  2.81095671387139 -1.05353840074007
 1 -12.74841966786679 -1.07663779007901 -0.85791036483648
 1 -13.39674041634163  0.31312097349735 -1.18506218351835
 1 -13.04150866586659  0.73208022312231 -3.77105594899490
 1 -11.86686289398940 -0.86165556195620 -3.43539433613361
 1 -13.66556462966297 -0.83010036813681 -3.29354321302130
 1 -10.01472901970197 -4.72570466236624 -0.40746655055506
 1 -9.47905981618162 -4.40849786328633 -2.00648116871687
 1 -8.55187689318932 -5.45847662756276 -0.81504615811581
 1 -3.76821254855485 -3.75255260656066 -0.33718677847785
 1 -1.90233710171017 -6.09659626332633  2.21793749774977
 1 -2.45891246294629 -4.84348408740874  3.42660711101110
 1 -3.52768382378238 -6.25502250225022  3.02964448464847
 1  2.64795658745875 -2.78811555265527 -1.24491162446245
 1  2.51246308920892 -0.98652009000900 -2.07232485178518
 1  4.10580201610161 -1.51732980348035  0.57372641704170
 1  4.96745200970097  1.93545124292429 -1.76964955235524
 1  5.25925288908891  0.68604455965597 -2.84112717981798
 1  3.60732721792179  0.70656346224622 -2.51157651455146
 1  6.38470856795680  1.18245138903890  0.24888968856886
 1  6.09909773557356 -0.51440702600260  0.92070176427643
 1  7.18230888398840 -1.54123816921692 -1.09036388248825
 1  7.57707745884589 -0.08862335773577 -1.90321917961796
 1  8.87764220582058  0.81019887138714  0.32483374187419
 1  8.53456618651865 -0.97992507950795  0.84458731163116
 1  10.06285315061506 -0.22698249995000 -1.75561628452845
 1  9.22433962156216 -2.27002566536654 -1.84307353285329
 1  10.94126098709871 -2.55748742514251 -1.59751549714971
 1  9.61625006680668 -2.67027890539054 -0.09766328782878
 1  11.29855404550455  0.75770339413941  0.38338180078008
 1  11.28216578597860 -0.78905739123912  1.00506102780278
 1  12.74099060706071 -1.53312719171917 -0.74061750455046
 1  12.76930724732473 -0.10160743364336 -1.84054737323732
 1  13.72465350085008  0.96995739153915  0.75005017911791
 1  13.72569740524052 -0.65193814781478  1.13467304350435
 1  14.97414891229123  0.41829502930293 -1.50803745354535
 1  14.72322771777178 -2.23210149394939 -0.82986700720072
 1  16.60851758805881 -1.69109494899490 -1.15032642524252
 1  15.92606532413241 -1.92044166276628  0.47532023332333
 1  15.90859805140514  1.84973806250625  0.41248509210921
 1  16.29096541924192  0.40499430853085  1.26906890369037
 1  17.89338541584159 -0.11684016261626 -0.21525621032103
 1  17.68214093949395  1.16602956605660 -1.33947125172517
 1  18.11867357325733  2.44421314901490  0.81490798579858
 1  18.89884289848985  1.20331916871687  1.61979323492349
 1  20.38213644344435  0.88551928562856 -0.21812887578758
 1  19.59946264346435  3.65491762386239 -1.24175915011501
 1  21.18828734593459  2.96774237803780 -1.50985630903090
 1  19.57281551735174  2.07498753535354 -2.11734691589159
 1  21.20353536663666  1.80456000630063  1.91715564336434
 1  21.81439528122812  2.68490660726073  0.61350325012501
 1  20.60025768846885  3.44073374387439  1.54382698709871
 1 -7.22422620512051  1.83680795279528  0.39252250905091
 1 -7.68555992259226 -0.27592246784678 -0.28636195639564

