%nproc=4
%Mem=2GB
# td=(NStates=1) B3LYP/SVP 

TD

0 1
 6 -5.13708655915592 -1.94065387138714  0.59941856695670
 6 -4.63734989318932  2.77239746874687  1.32739941604160
 6 -9.24407365096510  3.30787698399840 -0.32032664886489
 6 -9.86142799389939 -1.53005460006001 -0.80550669606961
 7 -5.19923667166717  0.47580404150415  0.85848330633063
 6 -4.49146724432443 -0.79821880548055  0.84281036663666
 6 -3.02999475317532 -0.60933141664166  1.39911316071607
 6 -3.11134528692869  0.83623874147415  1.91654616001600
 6 -4.41629658775877  1.34323136853685  1.42074398579858
 6 -3.10770726862686  0.86926522752275  3.43505336333633
 6 -2.00187553035303 -0.78416343044304  0.20401700940094
 6 -0.59180756885689 -0.78010686548655  0.53053081818182
 6  0.38972347824782 -0.90776769406941 -0.72453831103110
 8  0.05094483038304 -1.05762545244524 -1.87318977357736
 8  1.69094416961696 -0.84151056955696 -0.34972996499650
 7 -6.94712789378938  2.81406614851485  0.45293588758876
 6 -5.81151533253325  3.48511524402440  0.92631675707571
 6 -6.15825709820982  4.80055813961396  0.96754830653065
 6 -7.44208727322732  4.94363568656866  0.49918514861486
 6 -7.98884433483348  3.62633123202320  0.28875021132113
 6 -5.20472962936294  5.93188697109711  1.27481348524852
 6 -8.06551313951395  6.27946766446645  0.21030608490849
 6 -9.11021854465447  6.59147843844384 -0.59302791909191
 7 -9.24042744204420  0.88500697529753 -0.45380235563556
 6 -9.86884866226623  2.13217651935194 -0.53804261496150
 6 -11.26200243824382  1.89305294479448 -0.97949202050205
 6 -11.46039147964797  0.49063310471047 -1.02920298189819
 6 -10.09708641704171 -0.07332438183818 -0.71179465986599
 6 -12.29164336153615  2.90666323542354 -1.14999942904290
 6 -12.75610570797080 -0.23930302870287 -1.45963819881988
 6 -12.61750622022202 -0.45532017841784 -3.06771395579558
 7 -7.55400852655266 -1.31851616611661 -0.16147249234923
 6 -8.60366635213521 -2.13490010421042 -0.54217114551455
 6 -8.19482308950895 -3.37252185368537 -0.67233097159716
 6 -6.88660068826883 -3.36737262156216 -0.13701580688069
 6 -6.46477501710171 -2.10139193829383  0.15857801190119
 6 -9.03349733483348 -4.70880428042804 -1.02068457525753
 6 -5.80599672117212 -4.31464669156916  0.01538420802080
 8 -5.65778763486349 -5.49996650535054 -0.20259333893389
 6 -4.49625523012301 -3.32233934663466  0.56152140174017
 6 -4.11350376517652 -3.96791048624862  1.80515240054005
 8 -4.41716432813281 -3.58165912181218  2.96287675167517
 8 -3.14449696539654 -4.85393567486749  1.67820356335634
 6 -2.72444597489749 -5.52282318761876  2.82466893719372
 6  2.72947299069907 -0.95692438303830 -1.42737694299430
 6  4.03391750155015 -0.64623924732473 -0.61349796299630
 6  4.99950225042504  0.12545159275928 -1.26053145774577
 6  4.90298080828083  0.73216705840584 -2.67601014001400
 6  6.30678439053905  0.30052268056806 -0.48342980608061
 6  7.58196242344234 -0.26158549164917 -1.27961531493149
 6  8.75134861186119 -0.17413262016202 -0.28578345824582
 6  10.03473532823282 -0.62940742334233 -0.94289526942694
 6  10.06555034843484 -2.18701386718672 -1.41306542124212
 6  11.34075475007501 -0.32899256985699 -0.15331779977998
 6  12.64994357895790 -0.45091356975698 -0.77745562276228
 6  13.85579198639864  0.00223752065207  0.21545790839084
 6  15.21627344844484 -0.29115215101510 -0.35053888968897
 6  15.54822214981498 -1.67859202110211 -0.55320505600560
 6  16.30600319751975  0.43513442464246  0.58507177157716
 6  17.71633847254725  0.64019975387539  0.04760025222522
 6  18.74945479647965  1.49114773377338  0.88519721262126
 6  20.08887878377838  1.67566319161916  0.29123188358836
 6  20.22190311981198  2.47257668886889 -1.02988939793979
 6  21.02667313291329  2.16892062816282  1.40053645434543
 1 -4.09830799839984  3.40794717901790  1.98652089038904
 1 -9.87324490949095  4.11161059755976 -0.55648432233223
 1 -10.67080542044205 -2.15027103710371 -1.07993788768877
 1 -2.65761181268127 -1.24740510461046  2.11678347304731
 1 -2.19348991659166  1.75000495159516  1.68984848324832
 1 -2.12274979087909  0.63958137983798  3.79675640094009
 1 -3.34483778407841  2.02566721032103  3.61714081528153
 1 -3.94405498489849  0.17931863416342  3.83210205590559
 1 -2.23170262416242 -1.68511238893889 -0.33251010731073
 1 -1.92622856145615 -0.01255378107811 -0.48123678437844
 1 -0.24341866526653 -0.00085595969597  1.25202123262326
 1 -0.28630164306431 -1.67155633563356  1.02087920692069
 1 -4.50445510291029  6.10992913051305  0.38049118711871
 1 -5.53835505430543  7.02253737243724  1.49780537753775
 1 -4.54235601260126  5.71764161356136  2.26577763836384
 1 -7.62505260416042  6.95502253595360  0.84636594289429
 1 -9.80565595839584  5.91518950445044 -1.42118151415141
 1 -9.39324360356036  7.76533181848185 -0.67467717181718
 1 -12.39497404480448  3.59331983048305 -0.38168056665667
 1 -12.11244016631663  3.54159912461246 -2.12116933443344
 1 -13.20528792879288  2.32208782698270 -1.17135018191819
 1 -13.20903572947295 -1.20005013131313 -0.97065163896390
 1 -13.54622536483648  0.60409007040704 -1.44849852715272
 1 -12.63931844684469  0.45677269236924 -3.61952079547955
 1 -11.57208341604161 -0.94807420382038 -2.94203500020002
 1 -13.42082015521552 -1.17586494459446 -3.30741460016002
 1 -10.04764231103110 -4.85318741064106 -0.37519332323232
 1 -9.48057996819682 -4.41711872537254 -2.15680620122012
 1 -8.43922562806281 -5.68397917781778 -1.04028868236824
 1 -3.65763149044905 -3.52336968826883 -0.13092615241524
 1 -2.02192906090609 -6.35135173887389  2.50216592059206
 1 -2.17471404310431 -4.93411315031503  3.70201465176518
 1 -3.48692974837484 -6.02929992999300  3.48684020422042
 1  2.54713650545055 -1.93404014511451 -1.85089222252225
 1  2.48353019591959 -0.10505194319432 -2.13253087238724
 1  4.13341477737774 -1.20209828032803  0.38972801720172
 1  5.30276554105411  1.82336003380338 -2.57996058345835
 1  5.79747671147115  0.52086804200420 -3.42437550465046
 1  3.91986847204721  0.67177998389839 -3.01368672557256
 1  6.44937503460346  1.36783992789279 -0.18854405480548
 1  6.33084090989099 -0.12652823812381  0.71175086918692
 1  7.25439609270927 -1.22103614901490 -1.76681152725273
 1  7.86537628872887  0.33132863746375 -2.16377523522352
 1  8.93446788838884  0.93811166266627  0.10403166166617
 1  8.41273400330033 -0.80991807880788  0.62171502440244
 1  10.11704857015702 -0.08382818451845 -1.92899362226223
 1  9.43041022862286 -2.41416007880788 -2.30963018851885
 1  11.20721758275828 -2.64099577597760 -1.73803954955496
 1  9.56989543134313 -2.69285116261626 -0.40183370487049
 1  11.34607879797980  0.84032165596560  0.30794425702570
 1  11.14000156955696 -1.14578306380638  0.76262678437844
 1  12.71067757575758 -1.54252813181318 -1.34839828262826
 1  12.74333465006501  0.17414014111411 -1.68990230873087
 1  13.85063609910991  1.06430682648265  0.49211438553855
 1  13.65116995249525 -0.53064601860186  1.20176975317532
 1  15.37051854925493  0.12771597139714 -1.25470212001200
 1  15.00481587658766 -2.24481276507651 -1.36520054055406
 1  16.64263099939994 -1.64078991849185 -0.83728512111211
 1  15.56969968756876 -2.19690930953095  0.37417011831183
 1  16.02883007460746  1.30142323102310  1.02760660426043
 1  16.35160148284829 -0.15866205710571  1.45489748654866
 1  18.27343342064206 -0.31431991059106 -0.12774745944594
 1  17.94834756015602  0.91240420352035 -0.97089439403940
 1  18.30406211211121  2.50600932863286  1.25041153615361
 1  18.86859987418742  1.01694053085309  1.96745800140014
 1  20.45569379917992  0.43371410511051 -0.02482954585459
 1  20.09399209640964  3.62067419951995 -0.83823879807981
 1  21.30603912111211  2.49414501830183 -1.21060638403840
 1  19.55231346714671  2.00792082868287 -1.85623080428043
 1  21.23439845294530  1.55301485178518  2.25511943974397
 1  21.94739858155815  2.33579169576958  1.09484138393839
 1  20.80116777947795  3.09876954745474  1.86103870827083
 1 -6.87222100460046  1.70310458245825  0.45591884868487
 1 -7.89867123372337 -0.35626050165016  0.02039871967197

