%nproc=4
%Mem=2GB
# td=(NStates=1) B3LYP/SVP 

TD

0 1
 6 -5.12191504200420 -1.95448525452545  0.41404002910291
 6 -4.63674983318332  2.75806603560356  1.38457513361336
 6 -9.21323056665667  3.35112130843084 -0.31559617581758
 6 -9.85863771487149 -1.51248284288429 -0.78814495989599
 7 -5.23939068706871  0.43815027612761  0.80977843584358
 6 -4.53250134773477 -0.72236121972197  0.78063414901490
 6 -3.07504925862586 -0.66766725022502  1.15019826922692
 6 -3.07260141254125  0.83593871147115  1.81519602500250
 6 -4.34699965806581  1.45351239663966  1.29858176957696
 6 -2.98423492139214  0.91562986398640  3.37382724072407
 6 -2.07622296509651 -0.71531654575458 -0.09895328762876
 6 -0.61457984608461 -0.84056291109111  0.46121388648865
 6  0.37207171307131 -0.90923784108411 -0.68276413361336
 8  0.18286802270227 -1.37051674157416 -1.85545800040004
 8  1.56680175537554 -0.72127854635464 -0.30887587958796
 7 -6.99493267426743  2.77683242514251  0.39385997999800
 6 -5.88922310331033  3.41910864336434  0.91989611501150
 6 -6.16146741924192  4.76909499329933  0.84785633733373
 6 -7.55295836033603  5.05975729872987  0.58769399949995
 6 -7.94600005040504  3.67122572147215  0.15487682398240
 6 -5.22562171857186  5.83989777217722  1.52615861976198
 6 -8.15844243244324  6.29475919361936  0.49392444674467
 6 -9.15771329412941  6.73743303390339 -0.34107272357236
 7 -9.19742314161416  0.93207168176818 -0.52411938733873
 6 -9.81167294469447  2.15152845454545 -0.63234204490449
 6 -11.20622686068607  1.91062470197020 -1.02994706600660
 6 -11.39674511501150  0.57169121052105 -1.04061412301230
 6 -10.10226693509351 -0.12731978137814 -0.79254273467347
 6 -12.30891508870887  2.96671924102410 -1.09460388948895
 6 -12.56473657105711 -0.29580867926793 -1.59219145414541
 6 -12.44845931553155 -0.56415106150615 -3.13028021242124
 7 -7.42582570827083 -1.30558487298730 -0.21186753185319
 6 -8.65458144364436 -2.06914352855286 -0.54322125052505
 6 -8.19392299949995 -3.47840244174417 -0.54691843034303
 6 -6.86170819901990 -3.43968985328533 -0.15259736503650
 6 -6.39889842944294 -2.12516431553155  0.03763591769177
 6 -9.05001898699870 -4.61520492049205 -0.98444095089509
 6 -5.73863998549855 -4.41370659755976  0.12370504010401
 8 -5.56684854095410 -5.57649415811581  0.05638255865587
 6 -4.53966957155716 -3.32040915361536  0.41251650125012
 6 -3.83743615841584 -3.81143483868387  1.63958584388439
 8 -3.95734834653465 -3.36977793369337  2.79940040404040
 8 -3.02388490419042 -4.84196447774778  1.44677042004200
 6 -2.63458698899890 -5.64010491579158  2.51563803410341
 6  2.65568561196120 -0.85210390099010 -1.27455166046605
 6  4.02557666746675 -0.74721934533453 -0.66904351755176
 6  5.01780408060806  0.16838588618862 -0.96032143674367
 6  4.85869637983798  1.02286612831283 -2.26830936993699
 6  6.26284999709971  0.27211984028403 -0.15130659375938
 6  7.46762098929893 -0.33146247934793 -0.87064441784178
 6  8.67715119211921 -0.12880808770877 -0.00511539143914
 6  9.98263011771177 -0.68534301690169 -0.62556353625363
 6  9.91963575697570 -2.19104427022702 -0.84203831853185
 6  11.22388306290629 -0.14169383998400  0.04821235323532
 6  12.55082366696670 -0.52428090649065 -0.51794967216722
 6  13.75523193039304  0.15574287118712  0.22498886148615
 6  15.17196901800180 -0.24803783958396 -0.32294613041304
 6  15.52431975957596 -1.75318948084808 -0.17846758225823
 6  16.17602019921992  0.59166007720772  0.34680794519452
 6  17.59388622732273  0.54362009590959 -0.23430793859386
 6  18.63818366936693  1.42457107610761  0.55258395129513
 6  20.12170206610661  1.53585921122112 -0.04142138173817
 6  20.17142807230723  2.06004543574357 -1.32828923792379
 6  20.90847131273127  2.36211994809481  1.03736013671367
 1 -3.83952211981198  3.42495888018802  1.50807304560456
 1 -9.87317490249025  4.16616605310531 -0.52930160406041
 1 -10.77896623652365 -2.06556256625663 -1.03079297319732
 1 -2.91103715521552 -1.32535289938994  1.93619541424142
 1 -2.22979354695470  1.50099005010501  1.36332583098310
 1 -2.14461197709771  0.25099252095210  3.86221294659466
 1 -2.84482778307831  1.81710635423542  3.80143924512451
 1 -4.03007358675868  0.29043974627463  3.65622446814681
 1 -2.43411286518652 -1.53127700540054 -0.71360821712171
 1 -2.32076801540154  0.27339481378138 -0.77183584428443
 1 -0.38643296669667  0.10738486438644  1.00486651715172
 1 -0.61064407730773 -1.56575575557556  1.10314743374337
 1 -4.33782844024402  6.09701783938394  0.82731586958696
 1 -5.83720493929393  6.64843996269627  1.83326892389239
 1 -4.75706748374837  5.46066591599160  2.40662172277228
 1 -7.77320741964196  6.94741177487749  1.24340564686469
 1 -9.46967236003600  5.87097508300830 -0.99352874887489
 1 -9.73610788998900  7.67107239253925 -0.15641534563456
 1 -12.43739828722872  3.62487298579858 -0.14199659825983
 1 -11.89564848714872  3.75656062076208 -1.85485270277028
 1 -13.18065546554656  2.51184680288029 -1.66336938383838
 1 -12.60643546944694 -1.24889501580158 -1.10358493229323
 1 -13.55166590889089  0.28443810521052 -1.46397007430743
 1 -12.17608212321232  0.33773078817882 -3.72163100650065
 1 -11.60138634633463 -1.41792118851885 -3.06972776947695
 1 -13.51688976217622 -0.79635699379938 -3.40233409210921
 1 -9.90935848264827 -4.66200829272927 -0.46640244414441
 1 -9.04536644684469 -4.59654666816682 -2.17147766836684
 1 -8.32504420992099 -5.47584836473647 -0.55640029352935
 1 -3.91448717601760 -3.33429078037804 -0.57206026582658
 1 -2.18723559155916 -6.71786839053905  2.07786349034904
 1 -1.71981855355535 -5.16703644264426  3.27400185048505
 1 -3.49504055945595 -6.03922092209221  3.06694821502150
 1  2.67123891569157 -2.00669741084108 -1.60309744304431
 1  2.24805664856486 -0.05266670467047 -1.94623224252425
 1  4.15959739563957 -1.41563963446345  0.25541458585859
 1  5.02316758125813  1.99941763956396 -1.74826741414141
 1  5.74855181898190  0.61854780998100 -2.79185225232523
 1  3.83626011121112  0.92184499039904 -2.78687404430443
 1  6.41985208230823  1.43392653655366 -0.01809701010101
 1  6.07906573237324 -0.32368795409541  0.78589828392839
 1  7.09891054415442 -1.42954700010001 -1.15087993409341
 1  7.52719247034703  0.08120362496250 -1.85761461916192
 1  8.82511695329533  0.97060491199120  0.12752401090109
 1  8.64013674357436 -0.56546363336334  0.98456130903090
 1  10.22286915221522 -0.23059286098610 -1.61425214811481
 1  9.00650783838384 -2.64869353215322 -1.36634586008601
 1  10.73754061506151 -2.51142281868187 -1.54763050865087
 1  10.06653509530953 -2.71159303680368  0.17853433193319
 1  11.09308349844984  0.99292691649165  0.05169863246325
 1  11.11793936333633 -0.57782626812681  1.16837735943594
 1  12.72200870887089 -1.62256613561356 -0.47294073687369
 1  12.53353366996700 -0.04457173007301 -1.52502582108211
 1  13.50327136263626  1.26278667446745  0.09766494059406
 1  13.72654749024903 -0.16595954995500  1.20741031723172
 1  15.25715721312131  0.08933213301330 -1.45056170597060
 1  14.77176257125713 -2.53188147194719 -0.71263528402840
 1  16.65814255055506 -1.96260209970997 -0.50934232683268
 1  15.55872859045905 -2.11175079367937  0.87997069836984
 1  15.73115030663066  1.53550663936394  0.60199404300430
 1  16.53599992269227  0.30753456255626  1.41672366916692
 1  18.14721079837984 -0.36189466806681 -0.12267695239524
 1  17.59606233163316  0.87304026712671 -1.23209051365137
 1  18.28648035393540  2.47691641934193  0.51836833183318
 1  18.66444945914592  1.01280011681168  1.58411966756676
 1  20.63549177897790  0.47568830253025  0.09553249034904
 1  20.20381307850785  3.12807493959396 -1.45379035323532
 1  21.21759027622762  1.91673727752775 -1.74392971637164
 1  19.55478371417142  1.49743978057806 -2.16762194339434
 1  20.91392640574058  1.85543509380938  2.03311723952395
 1  21.97619146084608  2.53595171177118  0.78079997979798
 1  20.33208087078708  3.32053172367237  1.16727933233323
 1 -6.93591737423742  1.80123439543954  0.10389364616462
 1 -7.55544691129113 -0.27769264486449 -0.24780810101010

