%nproc=4
%Mem=2GB
# td=(NStates=1) B3LYP/SVP 

TD

0 1
 6 -5.08310116061606 -2.02116192219222  0.44010263536354
 6 -4.90332649084908  2.72836306530653  1.36946362246225
 6 -9.38191743534353  3.30600679697970 -0.24011862806281
 6 -9.82461431253125 -1.45480707530753 -0.89675582098210
 7 -5.27961470947095  0.40263672477248  0.84879233723372
 6 -4.46045414301430 -0.73835281888189  0.71957804340434
 6 -3.07198895259526 -0.48277876137614  1.12840609000900
 6 -3.09929408180818  0.96860197779778  1.86604110951095
 6 -4.49247420552055  1.45522256765677  1.29673158455846
 6 -3.11644814271427  0.79587788878888  3.45864572257226
 6 -2.08271361416142 -0.53190820492049  0.03248985668567
 6 -0.58663705180518 -0.74143299809981  0.44654241934193
 6  0.33230773667367 -1.06493341064106 -0.68124398159816
 8  0.10703043894389 -1.58606829672967 -1.72174462906291
 8  1.66824189938994 -0.56988340684068 -0.36862185418542
 7 -7.08587176817682  2.74986972887289  0.40374096809681
 6 -5.96461064206421  3.43317004950495  0.94909903530353
 6 -6.22799407190719  4.84494257805781  0.90828237993799
 6 -7.51126419091909  4.94152547554755  0.34285951605161
 6 -8.05525097549755  3.67081568046805  0.10643197949795
 6 -5.28849800620062  5.75660944334433  1.46183218711871
 6 -8.18976556475648  6.31080079777978  0.36149120342034
 6 -9.13285080788079  6.64100339093909 -0.54572318861886
 7 -9.24834823412341  0.93376185078508 -0.57354432983298
 6 -9.92856463386339  2.01540484218422 -0.55596440714071
 6 -11.26982322032203  1.87987162666267 -0.91836590789079
 6 -11.39939538003800  0.46248028942894 -1.04250431203120
 6 -10.02915962436244 -0.09512656205621 -0.91554503490349
 6 -12.32449664686469  2.94490705980598 -0.93960838993899
 6 -12.66570666806681 -0.19041814021402 -1.48695093009301
 6 -12.71017548714872 -0.70724537093709 -2.97872505690569
 7 -7.41947507320732 -1.28069238373837 -0.13073941904190
 6 -8.54404038953895 -2.05376199039904 -0.55231215961596
 6 -8.20607421462146 -3.36640124162416 -0.64642838133813
 6 -6.81022305050505 -3.46375225952595 -0.13257536283628
 6 -6.40967950755075 -2.17290909000900  0.05122727682768
 6 -8.91745573067307 -4.52910631063106 -1.09669217601760
 6 -5.73928004950495 -4.34891011791179  0.03409607920792
 8 -5.64839669576958 -5.58533504220422 -0.09945302490249
 6 -4.51452705730573 -3.39465657835784  0.55661091069107
 6 -3.85096751155116 -3.80003369856986  1.81217310261026
 8 -4.09941255295530 -3.25359631553155  2.89492995699570
 8 -3.14148666436644 -4.93617389868987  1.68417416041604
 6 -2.66789031933193 -5.59520042534253  2.85326179647965
 6  2.64922496589659 -0.98767745834583 -1.34321852715272
 6  3.97944205400540 -0.65220984438444 -0.66243285648565
 6  4.94117641784178  0.18984803240324 -1.10355576017602
 6  4.86439694989499  0.78278211991199 -2.48875141414141
 6  6.20366407850785  0.41170379867987 -0.27554901800180
 6  7.50397462466247 -0.07894722782278 -1.06742409580958
 6  8.71443492049205 -0.07018222512251 -0.15514039393939
 6  10.06778863356336 -0.50998548114811 -0.87260824072407
 6  9.96298009140914 -1.97881304710471 -1.22245636033603
 6  11.31902257685769 -0.20198986958696 -0.05541800980098
 6  12.68440702530253 -0.59463794219422 -0.57662553975398
 6  13.80695710291029 -0.03113581668167  0.21872823542354
 6  15.26021784288429 -0.19605264106411 -0.46268010381038
 6  15.60218754635464 -1.59800396229623 -0.67859759525953
 6  16.34477707490749  0.53115402660266  0.34282754715472
 6  17.84992183088309  0.54743047694769 -0.11098560636064
 6  18.82365221622162  1.26689530853085  0.86390508340834
 6  20.15720561646165  1.42668829412941  0.24779754015402
 6  20.23696462596260  2.35681511271127 -1.01570797979798
 6  21.17727819341934  1.94158789488949  1.43360976167617
 1 -4.13224139173917  3.48870525482548  1.69107134543454
 1 -10.02625021002100  4.09527896439644 -0.26420509440944
 1 -10.67620596049605 -2.25027103710371 -1.13162305620562
 1 -2.79253530503050 -1.27079744384438  1.76441823652365
 1 -2.49495006260626  1.56777672877288  1.50105960436044
 1 -2.25987350325032  0.14455187688769  3.86615334063406
 1 -3.29851315161516  1.84404904850485  4.08716781798180
 1 -4.16261684108411  0.12931363366337  3.72050089578958
 1 -2.42223167706771 -1.45770964866487 -0.49697655395540
 1 -2.12086802540254  0.22130960526053 -0.73363202390239
 1 -0.08074239763976 -0.01959783388339  1.04283031353135
 1 -0.47867087998800 -1.47067624762476  1.30342746174617
 1 -4.52848750615061  5.63669180678068  0.81182432043204
 1 -5.55260647944794  6.94803992269227  1.25037063406341
 1 -5.07169894689469  5.51401125052505  2.48517957855786
 1 -7.83567366626663  6.98438547224722  0.94349565586559
 1 -9.35559095189519  5.95128311381138 -1.25567496349635
 1 -9.66296057525753  7.56081136643664 -0.20392009610961
 1 -12.31221576897690  3.52233273177318  0.16679428082808
 1 -12.26109503180318  3.75199016371637 -1.77334455195520
 1 -13.31745914591459  2.39352497069707 -1.16943999089909
 1 -12.70305513141314 -1.03698382468247 -0.82544711851185
 1 -13.38715945824583  0.82482214361436 -1.29721339863986
 1 -12.64934944994499  0.06910392549255 -3.63758260166017
 1 -11.88861506920692 -1.53978337473747 -2.98509930663066
 1 -13.58793686688669 -1.42601996009601 -2.83753761246125
 1 -9.85751329812981 -4.49633172507251 -0.58870467436744
 1 -9.09304121432143 -4.38823583708371 -2.13697421802180
 1 -8.48551025652565 -5.48844962486249 -0.93459811331133
 1 -3.59517524482448 -3.36315366666667 -0.06329938973897
 1 -1.95384225222522 -6.28832543624362  2.34993069706971
 1 -2.28215478717872 -4.74976471547155  3.41356580688069
 1 -3.51144219961996 -6.13316031603160  3.36640816101610
 1  2.39584137593759 -2.04502124322432 -1.68611574487449
 1  2.50038188108811 -0.02136357435744 -2.19811743104310
 1  4.04927636353635 -0.99193726422642  0.11632067646765
 1  5.50693595809581  1.88526622442244 -2.43080566796680
 1  5.41013797759776  0.22537849304930 -3.09991305840584
 1  3.82286877207721  1.07997080298030 -2.74920027692769
 1  6.62540263736374  1.37374051795180 -0.05938113851385
 1  6.22490031583158 -0.35803138843884  0.52988268236824
 1  7.40157081018102 -1.03748779417942 -1.46157100320032
 1  7.66586633773377  0.53666917151715 -2.15769462716272
 1  8.75336977857786  0.86032388388839  0.49649090759076
 1  8.43287601750175 -1.03341042804280  0.64789764266427
 1  10.04498136343634  0.23791398969897 -1.91415213811381
 1  9.06423361096110 -2.31261992479248 -1.79106833233323
 1  10.92206906790679 -2.21567324372437 -1.87107285288529
 1  9.95409385118512 -2.37197907540754 -0.08176169766977
 1  11.31803599369937  0.93045066886689  0.12930639323932
 1  11.06515408480848 -0.59743822932293  0.99049957165717
 1  12.90150665866587 -1.67490136913691 -0.46986042884288
 1  12.80948126472647 -0.15081235413541 -1.65464878337834
 1  13.69191022652265  0.98745914171417  0.24079925402540
 1  13.80812564806481 -0.34347730173017  1.16229580578058
 1  15.42579407680768  0.24601780158016 -1.43493014281428
 1  14.90710610561056 -2.02237052085208 -1.45122914341434
 1  16.54580131643164 -1.78462430193019 -1.23805519811981
 1  15.81185390299030 -2.28289790839084  0.03647634893489
 1  16.23113030463046  1.58009109780978  0.47661150475048
 1  16.43558988168817  0.08276208530853  1.24057605440544
 1  18.48625470277028 -0.35302378097810 -0.34313899859986
 1  18.02896562196220  1.09704266736674 -1.15251255585559
 1  18.39206091199120  2.16193492119212  1.25042153715372
 1  18.97330034423442  0.54574341114111  1.72405366096610
 1  20.51806003580358  0.49977071077108 -0.04489155205521
 1  20.00988368556856  3.33191532363236 -0.95038001220122
 1  21.31666018321832  2.26856246004600 -1.61585690909091
 1  19.58975721152115  1.80497053365337 -1.75771095229523
 1  21.29005401850185  1.24102365266527  2.38239216701670
 1  22.29488333003300  1.95472358895890  0.95397729752975
 1  20.83149081178118  3.05173484398440  1.81264386878688
 1 -7.22330611311131  1.81440571257126  0.27930118691869
 1 -7.47784915151515 -0.16311118671867 -0.25558887908791

