%nproc=4
%Mem=2GB
# td=(NStates=1) B3LYP/SVP 

TD

0 1
 6 -5.00601345184518 -2.00156996299630  0.53072169726973
 6 -4.73526968516852  2.86755698469847  1.33670034613461
 6 -9.29406865046505  3.25261145744574 -0.23800841704170
 6 -9.64210606170617 -1.51393298789879 -1.02688883428343
 7 -5.20482723072307  0.43748020912091  0.81170862886289
 6 -4.46625472307231 -0.72172115571557  0.86030211581158
 6 -3.00453220692069 -0.55820630413041  1.18307155655566
 6 -3.02222637503750  0.87845296289629  1.88162266766677
 6 -4.37635259335933  1.46529357475748  1.29310122152215
 6 -2.89491598949895  0.97430573157316  3.42572243024302
 6 -2.09922526532653 -0.74478949304930  0.07767437513751
 6 -0.62202059015902 -0.67273612841284  0.47009477457746
 6  0.28732323822382 -0.77589450675067 -0.72375823302330
 8  0.05752548844884 -0.97018670857086 -1.81098355295530
 8  1.60448552375238 -0.63572999149915 -0.29334432643264
 7 -6.99290247124712  2.78121286318632  0.37940853485349
 6 -5.90087426842684  3.33485021752175  0.97747187258726
 6 -6.23798507100710  4.75448353215322  1.08640019171917
 6 -7.49788285278528  4.98957028002800  0.55089031913191
 6 -8.03070852125213  3.71957055595560  0.21438277457746
 6 -5.27208636503650  5.80503428582858  1.54902090599060
 6 -8.12513910211021  6.29555927362736  0.37517257155716
 6 -9.16346386918692  6.79833912451245 -0.36788540484048
 7 -9.17478087738774  0.84456293089309 -0.61010798619862
 6 -9.81613339073907  2.06908020972097 -0.60658946964696
 6 -11.20861709970997  1.83643728322832 -1.06898096939694
 6 -11.35288072857286  0.49026306770677 -1.28575863746375
 6 -9.95442215061506 -0.10974802420242 -0.96909038943894
 6 -12.19943414061406  2.92565513461346 -1.12268669776978
 6 -12.50717081448145 -0.40661976037604 -1.74945718071807
 6 -12.40834530413041 -0.70071471787179 -3.20771795619562
 7 -7.37655078077808 -1.37478179267927 -0.25551189628963
 6 -8.42495848134813 -2.13446006020602 -0.66444337273727
 6 -8.05321892909291 -3.43305790729073 -0.68661239973997
 6 -6.74627665586559 -3.41700758505851 -0.19873197849785
 6 -6.30806934653465 -2.14038583768377  0.08464061816182
 6 -8.90281426652665 -4.76002940294029 -0.82773528032803
 6 -5.61871799329933 -4.36205143204320  0.09862253185319
 8 -5.62352420852085 -5.59057556625663 -0.00055313491349
 6 -4.46847245184518 -3.44591170387039  0.57093234283428
 6 -3.90195261006101 -3.82907660286029  1.88276016131613
 8 -4.17235984768477 -3.30119107500750  3.01464192819282
 8 -3.05298781448145 -4.79568985028503  1.77236297929793
 6 -2.52615614591459 -5.39246015131513  2.91788825912591
 6  2.58906895029503 -0.82437112771277 -1.29889409470947
 6  3.91239534933493 -0.60891551495150 -0.63714032723272
 6  4.96385868606861  0.22460150775077 -0.93752915751575
 6  4.83090360056006  1.22421626332633 -2.22565510451045
 6  6.28190190229023  0.22305493379338 -0.19468093119312
 6  7.43683791099110 -0.22788212131213 -1.16747410081008
 6  8.64462793979398 -0.26359156605661 -0.23864874477448
 6  9.87478933363336 -0.65534001660166 -0.93174415431543
 6  9.88323211661166 -2.17660282608261 -1.37730184488449
 6  11.18511918651865 -0.45465513611361 -0.02688515651565
 6  12.55603418801880 -0.65176365476548 -0.68667654485449
 6  13.71715812301230 -0.35904860796080  0.16560292289229
 6  15.15651747284728 -0.38107114291429 -0.45815965176518
 6  15.56537386498650 -1.80931509340934 -0.80965070057006
 6  16.17025962316232  0.34474538573857  0.47447071147115
 6  17.52404924362436  0.64393012691269 -0.19506401420142
 6  18.46527637863786  1.49912853185319  0.77002569546955
 6  19.92533242914291  1.58888451375138  0.21780454085409
 6  19.96161709120912  2.43413284448445 -1.08005441444144
 6  20.85198566416642  2.14958869496950  1.40193659435944
 1 -4.00233840144014  3.47048343264326  1.73605584388439
 1 -10.05721330633063  4.11159059555956 -0.27137581148115
 1 -10.53644198409841 -2.10681669166917 -1.34081397529753
 1 -2.72114816631663 -1.30370073417342  1.81267306200620
 1 -2.30621118871887  1.46484643574357  1.46625612401240
 1 -1.71181869776978  0.99531695339534  3.77294401970197
 1 -3.39421272157216  2.07915255885589  3.74509361056106
 1 -3.53340391979198  0.16285698799880  3.83735258095810
 1 -2.21142059595960 -1.59501337903790 -0.50583744004400
 1 -2.44729066766677  0.08365583988399 -0.62057071777178
 1 -0.40825514891489 -0.02809868396840  1.15861189168917
 1 -0.34625763866387 -1.68208738873887  1.18373549254926
 1 -4.33796845424542  5.68936707430743  1.00528366636664
 1 -5.47950916971697  6.92931805050505  1.44333993099310
 1 -5.11543332033203  5.64909475887589  2.65478653925393
 1 -7.59715981488149  6.97037407110711  1.04376568286829
 1 -9.73155854865487  6.20817880338034 -1.02290168616862
 1 -9.37476175537554  7.80675596089609 -0.34538424252425
 1 -11.90192473987399  3.53970446894689 -0.45941834043404
 1 -12.06488541084108  3.33107807250725 -2.19403662116212
 1 -13.42925032503250  2.56101171937194 -1.02833588048805
 1 -12.69428425432543 -1.20980110641064 -1.05707028082808
 1 -13.40222096439644  0.15086474787479 -1.62919659695970
 1 -12.21825634063406  0.28405542064206 -3.88757760116012
 1 -11.63785999369937 -1.42976237263726 -3.13205400210021
 1 -13.41520959415942 -1.19545690379038 -3.53042690139014
 1 -9.54311185798580 -4.73815590749075 -0.01815761966197
 1 -9.57136904710471 -4.57914492799280 -1.81500202080208
 1 -8.39383108860886 -5.56950773067307 -0.80567522102210
 1 -3.46618234553455 -3.41335868716872 -0.11899495929593
 1 -1.84098096609661 -6.25549215291529  2.62856856085609
 1 -1.98063463516352 -4.65878561756176  3.50563501380138
 1 -3.26567762316232 -5.90668766876688  3.67662918311831
 1  2.42012380418042 -1.94520126122612 -1.62818995229523
 1  2.38501034393439 -0.29167060506051 -2.15229284858486
 1  4.05437687358736 -0.96263433393339  0.32077112151215
 1  5.04675994049405  2.44007170497050 -1.74042663006301
 1  5.47446441024102  1.05817177237724 -3.13968703580358
 1  3.80620710591059  1.40990379627963 -2.60854621152115
 1  6.57107720482048  1.32865600950095  0.15855065466547
 1  6.04889271507151 -0.58759434473447  0.55895558965897
 1  7.30613126622662 -1.25919996539654 -1.56131097719772
 1  7.65379513061306  0.33055856045605 -2.03109196689669
 1  8.80156459805981  0.73392124362436  0.46653791229123
 1  8.23610634053405 -1.12638972597260  0.62121497439744
 1  9.92791965726573 -0.12444224592459 -1.92774349724972
 1  9.05239242684268 -2.45257392019202 -1.98167739323932
 1  10.75265212621262 -2.48935061146115 -1.90875662126213
 1  9.73896233803380 -2.78680055755576 -0.25340886238624
 1  11.10040423052305  0.78061568536854  0.46302976557656
 1  11.24292186158616 -1.03112159765977  1.03949447114712
 1  12.54297080508051 -1.67572145114511 -0.98590203300330
 1  12.68693901050105 -0.39491676457646 -1.70300361886189
 1  13.53443447894789  0.70138053385338  0.39577475157516
 1  13.72930776627663 -0.73489644364436  1.21524110031003
 1  15.17302880028003  0.13411661146115 -1.29374602440244
 1  14.89246464146415 -2.34979326312631 -1.56723074357436
 1  16.51588832513252 -1.84892073157316 -1.42415380798080
 1  15.77875059265927 -2.50358997759776  0.07867056835684
 1  15.62375956755676  1.32868595729573  0.74644848844884
 1  16.18400472317232 -0.17946413731373  1.61034303110311
 1  17.94450052735274 -0.38449692829283 -0.42678736343634
 1  17.44793751915191  1.34665762886289 -1.02383968856886
 1  17.90825253115312  2.41018974667467  0.89977647264727
 1  18.32242525672567  0.89839867666767  1.57240849644964
 1  20.24495272507251  0.55899663336334 -0.10658772167217
 1  19.42363506070607  3.39172130423042 -0.96871184538454
 1  21.00926944414441  2.49920552435244 -1.72877820122012
 1  19.37511574737474  1.74205424202420 -1.91925710691069
 1  20.57951296439644  1.58509806010601  2.38147207500750
 1  22.11020486218622  1.94578269486949  1.36871877167717
 1  20.75031269396940  3.27639731023102  1.66285889028903
 1 -7.27507128962896  1.90656492849285  0.05205846264626
 1 -7.30569193579358 -0.35684055965597 -0.06857017721772

