%nproc=4
%Mem=2GB
# td=(NStates=1) B3LYP/SVP 

TD

0 1
 6 -5.12962581308131 -1.98285809180918  0.45875450055005
 6 -4.72749890809081  2.64975520452045  1.53240991709171
 6 -9.22320156375637  3.41275747204720 -0.43985860206021
 6 -9.82187403850385 -1.43773536813681 -0.90336648204820
 7 -5.20480722872287  0.48716517761776  0.76493395139514
 6 -4.52846094369437 -0.77734671827183  0.85340142574257
 6 -3.14241599529953 -0.59713019651965  1.36387963736374
 6 -3.20518467086709  0.75863098069807  2.00072457785779
 6 -4.44420937903790  1.27798484388439  1.40483239463946
 6 -3.05968246614661  0.76864516551655  3.42383224122412
 6 -2.07706304910491 -0.87927294139414  0.23075968366837
 6 -0.66693508160816 -0.82414126892689  0.77189495459546
 6  0.42172667856786 -1.13851076837684 -0.34954081128113
 8  0.12226196209621 -1.60282997289729 -1.45248770337034
 8  1.68681375657566 -0.82310872937294  0.05658066606661
 7 -7.02430561156116  2.86205094699470  0.52302289628963
 6 -5.83955813681368  3.38359509200920  1.01988611401140
 6 -6.17738901140114  4.78734681848185  1.03141469316932
 6 -7.44810787528753  5.04788611161116  0.58920415051505
 6 -7.93175862626263  3.77178577747775  0.13267460376038
 6 -5.17841699809981  5.89463324572457  1.59190519441944
 6 -8.05370195839584  6.35442516021602  0.34041909620962
 6 -9.07944546734674  6.73670296089609 -0.46479509580958
 7 -9.06055945524552  0.91269974457446 -0.60234721012101
 6 -9.74091586898690  2.15320862256226 -0.60602941364136
 6 -11.07612385038504  1.92744638413841 -1.03984805610561
 6 -11.27671311181118  0.59992403380338 -1.26623668526853
 6 -10.06319302770277 -0.05132218161816 -0.92169564996500
 6 -12.10561475867587  3.07685025412541 -1.29664409350935
 6 -12.58198829622962 -0.06625572397240 -1.70178241324132
 6 -12.58733320292029 -0.29525417181718 -3.22798998339834
 7 -7.52779590529053 -1.27357167166717 -0.19340568566857
 6 -8.60807679317932 -2.08023463766377 -0.65651257965797
 6 -8.15470907810781 -3.41860646214621 -0.76720045854585
 6 -6.82025405360536 -3.42564844914491 -0.35817792309231
 6 -6.51147968756876 -2.14738653775378  0.00050220432043
 6 -8.99863384848485 -4.63183658365837 -1.03436594339434
 6 -5.67656377787779 -4.30676590349035 -0.14261159155916
 8 -5.62549440554055 -5.56659316801680 -0.14994807440744
 6 -4.52407801240124 -3.39330644334433  0.37224247384738
 6 -4.06570898569857 -3.88895259045905  1.69573145844584
 8 -4.23847645934593 -3.49273022892289  2.80200066406641
 8 -3.14882739843984 -4.88873915521552  1.52452819581958
 6 -2.52346587688769 -5.42802370767077  2.71906837713771
 6  2.69077912131213 -1.22223091369137 -1.05169937523752
 6  4.00825493529353 -0.80000462386239 -0.48308492169217
 6  4.91720402060206  0.02273132073207 -1.03104850945095
 6  4.80915142534253  0.66076991869187 -2.44060659965997
 6  6.31764547664767  0.21760438873887 -0.26280774387439
 6  7.49829405660566 -0.39908924202420 -0.98214556795680
 6  8.62712618961896 -0.23539874677468 -0.11556643654365
 6  10.04186604130413 -0.67032151475148 -0.85803678357836
 6  10.02995678907891 -2.24902006780678 -0.93963807850785
 6  11.10502117671767 -0.22139180978098  0.10694822682268
 6  12.61601018561856 -0.46225470387039 -0.40561843904390
 6  13.80653706090609  0.10560785768577  0.44112047464746
 6  15.18281010211021 -0.07434046984698 -0.33774761056106
 6  15.50258758635863 -1.55142930483048 -0.63572330783078
 6  16.22159475667567  0.65482639383938  0.35908917331733
 6  17.57605444414441  0.73171890579058 -0.29146365416542
 6  18.54776462746274  1.55378399739974  0.46988568146815
 6  20.04618451435143  1.62776840214021  0.00341310171017
 6  20.22671360086009  2.13605303650365 -1.43834024302430
 6  20.86234670027003  2.57107084318432  0.91139754045405
 1 -3.99961812941294  3.32293867816782  1.94277651595160
 1 -10.07105469046905  4.15631506800680 -0.44098277217722
 1 -10.49470781068107 -2.23394940494049 -1.25435532943294
 1 -2.84875092659266 -1.32144250835083  2.21939373407341
 1 -2.43144371197120  1.55377532863286  1.57024652305231
 1 -2.08364588048805  0.19167658935894  3.58698542384238
 1 -2.89633293359336  1.77839248284829  3.85651475267527
 1 -3.81028160756076 -0.00467976567657  3.74618346404641
 1 -2.06439589348935 -1.89342322002200 -0.34006086238624
 1 -2.13763970257026  0.00738821312131 -0.43123178387839
 1 -0.51407573097310  0.34484861076108  1.12348837933793
 1 -0.37124013691369 -1.30088926892689  1.75871299029903
 1 -4.22318697609761  5.74900303790379  1.04549768776878
 1 -5.50175139393939  6.94657977667767  1.47804340134013
 1 -4.89206098309831  5.81747159655966  2.61377243784378
 1 -7.97177727662766  7.22914994869487  1.02748405470547
 1 -9.45726111891189  6.13751173667367 -1.31797119311931
 1 -9.43645792499250  7.56086137143714 -0.15516522062206
 1 -12.28356290369037  3.78080857935794 -0.35666806540654
 1 -11.68689761206121  3.63108807350735 -1.96754397189719
 1 -13.11212861286129  2.68062368056806 -1.91833488038804
 1 -12.82531735763576 -1.02227235353535 -1.27190176397640
 1 -13.53458420072007  0.57580724212421 -1.38211188848885
 1 -12.34541905690569  0.74615163026303 -3.65280412381238
 1 -11.69807601530153 -1.03145254165417 -3.54509530623062
 1 -13.53532160536054 -0.61592895099510 -3.61251511021102
 1 -10.03915146194620 -4.73724581648165 -0.48318412231223
 1 -9.37833974417442 -4.55876288978898 -2.25166568716872
 1 -8.49229093459346 -5.56483726362636 -0.90320497399740
 1 -3.60973670097010 -3.29482683398340 -0.28410146994699
 1 -1.73460032803280 -6.16173277697770  2.21479718371837
 1 -2.32492906460646 -4.56594633363336  3.41775622592259
 1 -3.46992804820482 -6.10692769276928  3.33379489968997
 1  2.54556634843484 -2.38369511061106 -1.17177431073107
 1  2.51741358425843 -0.62436387438744 -1.95661328062806
 1  4.05351678757876 -1.14707277777778  0.62445148954896
 1  5.24286955145514  1.65982368016802 -2.48261084848485
 1  5.47117408120812  0.01956791199120 -3.30085315241524
 1  3.71056754195420  0.80891369726973 -2.61266662356236
 1  6.46451654875488  1.26146929082908 -0.01074627502750
 1  6.30848867466747 -0.29912549784978  0.82104179827983
 1  7.24497515061506 -1.37611165656566 -1.37633247934794
 1  7.43064281538154  0.16885238983898 -1.89584844254425
 1  8.71080552215222  0.86858470997100  0.37847910641064
 1  8.63998672857286 -0.90514760176018  0.71722457535754
 1  10.23601046634663 -0.14124392609261 -1.91288201110111
 1  9.26493368096810 -2.57386604940494 -1.56481570707071
 1  10.87514437543754 -2.66157783418342 -1.55139088468847
 1  9.94046248804881 -2.88432030953095 -0.04401792329233
 1  10.90589477957796  0.93605122892289  0.32484594719472
 1  11.20010758015802 -0.75647413291329  1.27277779947995
 1  12.58126463446345 -1.63101698069807 -0.61130457325733
 1  12.67103742034203 -0.09991726462646 -1.48130144864486
 1  13.84798583408341  1.38612900870087  0.32930810491049
 1  13.94817965346535 -0.37293024702470  1.31912148834884
 1  14.96538803620362  0.62843604340434 -1.34956160596060
 1  14.75452084708471 -2.02451073487349 -1.42256627712771
 1  16.41924866116612 -1.65899173867387 -1.33767516011601
 1  15.54992771037104 -2.11421103970397  0.22767546884689
 1  15.99890708230823  1.60085317401740  0.68705254885489
 1  16.45086140884089  0.12027583668367  1.27813981078108
 1  18.11732781008101 -0.23947242584258 -0.38057274197420
 1  17.42174489988999  1.08932189528953 -1.41844914951495
 1  18.16025773167317  2.54461318901890  0.32575907090709
 1  18.54297731193120  1.25083392019202  1.51392264786479
 1  20.10115834563457  0.51633236693669  0.12363530063006
 1  19.74503720092009  3.10128226032603 -1.67761273547355
 1  21.14263278047805  2.20896650045005 -1.62590791419142
 1  19.58301653745374  1.50559059565957 -2.09295447664766
 1  21.06368138123812  2.38873842414241  1.87222114991499
 1  22.09366320802080  2.41029914651465  0.66958885868587
 1  20.50744840754075  3.53514318481848  1.01928453285329
 1 -7.01022480498050  1.83380765276528  0.39101235803580
 1 -7.66548791539154 -0.21809668526853 -0.02598591879188

