%nproc=4
%Mem=2GB
# td=(NStates=1) B3LYP/SVP 

TD

0 1
 6 -5.15143799429943 -2.03726353235324  0.43277190229023
 6 -4.65167132533253  2.74198442744274  1.29154583068307
 6 -9.24011325492549  3.43496969326933 -0.25720033623362
 6 -9.95244709580958 -1.36204779937994 -0.82116826222622
 7 -5.19278602660266  0.45015147624762  0.78664612261226
 6 -4.54358245584558 -0.83192217581758  0.83222930853085
 6 -3.06715846954696 -0.73437392089209  1.27256050545055
 6 -3.04139829222922  0.72954807240724  1.91158566396640
 6 -4.31380633873387  1.30312735813581  1.23772568396840
 6 -3.09310580848085  0.71359966096610  3.35297515551555
 6 -2.08002334513451 -0.85348036213621  0.15621222892289
 6 -0.65579396749675 -0.93378223302330  0.58503626872687
 6  0.41920642654265 -1.14646156345635 -0.48563442064206
 8  0.13505324122412 -1.63051274117412 -1.67185964056406
 8  1.66572164736474 -0.91216763526353 -0.18312330433043
 7 -6.90181336233623  2.75593033493349  0.31694228822882
 6 -5.74558873987399  3.34251098359836  0.95853997939794
 6 -6.04023529602960  4.77355543934393  0.93955550725073
 6 -7.34009707420742  5.06000732373237  0.49072430253025
 6 -7.90635608600860  3.77879647854785  0.06790812711271
 6 -4.94902405880588  5.65093887628763  1.49368537243724
 6 -7.92614920312031  6.38114783248325  0.31804685898590
 6 -8.85413293609361  6.70286957755776 -0.65204382068207
 7 -9.20541394069407  1.02036051065107 -0.51126810221022
 6 -9.85029680708071  2.24163746544654 -0.59350816151615
 6 -11.22730896889689  2.03237687718772 -0.99889396069607
 6 -11.41356679717972  0.64234827622762 -1.09309937153715
 6 -10.07816452485249  0.12246519711971 -0.89293277367737
 6 -12.11266546374637  3.10427299639964 -1.25407983708371
 6 -12.59553965136514 -0.05548464686469 -1.53045528052805
 6 -12.63586805640564 -0.50474512091209 -2.92381956635664
 7 -7.58445157085709 -1.24591890639064 -0.13426977207721
 6 -8.67402338783878 -1.96308292249225 -0.58316524492449
 6 -8.23819742694269 -3.35567016851685 -0.63867760626063
 6 -7.00641266946695 -3.35694157845785 -0.15602770807081
 6 -6.50835937553755 -2.08391019011901  0.07328948304831
 6 -9.14915890099010 -4.37699109910991 -1.08380088688869
 6 -5.96676279777978 -4.32682790969097  0.16465913551355
 8 -5.90830268636864 -5.48459496819682  0.13289020942094
 6 -4.64765036963696 -3.39248636133613  0.47069231883188
 6 -3.97806022082208 -3.83404709990999  1.73217510281028
 8 -4.27035964766477 -3.40938189408941  2.83091355535554
 8 -3.13111562726273 -4.86459674097410  1.44505024802480
 6 -2.57174070437044 -5.68887979327933  2.53083955425543
 6  2.71802184558456 -1.21923061366137 -1.12407661296130
 6  4.04919902970297 -0.87416203960396 -0.59651626482648
 6  4.96222852305230 -0.06858781118112 -0.96783218781878
 6  4.77507801800180  0.66125996769677 -2.15438797779778
 6  6.36895060716072  0.01351397969797 -0.22207367046705
 6  7.51125535273527 -0.60611994509451 -0.85981333473347
 6  8.81900537753775 -0.46630183708371 -0.05837071697170
 6  10.19678153285328 -0.80939542214221 -0.95672665256526
 6  10.16063985738574 -2.29243440924092 -1.34208832353235
 6  11.27398807340734 -0.46815648624862  0.05520305230523
 6  12.65153373797380 -0.46715519391939 -0.68929680688069
 6  13.82811921912191  0.08035533243324  0.15794215681568
 6  15.27676949804980 -0.12573560936094 -0.45172900870087
 6  15.51948927652765 -1.58719288118812 -0.61280101560156
 6  16.21329392659266  0.66981789298930  0.37575083948395
 6  17.61613845254525  1.00798653255326 -0.31422593039304
 6  18.54092394339434  1.73214183318332  0.70927962086209
 6  19.97456735263526  1.89512513781378  0.22648540894089
 6  20.03971490099010  2.71384081528153 -1.11657806680668
 6  20.79449991559156  2.57195093119312  1.26400280098010
 1 -3.68196636423642  3.43996038033803  1.60980321862186
 1 -9.95675326032603  4.13594303080308 -0.40076875077508
 1 -10.72308064796480 -2.10163617361736 -0.93540343424342
 1 -2.85533158465847 -1.42212257635764  2.05650744544454
 1 -2.07756832443244  1.27987793889389  1.68829832823282
 1 -2.16181369726973  0.68121554325432  3.66465319061906
 1 -3.45470877117712  1.70166481008101  3.83654275547555
 1 -3.86953753315332  0.15212591489149  3.75219406510651
 1 -2.24261371527153 -1.83683756145615 -0.35667252355236
 1 -2.06512245084508 -0.10253277897790 -0.54594325502550
 1 -0.34540886428643  0.03402752865287  1.17419344984499
 1 -0.60074308720872 -1.65815499549955  1.46038315731573
 1 -4.22826748414841  5.93203134073407  0.38185132313231
 1 -5.54710592939294  6.53607872657266  1.98894449144914
 1 -4.25180695769577  4.91763161256126  2.35011607220722
 1 -7.85937603650365  7.09628666236624  1.24643594989499
 1 -8.74717010981098  6.09385737123712 -1.69472886888689
 1 -9.19096337553755  7.70594587988799 -0.67613731783178
 1 -12.05072962036204  3.78921942044204 -0.33438583718372
 1 -11.73078200050005  3.79208417311731 -2.09276649414941
 1 -13.17948534853485  2.92633825202520 -1.36354940184018
 1 -12.83863868976898 -0.91192131843184 -0.85919049284928
 1 -13.34927566986699  0.48022768416842 -1.54826850415041
 1 -12.54201871687169  0.35970298539854 -3.54509335273527
 1 -11.75621182888289 -0.93840323672367 -3.26542733943394
 1 -13.57349542274227 -1.18496585468547 -3.24591845054505
 1 -10.33909145594560 -4.43419551145115 -0.67241304520452
 1 -9.55000691089109 -4.14952196569657 -2.22243276387639
 1 -8.88677038253825 -5.46653743364336 -1.03634828832883
 1 -3.93268899619962 -3.49961731303130 -0.54145720552055
 1 -1.84321118911891 -6.30326693039304  1.87174287828783
 1 -1.94228079977998 -5.09201894089409  3.08429287958796
 1 -3.24569562496250 -6.13726072607261  3.37513903410341
 1  2.59783157495750 -2.26666340744074 -1.64312144544454
 1  2.41810365326533 -0.35232667066707 -1.82524014331433
 1  4.13799523542354 -1.64902297279728  0.31103014741474
 1  5.14805006950695  1.71341903970397 -1.97958054545455
 1  5.25407237103710  0.47532348754876 -3.06178924602460
 1  3.75830231543154  0.96319912581258 -2.46157151405141
 1  6.50990108720872  1.23528667256726 -0.00034523492349
 1  6.16109393519352 -0.61419700500050  0.65208490259026
 1  7.21987264036404 -1.88994303970397 -1.09926477257726
 1  7.79353910501050 -0.03166766216622 -1.79040789848985
 1  8.93202764436444  0.67654550605061  0.21350260876088
 1  8.91049377927793 -0.92572965996600  0.98025087798780
 1  10.35822268756876 -0.03525332703270 -1.78468919181918
 1  9.35349253685369 -2.56258492129213 -2.10443966946695
 1  11.16530339133914 -2.67331900830083 -1.93238898449845
 1  9.91147958975898 -3.08843072057206 -0.57322084358436
 1  11.21047523762376  0.59734735853585  0.54377784038404
 1  11.39754732413241 -1.47075556105611  0.94534505620562
 1  12.93057956595660 -1.41147502650265 -1.19260270307031
 1  12.32225254185419  0.19502222932293 -1.57131044954495
 1  13.56760779627963  1.05013540934093  0.34389956405641
 1  13.79485432093209 -0.36591954595460  1.18937851405141
 1  15.09803130053005  0.38447164696470 -1.33655030483048
 1  14.66078147314732 -2.16857514131413 -1.13528754925493
 1  16.69842657895790 -1.92731857135714 -0.88627001960196
 1  15.43726644424443 -2.09644926352635  0.32524522582258
 1  15.57025421702170  1.60567365606561  0.69519336293629
 1  16.33724004670467  0.16755056415642  1.36575857265727
 1  17.78249432673267 -0.04807328592859 -0.69695438013801
 1  17.32518524392439  1.66026898999900 -1.23702100670067
 1  17.87443914981498  2.75933466116612  1.00028652365236
 1  18.30717373157316  1.18174701150115  1.73440469606961
 1  20.50311854165417  0.90586131983198 -0.07043410631063
 1  19.54327702490249  3.73115524762476 -0.89749472367237
 1  20.99033755095509  2.85243084688469 -1.47908323172317
 1  19.63717195299530  2.41410144674468 -2.25472065326533
 1  20.79785479857986  2.12174172447245  2.13525745354535
 1  21.98637247894789  2.78601671827183  0.97690959075908
 1  20.66115377807781  3.78199787028703  1.51062366676668
 1 -7.22910669316932  1.69042331433143  0.24822807960796
 1 -7.47151851845185 -0.15939081468147 -0.07259057925793

