%nproc=4
%Mem=2GB
# td=(NStates=1) B3LYP/SVP 

TD

0 1
 6 -5.15417826832683 -1.99862966896690  0.41032965806581
 6 -4.73439959815982  2.67770799979998  1.50022669876988
 6 -9.30585982958296  3.49544574087409 -0.17232184838484
 6 -9.78430028112811 -1.35345694029403 -1.07816396179618
 7 -5.28293504150415  0.33779024012401  0.76175363336334
 6 -4.56715481308131 -0.83432241584158  0.73378946454645
 6 -3.12479423312331 -0.72542302580258  1.18840208960896
 6 -3.06243039543954  0.80277539513951  1.82529703510351
 6 -4.48719367746775  1.25054209960996  1.29267117851785
 6 -3.01462796069607  0.71055935693569  3.47034689268927
 6 -2.02977832063206 -0.92359737383738  0.17959456715672
 6 -0.61679006710671 -0.94562341714171  0.57165493059306
 6  0.37998250415042 -1.10940785808581 -0.44743060026003
 8  0.14745448134813 -1.61343103300330 -1.54724717931793
 8  1.58565364056406 -0.69387580608061 -0.17308230023002
 7 -7.08585176617662  2.75514025592559  0.62696329032903
 6 -5.94459864086409  3.42585931843184  1.03532765816582
 6 -6.17092836533653  4.71022910671067  1.15240679237924
 6 -7.43626669116912  4.97715903890389  0.64591982208221
 6 -8.00638608900890  3.78813741264126  0.30302163846385
 6 -5.02377153355336  5.64561834423442  1.68355435933593
 6 -8.04752134033403  6.36460617831783  0.53246830113011
 6 -8.88998652145215  6.69937922852285 -0.59120773707371
 7 -9.12177557685769  1.06470494509451 -0.57186416181618
 6 -9.86949872727273  2.22964626632663 -0.63565237593759
 6 -11.20467670567057  2.01273491299130 -1.13951802310231
 6 -11.31063650415041  0.66243028442844 -1.33533359495950
 6 -10.07605431383138  0.05574852545255 -0.98647212761276
 6 -12.19990418761876  3.05283785288529 -1.37633206230623
 6 -12.54842493989399 -0.09002810121012 -1.70620285528553
 6 -12.58828329792979 -0.39654430083008 -3.19852703710371
 7 -7.42298542424242 -1.32170648514851 -0.38152449754975
 6 -8.57121310681068 -2.01682829702970 -0.83328025642564
 6 -8.18015162236224 -3.40579518101810 -0.71590532903290
 6 -6.87950997919792 -3.45630151445145 -0.29179128442844
 6 -6.47290583018302 -2.13590538963896 -0.01192903880388
 6 -9.18569255435543 -4.56150955095510 -1.05572807960796
 6 -5.83417953945395 -4.43548877577758  0.05673834343434
 8 -5.71805366146615 -5.58106461516152 -0.10506358595860
 6 -4.58165376997700 -3.44774188688869  0.53509875947595
 6 -4.12071448624862 -3.88795249044904  1.85176706200620
 8 -4.43189580128013 -3.46472742864286  2.95391585558556
 8 -3.24982749844984 -4.97143742504250  1.70994673767377
 6 -2.83380691099110 -5.50413131843184  2.97332380268027
 6  2.71117116051605 -0.89546823742374 -1.12142634793479
 6  3.96001011081108 -0.57743236663666 -0.50543715691569
 6  5.03094539473947  0.23961300890089 -0.99824522912291
 6  4.96680719091909  0.88305214691469 -2.33937647664766
 6  6.32094580668067  0.45211784008401 -0.18677014011401
 6  7.55785001220122 -0.26453578667867 -0.94312166556656
 6  8.75714919191919 -0.23670887778778 -0.04274915481548
 6  9.99747160186019 -0.86513099569957 -0.71583256315632
 6  9.96084987838784 -2.36085125092509 -0.49797391209121
 6  11.43129380398040 -0.26804647524752 -0.07454992299230
 6  12.68079666426643 -0.67577605600560 -0.77566544374437
 6  13.79220562776278  0.06810410731073 -0.06758039543954
 6  15.25485730683068 -0.26648968476848 -0.49417325312531
 6  15.72958028562856 -1.82801696359636 -0.39417915341534
 6  16.15964856205621  0.70297120832083  0.23897716211621
 6  17.67344418311831  0.72900863476348 -0.27201170897090
 6  18.67804765576557  1.72173079207921  0.51004969786979
 6  20.15713560946094  1.78398402370237  0.03174593499350
 6  20.26054698419842  2.20535996719672 -1.42544895389539
 6  20.90639110471047  2.81954569066907  1.00585698639864
 1 -3.85773394099410  3.17424380868087  2.09049128742874
 1 -10.07061464646465  4.32504194069407 -0.06475514941494
 1 -10.45838417831783 -2.00552656265627 -1.48712860676068
 1 -3.15419147064706 -1.24501486558656  2.13566536123612
 1 -2.16481704930493  1.50657060816082  1.38493799219922
 1 -1.96898441434143  0.54923234493449  3.69178590389039
 1 -3.42557585788579  1.62633727732773  4.04483358455846
 1 -3.71394197359736 -0.08154745244524  3.87615646134613
 1 -2.07731718561856 -1.84980885858586 -0.42184904120412
 1 -2.29065500410041  0.05949342364236 -0.68578723942394
 1 -0.47146146954695 -0.05843171727173  1.30623665416542
 1 -0.42715572847285 -1.84551373137314  1.15232235123512
 1 -4.11665632303230  5.76366450405041  1.13552669066907
 1 -5.61797301610161  6.64478959765977  1.58528412541254
 1 -4.91350312731273  5.16212606200620  2.74385544614461
 1 -7.81398149704971  6.99728676237624  1.29722102840284
 1 -9.17065245804580  6.04167215271527 -1.54718411441144
 1 -9.30609488868887  7.74190947624762 -0.52212191629163
 1 -12.42623717111711  3.44091458995900 -0.52534493309331
 1 -12.04965388768877  3.81533649834984 -2.20553777127713
 1 -13.04105150515052  2.50610622882288 -1.72203525042504
 1 -12.51080590649065 -1.02138226452645 -1.23686826062606
 1 -13.46540728302830  0.45303496489649 -1.51192486978698
 1 -12.69410392539254  0.51289830493049 -3.81585042844284
 1 -11.65695190289029 -0.82549194559456 -3.39925072177218
 1 -13.58527660086009 -0.87677503560356 -3.55937979667967
 1 -9.81733928072807 -4.62737482938294 -0.45306111001100
 1 -9.43799570977098 -4.38803581708171 -2.17851837243724
 1 -8.52798450395040 -5.68126890679068 -1.09908456195619
 1 -3.91524725202520 -3.42021937323732 -0.31252431223122
 1 -1.97867473547355 -6.25074167786779  2.50365606960696
 1 -2.66966353805380 -4.57551729072907  3.83775822612261
 1 -3.61591264666467 -6.37579457945794  3.15590711091109
 1  2.49829162096210 -2.09960670177018 -1.42851998529853
 1  2.56339818271827 -0.35737717571757 -2.08899651895190
 1  4.13008444434444 -1.06011408190819  0.58200724512451
 1  5.59378464296430  1.81899959775978 -2.62113470087009
 1  5.20328729252925  0.14896085128513 -3.12254532163216
 1  3.89923640884088  1.06918972487249 -2.75555091199120
 1  6.57460755785578  1.55161830573057 -0.12777797819782
 1  6.12367019281928 -0.08896448174817  0.94309400350035
 1  7.20507116021602 -1.35253929932993 -1.05647049314932
 1  7.81735148624863  0.25031053565357 -1.81377023472347
 1  8.97348178977898  0.59950780228023  0.09103036153615
 1  8.62371510141014 -0.94678176517652  0.93242609550955
 1  9.94135100040004 -0.76610641234123 -1.72137286018602
 1  8.96110329792979 -2.97115577837784 -0.66347557305731
 1  10.58489535053505 -2.94273594999500 -1.40656640224022
 1  10.51144958675868 -2.76719859735974  0.58566504500450
 1  11.27207139723972  0.82383000680068 -0.31162770017002
 1  11.45152272167217 -0.38872735823582  1.05260578227823
 1  12.71032754075408 -1.63589746874687 -0.72710615341534
 1  12.73248356495649 -0.40757803070307 -1.92218553705371
 1  13.72156319181918  1.43050344614461 -0.45927075297530
 1  13.88128296379638  0.16818386438644  1.24025360156016
 1  15.53998549594960 -0.20798759895990 -1.70133678347835
 1  15.11100649564957 -2.44962324612461 -1.29049306980698
 1  16.78268500480048 -2.03559939943994 -0.46201759435944
 1  15.03757647524752 -2.08550816941694  0.78823152445244
 1  15.80313750535053  1.65646873557356  0.22198604220422
 1  16.15930225292529  0.36589039813981  1.26362835963596
 1  18.13933001030103 -0.29109758835884 -0.19245393009301
 1  17.59387211261126  1.10072303540354 -1.32093939853985
 1  18.33180488638864  2.52600132783278  0.52631912691269
 1  18.95545856005601  1.30386922372237  1.55161641724172
 1  20.75494372417242  0.72552328602860  0.14015695279528
 1  19.91851454865487  3.28882101420142 -1.69730470467047
 1  21.48210672787279  2.41530713451345 -1.57820314371437
 1  19.88488672447245  1.42941297789779 -2.23184836603660
 1  20.67427244034404  2.30482003230323  2.03704763256326
 1  21.98295213691369  2.71775989258926  0.76842874267427
 1  20.41625928862886  3.73227289778978  0.90152275667567
 1 -7.43158694119412  1.64344861686169  0.58357161396140
 1 -7.22845421202120 -0.37638251385139 -0.46820014021402

