%nproc=4
%Mem=2GB
# td=(NStates=1) B3LYP/SVP 

TD

0 1
 6 -5.13075592609261 -1.93362316831683  0.53818244334433
 6 -4.76938309650965  2.75741597059706  1.41545822192219
 6 -9.20912015561556  3.42208840514051 -0.34953957015702
 6 -9.83558540964096 -1.30770236483648 -0.94443058845885
 7 -5.21476822482248  0.50514697579758  0.84785224322432
 6 -4.54780287788779 -0.68643762736274  0.88042412801280
 6 -3.09194094779478 -0.66304678817882  1.34061731113111
 6 -3.05023917631763  0.87747286488649  1.94774928032803
 6 -4.40912587068707  1.49065611101110  1.35854776617662
 6 -3.05888238613861  0.82371067206721  3.54388424642464
 6 -2.24008935173517 -0.64488950305031  0.11492810051005
 6 -0.69580796889689 -0.87739659445945  0.60632839793979
 6  0.28494300020002 -1.06397331463146 -0.59044490169017
 8 -0.07697796189619 -1.47632732263226 -1.62741519611961
 8  1.54682975817582 -0.81286770527053 -0.31099609160916
 7 -6.99733291429143  2.77058180008001  0.45777637163716
 6 -5.95615979697970  3.40221695419542  1.01734585998600
 6 -6.25601687418742  4.80032811661166  1.15741729342934
 6 -7.53578664316432  5.03449477247725  0.65127035713571
 6 -7.99164461486149  3.74751335023502  0.22517385368537
 6 -5.21657081348135  5.77426120852085  1.66351235513551
 6 -8.04881146934693  6.32304202190219  0.46325137943794
 6 -9.07549507230723  6.73757304790479 -0.50916953325333
 7 -9.10684408370837  0.95745422002200 -0.55488246364636
 6 -9.69805158255826  2.16569987168717 -0.65613442414241
 6 -11.10143638163816  1.95647928742874 -1.19487355865587
 6 -11.28205364586459  0.64018806020602 -1.23075313691369
 6 -10.01287799619962 -0.00933798319832 -0.93578705910591
 6 -12.06744094129413  3.16817938703870 -1.36161059015902
 6 -12.40334043144314 -0.12281137953795 -1.90294252925293
 6 -12.26584105370537 -0.60413505990599 -3.36000318471847
 7 -7.50787391309131 -1.32188650315032 -0.20762710781078
 6 -8.61548753425343 -2.08641525572557 -0.57097402580258
 6 -8.15022863006301 -3.44614921642164 -0.53303704220422
 6 -6.89239126732673 -3.38433431773177 -0.20096220152015
 6 -6.43553209280928 -2.11452325142514  0.07579973407341
 6 -9.02359634473447 -4.63871727172717 -0.83014552135214
 6 -5.77397351885189 -4.30445567246725 -0.00075740614061
 8 -5.68142999909991 -5.55091159985999 -0.04170725032503
 6 -4.59656526112611 -3.32860997369737  0.51681693129313
 6 -3.94841725652565 -3.84225792099210  1.79399128442844
 8 -4.18495110681068 -3.36841779767977  2.85962642664266
 8 -3.07100961666167 -4.92770305160516  1.51252699569957
 6 -2.41978550885089 -5.46137704300430  2.76047251755176
 6  2.58668871227123 -1.11102979357936 -1.26773097839784
 6  3.96266037583758 -0.78971359475948 -0.60864747794779
 6  4.94491679187919 -0.12385333773377 -1.00203560816082
 6  4.98951946214621  0.73253709540954 -2.28470100910091
 6  6.20541425352535  0.00310293859386 -0.26579804290429
 6  7.46726095329533 -0.57587692079208 -0.99845719911991
 6  8.62584606160616 -0.46545175207521 -0.03011789168917
 6  9.98061991669167 -0.89588407100710 -0.77561854175418
 6  9.98142193559356 -2.35013017881788 -1.19937405210521
 6  11.24536521112111 -0.53147281788179  0.06962449444944
 6  12.66683526812681 -0.61134961336134 -0.53764164136414
 6  13.77499390659066 -0.08607131023102  0.34181054365437
 6  15.12868468956896 -0.15333836963696 -0.44005784158416
 6  15.64062138973897 -1.62304646654665 -0.88996873237324
 6  16.31420401760176  0.54217512871287  0.35096836123612
 6  17.66717355605561  0.83890962486249 -0.30652516031603
 6  18.57104695569557  1.58767738673867  0.64554324722472
 6  19.96625652155215  1.82942856815682  0.09197195759576
 6  20.11169209870987  2.80596002720272 -1.20126653565357
 6  20.91327179277928  2.51970570667067  1.15828222892289
 1 -4.04821298889889  3.36409279357936  1.90418265656566
 1 -10.05022260726073  4.25588502500250 -0.41013968786879
 1 -10.69305764566457 -2.07419342934293 -1.14390428432843
 1 -2.74850090159016 -1.28605896999700  2.17496929162916
 1 -2.08405897349735  1.29987993909391  1.46501600000000
 1 -2.17372488838884  0.40113753545355  3.85371209650965
 1 -3.02259555985599  1.79711435503550  3.89981908310831
 1 -4.05258583798380  0.08963966626663  3.88297714341434
 1 -2.47191664556456 -1.61385526322632 -0.49874673097310
 1 -2.36411234983498  0.17915538983898 -0.62977163786379
 1 -0.24614893829383  0.02428655455546  1.16596262676268
 1 -0.70950396329633 -1.90602978297830  1.20772789178918
 1 -4.36198085548555  5.74432256985699  0.86026916491649
 1 -5.60703192199220  6.73601872057206  1.65292088908891
 1 -4.99274105110511  5.55659550895090  2.64198525912591
 1 -7.58631873077308  7.23367040074007  0.88250955725573
 1 -9.70480587338734  5.98821680718072 -1.10554995099510
 1 -9.29073335253525  7.72237752305230 -0.46499620372037
 1 -12.20453500090009  3.88125862436244 -0.56762916151615
 1 -11.51533045534553  3.85357032173217 -2.15684290179018
 1 -13.18329572957296  2.88332395059506 -1.65116816371637
 1 -12.73011783768377 -1.00050017631763 -1.10193476727673
 1 -13.35707644994499  0.59328899029903 -1.73811748904891
 1 -11.85616013101310  0.15057207230723 -4.31476031943194
 1 -11.42952916061606 -1.47811720812081 -3.35295609230923
 1 -13.07996606980698 -1.01821918001800 -3.67729158785879
 1 -9.84179172597260 -4.84878697059706 -0.17052285618562
 1 -9.33425533573357 -4.49356637013701 -1.88548906950695
 1 -8.32723442894289 -5.49653043294329 -0.60940559405941
 1 -3.97455318261826 -3.62015936723672 -0.43070613041304
 1 -1.55959282728273 -6.06152275597560  2.29644534853485
 1 -1.90709728142814 -4.50111985098510  3.16622107240724
 1 -3.05563661906191 -5.87530453045304  3.72912443264326
 1  2.54940673247325 -2.06970371147115 -1.39863699699970
 1  2.13596543944394 -0.59624106210621 -2.29689730903090
 1  3.98046948284829 -1.43377144764477  0.31358040244024
 1  5.32868813331333  1.61394909270927 -2.00684327172717
 1  5.69189615341534  0.25224117931793 -2.94567763486349
 1  3.90202668786879  0.85672847874788 -2.85593094999500
 1  6.49487958505851  0.92346549044905  0.04839963956396
 1  6.09801762756276 -0.63718930423042  0.68744843894389
 1  7.29496014911491 -1.67790183558356 -1.15383022912291
 1  7.59312906400640 -0.10679517491749 -1.86908576627663
 1  8.57184162576258  0.53074092559256  0.25566682518252
 1  8.69895262516252 -1.04216130313031  0.76800965386539
 1  9.95081194649465 -0.20734053575357 -1.68979970287029
 1  9.27191437903791 -2.84178284108411 -1.80348957445745
 1  11.09827668866887 -2.38110978737874 -2.01682742834283
 1  9.92224066586659 -3.03627550505050 -0.34556807830783
 1  11.01930612071207  0.54244186798680  0.30731419401940
 1  11.51666923632363 -1.16977546304630  0.98008853055306
 1  12.72156866486648 -1.72618649764977 -0.69920336313631
 1  12.68277859445945 -0.11863913681368 -1.51335465396540
 1  13.55354639013901  1.03094349014901  0.60411558565857
 1  13.89504433993399 -0.61893484748475  1.24536411261126
 1  14.94114561196120  0.34320752055206 -1.36710336013601
 1  15.02185758075808 -2.08332661646165 -1.74524854535454
 1  16.77302403870387 -1.44329016851685 -1.48713010561056
 1  15.71406412401240 -2.23714333293329 -0.08505580428043
 1  15.87096428802880  1.39727281598160  0.58521236483648
 1  16.44599092179218  0.07388119721972  1.27327932473247
 1  18.24332040934094 -0.02089056765677 -0.78466315101510
 1  17.22732545794580  1.43792675577558 -1.20347765236524
 1  18.23209491539154  2.73994272197220  0.89429592459246
 1  18.70285329952996  0.97859669646965  1.68346960256026
 1  20.76589481928193  1.06046678037804 -0.02931999489949
 1  20.06094879207921  3.93195532763276 -0.91975694989499
 1  21.04994351155115  2.40853645744574 -1.53659898329833
 1  19.28386662246225  2.48600863746375 -2.02409759095910
 1  20.93428844194420  1.80722027232723  2.19286321412141
 1  21.91460530223022  2.72567068366837  0.74308620842084
 1  20.33814147684769  3.52589225972597  1.36240884528453
 1 -7.27276105860586  1.79832410441044  0.34593785058506
 1 -7.40775214181418 -0.41251612721272  0.23860053985398

