%nproc=4
%Mem=2GB
# td=(NStates=1) B3LYP/SVP 

TD

0 1
 6 -5.13313616411641 -1.83004281028103  0.46108473357336
 6 -4.80141629982998  2.79629985898590  1.40341701780178
 6 -9.54860410401040  3.26125232153215 -0.15415003120312
 6 -9.81718356945695 -1.47550914551455 -1.01225737113711
 7 -5.21883863186319  0.50586704780478  0.70967842584258
 6 -4.50010810841084 -0.58456744034403  0.82596868246825
 6 -3.05914766846685 -0.40750123362336  1.21068431783178
 6 -3.07078123052305  0.94897001460146  1.72033653905391
 6 -4.44410936903690  1.47683472887289  1.32366427782778
 6 -2.97738423632363  1.08567686868687  3.27611746974697
 6 -2.07775311811181 -0.62966798089809  0.05292189988999
 6 -0.66550493859386 -0.65690454525453  0.46655442054205
 6  0.36918142404240 -0.94520143744374 -0.60564642184218
 8  0.20169990589059 -1.44453414331433 -1.71299375397540
 8  1.63374845004500 -0.69610602910291 -0.15963095509551
 7 -7.08554173517352  2.89051379327933  0.51378197219722
 6 -6.06479066006601  3.46897362986299  1.00851497689769
 6 -6.40593186568657  4.80376846064606  1.23500505220522
 6 -7.68374143864386  5.09102042504250  0.74783001310131
 6 -8.14943039343934  3.65736433533353  0.22899423572357
 6 -5.54249340574057  5.96510029242924  1.54494049794979
 6 -8.37056364456446  6.24393411111111  0.51011606590659
 6 -9.35202272507251  6.63324261486149 -0.47010562686269
 7 -9.29465286458646  0.74472294689469 -0.40197717311731
 6 -10.00513229062906  1.98134143584358 -0.45191400210021
 6 -11.32649888788879  1.78976261576158 -0.96265033633363
 6 -11.43136857735774  0.42621666306631 -1.21705176677668
 6 -10.23002971137114 -0.12933998339834 -0.81439491989199
 6 -12.33241743894389  2.84911748084809 -1.18435286438644
 6 -12.58831892929293 -0.42232133053305 -1.68305054005401
 6 -12.59564403400340 -0.76889153555356 -3.17675485988599
 7 -7.47340046574657 -1.27101141564156 -0.17807415251525
 6 -8.56064204970497 -1.99257587178718 -0.69883681208121
 6 -8.14703831103110 -3.41945654715472 -0.61531527002700
 6 -6.84249627782778 -3.41053693799380 -0.10469257455746
 6 -6.36879541914191 -2.05313711281128 -0.04060190609061
 6 -8.90286427152715 -4.65466886688669 -1.09201170797080
 6 -5.64328044954495 -4.29069429632963 -0.00630796119612
 8 -5.54616647274727 -5.50951746044604 -0.02934601420142
 6 -4.50655626022602 -3.25301241394139  0.39022427202720
 6 -3.89168158295830 -3.82540623582358  1.59833171847185
 8 -4.04477708940894 -3.33978493439344  2.72360282428243
 8 -2.94228674437444 -4.75966624792479  1.32760850385038
 6 -2.38360189048905 -5.35224612991299  2.48576504680468
 6  2.71894193759376 -0.99816850745075 -1.09534373967397
 6  4.05300941074107 -0.69529415281528 -0.50820743394339
 6  4.95437773797380  0.17332638023802 -0.93054845944594
 6  4.89317982818282  0.83103694539454 -2.34379691869187
 6  6.31342505460546  0.31420404870487 -0.30519198229823
 6  7.41133536073607 -0.39293862696270 -1.04880223362336
 6  8.77783126012601 -0.19160436733673 -0.16366124602460
 6  10.11384323902390 -0.75609009160916 -0.76841782168217
 6  9.98718251165117 -2.36634179998000 -0.69511362606261
 6  11.38021869646965 -0.31991166176618  0.03584111611161
 6  12.73403198779878 -0.68308678707871 -0.54088196539654
 6  13.83887029422942  0.23344064096410  0.19748611121112
 6  15.33712553365337 -0.23739677547755 -0.36921075687569
 6  15.66756408400840 -1.61853601550155 -0.23350308580858
 6  16.36468906610661  0.66363727492749  0.38232149654966
 6  17.66502334103410  0.60637637153715 -0.26873138093809
 6  18.69097894889489  1.45092371137114  0.49627832073207
 6  20.19062895879588  1.27565319061906  0.07303006340634
 6  20.29483041254126  2.06537596879688 -1.35787219621962
 6  21.12374283988399  1.92205594169417  1.10624702540254
 1 -4.18082625022502  3.63775015931593  1.72078431673167
 1 -10.25651323632363  4.24311374787479 -0.11842051595159
 1 -10.69927826772677 -2.18245425542554 -1.46003589748975
 1 -2.71375742724272 -1.10998136223622  1.99623141784178
 1 -2.15903647124712  1.56591654275428  1.28076757515752
 1 -2.10482799869987  0.57874529622962  3.68129485478548
 1 -3.25298859915992  2.05489013261326  3.79878898009801
 1 -3.89766034543454  0.48171887418742  3.76105495119512
 1 -2.32484193809381 -1.47346122382238 -0.70842769906991
 1 -2.03156909550955  0.23497097139714 -0.75084374507451
 1 -0.32848717211721  0.30641476737674  0.90492652315232
 1 -0.28680169306931 -1.22715189518952  1.37607472647265
 1 -4.73237789518952  6.19712785038504  0.82998613661366
 1 -6.16698791759176  6.99605472417242  1.69644524152415
 1 -4.91285306230623  5.83478332773277  2.51121218181818
 1 -8.19031913081308  7.23395042874287  1.14355566186619
 1 -9.54223961676167  6.02040002550255 -1.20056945294529
 1 -9.81920619981998  7.65371065636564 -0.28104780888089
 1 -12.51213576097610  3.40036053455346 -0.38029042764276
 1 -12.07307622992299  3.72126709140914 -1.74491170867087
 1 -13.27993539353936  2.53992961116112 -1.54662770967097
 1 -12.54075890179018 -1.22854298059806 -1.01597617141714
 1 -13.56868761106111  0.15459512091209 -1.50282395969597
 1 -12.92439695469547  0.09380639573957 -3.98973781718172
 1 -11.82902911061106 -1.19863926032603 -3.55539633633363
 1 -13.59150722392239 -1.31564892299230 -3.50091395009501
 1 -9.59873742054205 -4.96904899679968 -0.22612841674167
 1 -9.45341725192519 -4.49130614411441 -1.91080160076008
 1 -8.37662936843684 -5.53176395629563 -0.99569422292229
 1 -3.78547427472747 -3.41682903420342 -0.28159121892189
 1 -1.56281314931493 -5.90072667636764  2.14332003600360
 1 -1.90179675137514 -4.63670340934093  3.17663211351135
 1 -3.13798485388539 -6.05636263626363  3.07105862606261
 1  2.55001679347935 -2.01675841694169 -1.33619075237524
 1  2.52438428132813 -0.66444788278828 -2.09867748704870
 1  4.25675711161116 -1.03124119461946  0.52769181358136
 1  5.66544180868087  1.77485518331833 -2.26692928032803
 1  5.28082504630463  0.00824677987799 -3.06631969906991
 1  3.72729921512151  1.25474828072807 -2.54158951585159
 1  6.60541063816382  1.29860300420042 -0.14052925332533
 1  6.31143896969697 -0.11232681798180  0.77614730883088
 1  7.18859951305131 -1.46944098949895 -0.81131597769777
 1  7.38155790689069  0.01616712131213 -2.02124098179818
 1  9.01998644024402  0.84991284278428 -0.14993373487349
 1  8.53198592849285 -0.54962204920492  0.84743759665967
 1  10.40017688298830 -0.21207100880088 -1.63574429732973
 1  9.13805099269927 -2.68964762756276 -1.60705993149315
 1  11.04690155115512 -2.54581625802580 -0.98176392199220
 1  9.82993143494349 -2.78653053055306  0.30669714821482
 1  11.47705189528953  0.89813743754375  0.11585504810481
 1  11.32925049444944 -0.60663914941494  1.05988651035104
 1  12.87165367336734 -1.87117099609961 -0.29037248004801
 1  12.90529084568457 -0.55238251115112 -1.67352067056706
 1  13.94446548204821  1.44523491929193  0.08932410651065
 1  13.51152598809881  0.29918696469647  1.26762633883388
 1  15.52044354175418  0.06458965876588 -1.35266191599160
 1  14.95870126512651 -2.29135741954195 -0.57499151965196
 1  16.49482621892189 -2.09140497999800 -0.89498089068907
 1  15.74081679927993 -1.86359597819782  0.85407810911091
 1  15.99253644524452  1.60312340104010  0.45289913351335
 1  16.50440676337634  0.38210201930193  1.45059705650565
 1  18.05521159845985 -0.29674815341534 -0.46645132983298
 1  17.51791451685169  1.24851781488149 -1.20900820542054
 1  18.29705141104111  2.64760348804881  0.70392688768877
 1  18.64704771897190  1.10031886868687  1.38218947454745
 1  20.55938416821682  0.21021175487549 -0.08290535343534
 1  20.15516821402140  3.24054618671867 -1.44851982618262
 1  21.47299581678168  1.96379198299830 -1.69524484788479
 1  19.75832406820682  1.43755379197920 -2.01424660586059
 1  20.97700271337134  1.38328787908791  1.90264419221922
 1  22.12722656435643  1.96753487008701  0.74491639143914
 1  20.92969063176318  3.07636730723072  1.12757536193619
 1 -7.07469125162516  1.82737700970097  0.18613186998700
 1 -7.63511487808781 -0.37516239183918  0.15002168196820

