%nproc=4
%Mem=2GB
# td=(NStates=1) B3LYP/SVP 

TD

0 1
 6 -5.15058790929093 -1.96800660666067  0.56345497059706
 6 -4.76157231543154  2.85771600060006  1.43164984108411
 6 -9.39032827642764  3.25997219351935 -0.26218083428343
 6 -9.76595844694469 -1.50141173577358 -0.99369551495150
 7 -5.25273202120212  0.39469593069307  0.81904936293629
 6 -4.51748984658466 -0.69384836843684  0.81065715131513
 6 -3.05955770947095 -0.43474395789579  1.24512776217622
 6 -3.14324847724772  0.97877299489949  1.92640714611461
 6 -4.40209516761676  1.45453249864987  1.32551446284628
 6 -2.97891438933893  1.06773507450745  3.41868172617262
 6 -2.07654299709971 -0.70182519661966  0.17347395509551
 6 -0.66163455155516 -0.59235809060906  0.59350711581158
 6  0.40816532243224 -0.96698361566157 -0.50273613081308
 8  0.09624936083608 -1.64039372927293 -1.46829928452845
 8  1.64510958615862 -0.48336475497550 -0.17452244424442
 7 -7.10833401440144  2.74654939683968  0.60996159015902
 6 -5.98100228122812  3.43640037253725  1.08839296469647
 6 -6.33872514501450  4.87708579237924  1.13763531523152
 6 -7.56301936643664  4.98950027302730  0.57506273637364
 6 -8.14653010341034  3.58357695659566  0.17936927322732
 6 -5.25682483888389  5.88076185858586  1.47306331023102
 6 -8.25007159535954  6.22845256295629  0.34624967926793
 6 -9.23181070387039  6.68944823542354 -0.46318493479348
 7 -9.16454985428543  0.83942241684168 -0.54639161456146
 6 -9.75842762016202  1.99806310801080 -0.59050786148615
 6 -11.27288352635263  1.77283092259226 -1.03757782908291
 6 -11.37104254475448  0.45846988838884 -1.30002006360636
 6 -10.08341504990499 -0.13755080448045 -0.98231171157116
 6 -12.22209640684068  2.94957752685269 -1.17617204630463
 6 -12.59238933633363 -0.22424152255226 -1.65547778277828
 6 -12.62796726632663 -0.63556820322032 -3.16527371177118
 7 -7.44408753445345 -1.25925023952395 -0.13691003610361
 6 -8.56207219271927 -2.09159577377738 -0.64849177757776
 6 -8.08420202740274 -3.44475907740774 -0.53407714621462
 6 -6.81665369356936 -3.46092197649765 -0.23142524782478
 6 -6.50109864946495 -2.03029482858286  0.14371652575258
 6 -8.96669065416542 -4.59623302330233 -1.18472097889789
 6 -5.68299442094209 -4.41120634753475  0.16500917051705
 8 -5.70135199129913 -5.63609011771177 -0.04030711031103
 6 -4.49822542714271 -3.36836394909491  0.49715496509651
 6 -3.77886030083008 -3.82945664086409  1.83568545384538
 8 -3.92918553025303 -3.32678363426343  2.98293875787579
 8 -2.90329284498450 -4.80405068636864  1.45802154515452
 6 -2.33423695399540 -5.56147705300530  2.68825529582958
 6  2.55137518091809 -1.01601029162916 -1.21963616891689
 6  3.93633774357436 -0.59443406680668 -0.69133574677468
 6  4.85149744994499  0.26525557315732 -1.16384178877888
 6  4.61404191439144  0.82384622632263 -2.52753529252925
 6  6.19656336843684  0.51700432873287 -0.43728519161916
 6  7.43474770197020 -0.27753708680868 -1.00808816221622
 6  8.74071754875488 -0.12397760466047 -0.23513839373937
 6  10.01412326702670 -0.62882736533653 -0.94254523442344
 6  10.11323511691169 -2.17250241604160 -1.29353346804680
 6  11.26528720332033 -0.21719138973897 -0.16971943994399
 6  12.61447003160316 -0.50252873127313 -0.79991786898690
 6  13.83717012421242  0.02208950585059  0.14228059065907
 6  15.21017283838384 -0.23645668146815 -0.48996283208321
 6  15.47995532313231 -1.69642380428043 -0.87598733423342
 6  16.24600719791979  0.51690260146015  0.41928519291929
 6  17.70073691239124  0.51377711161116 -0.09728423622362
 6  18.60880073107311  1.42998161716172  0.85563425632563
 6  20.06267616351635  1.40788641394139  0.41520428082808
 6  20.31705263476348  1.95238466966697 -0.97139354835484
 6  21.08866933253325  2.04188792489249  1.46040244094409
 1 -4.00618878647865  3.41709809410941  1.96725896419642
 1 -10.15813339833984  3.96260569706971 -0.46524519841984
 1 -10.51760009990999 -2.39297530753075 -1.32306220012001
 1 -2.77597364886489 -1.12534289838984  1.95801759645965
 1 -2.39189975757576  1.72782273337334  1.35022452085209
 1 -1.95136265216522  0.62003942564256  3.71631835713571
 1 -2.91855515581558  2.34272891649165  3.59804890609061
 1 -3.79451003040304  0.77268797109711  3.76793563926393
 1 -2.17477693159316 -1.73687756545655 -0.25915277157716
 1 -2.34634057265727 -0.05363788948895 -0.56104476517652
 1 -0.55741006440644  0.48693281918192  0.68461449194920
 1 -0.50470348324832 -1.18572775277528  1.53799091809181
 1 -4.31386604400440  5.76391452905291  0.96044918291829
 1 -5.67970918971897  6.90054517321732  1.27636323332333
 1 -5.12250402740274  5.82998284768477  2.65115617621762
 1 -7.98466856575658  6.95203223692369  1.24747605390539
 1 -9.39836522932293  6.13047103260326 -1.31982137813781
 1 -9.59900417961796  7.63637892319232 -0.66148585268527
 1 -12.07384193159316  3.63420391889189 -0.32224462306231
 1 -12.07244616691669  3.53365833053305 -2.13070028752875
 1 -13.11221862186219  2.58377399559956 -1.34613766066607
 1 -12.68809363526353 -1.15126525282528 -1.03569814361436
 1 -13.38748949124913  0.35238489988999 -1.43902758005801
 1 -12.46674118911891  0.25137215231523 -3.80050889428943
 1 -11.52312852055206 -1.28693809020902 -3.33964476117612
 1 -13.60270834403440 -1.17946530463046 -3.48386224492449
 1 -9.98732627942794 -4.69402149404941 -0.74912071597160
 1 -9.11713362356236 -4.35648266176618 -2.27172769336934
 1 -8.61109281478148 -5.51744252415242 -0.93260791429143
 1 -3.61938766606661 -3.40813816511651 -0.24229728952895
 1 -1.47593446144614 -6.20688729242924  2.26144184818482
 1 -1.90871744344434 -4.50346008500850  3.15923037333733
 1 -2.98750980638064 -6.01702870287029  3.32924444464446
 1  2.52725451725173 -2.07266400750075 -1.13256038933893
 1  2.19278112101210 -0.60527196519652 -2.23817143644364
 1  4.05207664356436 -0.78660673117312  0.41057010141014
 1  4.89771503600360  2.00686838463846 -2.47400998839884
 1  5.69973693749375  0.56404235943594 -3.20057312441244
 1  3.68397488268827  0.64384719061906 -3.08269362626263
 1  6.37457755485549  1.63307645154515 -0.48417361776178
 1  6.20034786058606  0.03806822152215  0.63061275537554
 1  7.03738439153915 -1.25840988638864 -0.99815466156616
 1  7.82362211331133  0.04534003860386 -2.21047990569057
 1  8.76318075967597  1.01207905940594 -0.07517625912591
 1  8.56389911981198 -0.77945503250325  0.81073392629263
 1  10.12911977727773 -0.07762756445645 -1.95833655655566
 1  9.39633682128213 -2.22010067286729 -2.05199442494250
 1  11.13211007200720 -2.14182585898590 -1.75022076767677
 1  9.94559300110011 -2.76522840034003 -0.35260878237824
 1  11.11306549664966  0.75873349714972  0.20728419101910
 1  11.19543711311131 -0.97046553205320  0.84267478917892
 1  12.87098360636064 -1.52409628862886 -1.15360880368037
 1  12.68926924352435  0.01364409150915 -1.77609092759276
 1  13.67997903340334  1.03147354315432  0.34239941404140
 1  13.55792062756276 -0.60872382638264  1.12411198739874
 1  15.36999849724972  0.28491169096910 -1.57798444824482
 1  14.51004639963996 -2.06406469026903 -1.49788380888089
 1  16.36098283458346 -1.72501834133413 -1.44310570317032
 1  15.83224594219422 -2.13751336993699  0.09917261856186
 1  15.90476766836684  1.57432052075208  0.60348419201920
 1  16.25152147484749  0.07832164126413  1.40459245604561
 1  18.17551362866287 -0.51704018261826 -0.15424010871087
 1  17.83059578497850  0.85127809090909 -1.19779708430843
 1  18.31975368126813  2.41622034973497  0.56025252025203
 1  18.70239325352535  1.26916575337534  1.70977223282328
 1  20.45407363716372  0.37153788748875  0.56068900600060
 1  20.30936363356336  2.96559869196920 -0.76811178537854
 1  21.34721323852385  1.60607621142114 -1.24628995239524
 1  19.59862809860986  1.59490952755276 -1.91417659885989
 1  20.66345135823583  1.87301685198520  2.55090901870187
 1  22.04390823252325  1.72930104670467  1.18830072987299
 1  20.87172483518352  3.25603527402740  1.26710931533153
 1 -7.33014679717972  1.57923219521952  0.49894315111511
 1 -7.60668203480348 -0.29153402900290 -0.20389370957096

