%nproc=4
%Mem=2GB
# td=(NStates=1) B3LYP/SVP 

TD

0 1
 6 -5.14778762926293 -2.08193799979998  0.55793441854185
 6 -4.72076823502350  2.57275750475047  1.57531420752075
 6 -9.21496073967397  3.49165536183618 -0.12902751895190
 6 -9.78284013511351 -1.48618021262126 -0.78231437683768
 7 -5.18645539353935  0.38258471957196  0.82297975597560
 6 -4.46675477307731 -0.80866985058506  0.80606669226923
 6 -3.09305105880588 -0.69488997249725  1.27774102350235
 6 -3.07912206460646  0.80914603220322  1.91344584998500
 6 -4.41794675277528  1.25942298769877  1.40462237363736
 6 -2.81043754165417  0.79458775977598  3.36317617561756
 6 -2.07604294709471 -0.86832184628463  0.12610921862186
 6 -0.61144953305331 -0.95086394119412  0.53968173327333
 6  0.35450995689569 -1.20029694699470 -0.56227208440844
 8  0.07919765566557 -1.66832652255226 -1.55722817741774
 8  1.54702977817782 -0.96255267376738 -0.19399439143914
 7 -7.04661784278428  2.77301204310431  0.59881047504750
 6 -5.81443562456246  3.32152888538854  0.98749287468747
 6 -6.08065933843384  4.75284336813681  1.00942249394939
 6 -7.32056512101210  5.02713403640364  0.40747597769777
 6 -7.91846729712971  3.79429802870287  0.22266360266027
 6 -5.00323948034803  5.75745952835284  1.51149715361536
 6 -7.86029261746175  6.47406712441244  0.23334838913891
 6 -8.84946246904691  6.73413270387039 -0.73890250655065
 7 -9.15423882318232  0.92883135773577 -0.42987996339634
 6 -9.74814659205921  2.18322162386239 -0.51172998369837
 6 -11.09750598859886  1.97041068056806 -1.07993206450645
 6 -11.28981442194219  0.68428246964696 -1.23250331193119
 6 -10.02208891729173  0.02604555515552 -0.86717019741974
 6 -12.13033723092309  3.16950952005201 -1.21188561766177
 6 -12.46144624202420  0.01600250185019 -1.94896713171317
 6 -12.34545901550155 -0.44461910831083 -3.37815499989999
 7 -7.55318844454445 -1.29316363086309  0.08666232113211
 6 -8.60161614711471 -1.99224583878388 -0.51181811021102
 6 -8.26418002520252 -3.38316291779178 -0.61077481598160
 6 -6.90728275647565 -3.44276016031603 -0.21953405870587
 6 -6.48897743734373 -2.14903670277028  0.21534368846885
 6 -9.18449243434343 -4.51106450645065 -1.05253776057606
 6 -5.78118423992399 -4.37079230613061  0.19286195579558
 8 -5.78019987608761 -5.59090559925993  0.08547546794679
 6 -4.58823442804280 -3.47890500320032  0.55660090969097
 6 -4.06272868766877 -3.97621131633163  1.84427631293129
 8 -4.02542515421542 -3.45021597749775  2.98413887788779
 8 -3.25500801650165 -5.06127640894089  1.46586232923292
 6 -2.60212374267427 -5.74280518581858  2.64554102440244
 6  2.61680172357236 -1.10050874147415 -1.09627383268327
 6  3.97740184998500 -0.68103272667267 -0.51912852605261
 6  4.91809410961096  0.02337138473847 -1.13924932953295
 6  4.75719622982298  0.69782362406241 -2.43248578757876
 6  6.16259997209721  0.31638426672667 -0.38008947204720
 6  7.51366559375938 -0.21909124222422 -1.15235258865887
 6  8.74381785878588 -0.13929913681368 -0.27699257915792
 6  10.04024587928793 -0.58219270187019 -0.96752773267327
 6  10.03676747014702 -1.93017818361836 -1.39778389308931
 6  11.19157983258326 -0.12915258585859 -0.10920338833883
 6  12.46149473407341 -0.35198367676768 -0.84203208040804
 6  13.69432583978398  0.17482477937794  0.04376073867387
 6  15.12077389848985 -0.11892492829283 -0.44493832963296
 6  15.42308963656366 -1.58428259015902 -0.50835057055706
 6  16.09700229742974  0.73492440364036  0.33039630403040
 6  17.59887672637264  0.69203493739374 -0.07145165296530
 6  18.50413026402640  1.60364898389839  0.73486217911791
 6  19.99822971887189  1.63977960326033  0.32414517491749
 6  20.18893982348235  1.98606803800380 -1.07062347134713
 6  20.79357982358236  2.50463419951995  1.36326272697270
 1 -3.84877304490449  3.23172955725573  1.84617685598560
 1 -9.83899148414842  4.39929936643664 -0.38462713661366
 1 -10.77980632053205 -2.06332234223422 -1.15221511541154
 1 -2.89030508200820 -1.39976034013401  2.08597039173917
 1 -2.33789435703570  1.37896784788479  1.37283678207821
 1 -1.79869738563856  0.49737715941594  3.92130885618562
 1 -3.18008130843084  1.77629227282728  3.96362546374638
 1 -3.41492207160716 -0.00304960266027  4.00524937063706
 1 -2.43906336023602 -1.70083396109611 -0.58655551185118
 1 -2.40263620222022 -0.03309583528353 -0.53827248794879
 1 -0.45274959835984 -0.16261213531353  1.07987401790179
 1 -0.40535354825483 -1.77082626262626  1.20073719271927
 1 -4.12327698509851  5.69862800040004  1.11795493349335
 1 -5.41959317811781  6.82233735243524  1.45810140714071
 1 -4.90353213021302  5.60832068146815  2.58270933153315
 1 -7.37840793969397  7.25099213291329  0.58228953525353
 1 -9.20306569936994  6.03945193069307 -1.41741113711371
 1 -8.99370364956496  7.93613889918992 -0.86498620272027
 1 -12.64381892929293  3.62414291279128 -0.34949734833483
 1 -11.71619054135414  4.11393635833583 -1.81998921642164
 1 -12.90351775177518  2.77465308350835 -2.13305635253525
 1 -12.64260908680868 -0.83160328662866 -1.36738131193119
 1 -13.31775251755175  0.62536219761976 -1.68221189848985
 1 -12.38179269426943  0.43715073017302 -4.18432727612761
 1 -11.39714592229223 -0.76675607200720 -3.47937873457346
 1 -13.08168624182418 -1.16477383548355 -3.79008286698670
 1 -10.01712925972597 -4.46217830973097 -0.38204400830083
 1 -9.66865877607761 -4.23230024352435 -1.98697921852185
 1 -8.63868557405740 -5.52247302720272 -0.89420407390739
 1 -3.79504523182318 -3.62063941524152 -0.24012707250725
 1 -1.94091095909591 -6.47805440914091  2.07066277027703
 1 -1.93612018371837 -4.95399513851385  3.17669211951195
 1 -3.39599065446545 -6.33001000100010  3.33255477567757
 1  2.57082887468747 -2.25429217031703 -1.26861399469947
 1  2.53747559045905 -0.59091052905290 -2.18259587888789
 1  4.11788322422242 -1.18405647614761  0.46836588098810
 1  5.14126939143914  1.77167486528653 -2.60072265966597
 1  5.44669163296330  0.16856281148115 -3.04004707180718
 1  3.85921240644064  0.62046485238524 -2.81722707960796
 1  6.17809790689069  1.45044818871887  0.05005980558056
 1  5.89133695949595 -0.40653623892389  0.58076777087709
 1  7.27211786488649 -1.18474251965196 -1.47480232633263
 1  7.63774352545255  0.38742424702470 -2.16693555125513
 1  8.78651309290929  0.80074792629263  0.21219247774777
 1  8.67987071697170 -0.78478556555656  0.59960281318132
 1  10.12541940724072  0.13262346064606 -1.77647837073707
 1  9.26772395999600 -2.40892955575558 -1.92497172267227
 1  10.96082294329433 -1.99460113651365 -2.08351409700970
 1  10.46831527332733 -2.67348922642264 -0.59680320182018
 1  11.17230142024202  0.93171079487949  0.24358782138214
 1  11.13816138553855 -0.75576406190619  0.78047856955696
 1  12.60538704670467 -1.50937481648165 -1.10573401620162
 1  12.63301361796180  0.12280500760076 -1.86854017251725
 1  13.52832386788679  1.16853724952495  0.31720689478948
 1  13.54420925642564 -0.31944489848985  1.13356293249325
 1  15.11475297269727  0.37957115691569 -1.68097474727473
 1  15.13062845784579 -2.26923520732073 -1.41832585308531
 1  16.51476821312131 -1.79835567506751 -0.79574096669667
 1  15.33248596619662 -2.10568018661866  0.57251995329533
 1  15.84582177377738  1.89289237793779  0.16378022162216
 1  15.86577289999000  0.65626943604360  1.57949994679468
 1  18.15796187348735 -0.39589806840684  0.15209052435244
 1  17.72122484788479  1.11207417051705 -1.10028733333333
 1  18.14224593049305  2.77080580828083  0.59453594859486
 1  18.53517653185319  1.53106194299430  1.93506476207621
 1  20.51383961376138  0.77587832153215  0.47739067616762
 1  19.80053275047505  3.11684381648165 -1.44530950515051
 1  21.38451696889689  2.32288789258926 -1.30713603700370
 1  19.95466370217022  1.27476751335133 -1.94774995619562
 1  20.56124113721372  2.14882443274327  2.37879180698070
 1  21.79274311601160  2.39782789938994  1.33750565036504
 1  20.39084674737474  3.49286895739574  1.32575517991799
 1 -7.38792257475747  1.78354262626263  0.53430668746875
 1 -7.56982834943494 -0.31677655325533 -0.07581090129013

