%nproc=4
%Mem=2GB
# td=(NStates=1) B3LYP/SVP 

TD

0 1
 6 -5.14622747324732 -1.92512231823182  0.46190481558156
 6 -4.77079323752375  2.72748297729773  1.36247292339234
 6 -9.38513775737574  3.35406160246025 -0.19486410261026
 6 -9.79210106120612 -1.43878547314731 -1.23805995139514
 7 -5.17067381538154  0.34996145724572  0.83539099709971
 6 -4.50648874647465 -0.75826481008101  0.81039712531253
 6 -3.07144889858986 -0.69180966446645  1.31177442684268
 6 -3.12663681608161  0.71577669526953  1.89315382078208
 6 -4.43865882398240  1.41846889228923  1.24424633603360
 6 -3.11774827272727  0.88181648264826  3.40359021702170
 6 -2.06639198199820 -0.88564357845785  0.18732534023402
 6 -0.63829221732173 -0.72598145294529  0.69227699279928
 6  0.36949145504550 -0.98093501080108 -0.40342619981998
 8  0.03234297019702 -1.53303299319932 -1.40220267486749
 8  1.63931900710071 -0.64113053155316 -0.00039503150315
 7 -7.07682086308631  2.77848259015902  0.48315890989099
 6 -5.96598077907791  3.40839757225723  0.96646077147715
 6 -6.15482675517552  4.81232931673167  0.99313086478648
 6 -7.47230029452945  4.96847817081708  0.52683791389139
 6 -8.03871932233223  3.66818541744174  0.17659899619962
 6 -5.23528268466847  5.76699048144814  1.56699270317032
 6 -8.07939452765276  6.28536825452545  0.43448850315032
 6 -9.04718224102410  6.67225651625163 -0.37784640094009
 7 -9.22813621292129  0.83172164676468 -0.45616259165917
 6 -9.86518829622962  2.13466676837684 -0.44692350305030
 6 -11.29689592759276  1.86623026252625 -0.93593766506651
 6 -11.47144258475848  0.57178121952195 -1.24689475107511
 6 -10.06392310071007 -0.10711776117612 -0.90316379677968
 6 -12.28089228642864  2.99455202430243 -1.04181861096110
 6 -12.68853895129513 -0.08756785518552 -1.80907314231423
 6 -12.64577904750475 -0.41950659705971 -3.31589877427743
 7 -7.58240136583658 -1.28642295679568 -0.29463580868087
 6 -8.58042402790279 -2.07136375057506 -0.76463339173917
 6 -8.09751335853585 -3.41971657315732 -0.80583432193219
 6 -6.81557358555856 -3.39178506280628 -0.37078918421842
 6 -6.45802434203420 -2.05293709280928  0.02220437453745
 6 -8.96162014711471 -4.61121452145214 -1.32558506530653
 6 -5.62813893539354 -4.24194942184218 -0.00309764016402
 8 -5.62703455955596 -5.45179168786879 -0.08137121672167
 6 -4.47619322392239 -3.32092920562056  0.45355060466047
 6 -3.96037845264526 -3.83029672487249  1.78706059135914
 8 -4.30913352505251 -3.35215617151715  2.84449491349135
 8 -3.16716923262326 -4.84278455975598  1.55833157615762
 6 -2.66509003930393 -5.59810071537154  2.65832230253025
 6  2.59063910731073 -0.94087277787779 -1.00582478777878
 6  4.04783889368937 -0.54924954835484 -0.48424503770377
 6  5.04807710791079  0.15786483408341 -1.00267567216722
 6  4.87003751395140  0.80060390209021 -2.34322686168617
 6  6.29166287838784  0.38884151245124 -0.31075253835384
 6  7.46941116831683 -0.39501883498350 -0.79056641004100
 6  8.77678115511551 -0.14865007190719  0.00233535363536
 6  10.08062991769177 -0.73785826842684 -0.64661564146415
 6  9.92904669806981 -2.26845201100110 -0.95918003270327
 6  11.34733540814081 -0.28990866146615  0.06804433643364
 6  12.64534311891189 -0.64502298069807 -0.59063694089409
 6  13.85127153435343 -0.17510021312131  0.20953731633163
 6  15.33895571667167 -0.35459849564956 -0.32846668246825
 6  15.59953728132813 -1.83480764266427 -0.17845758125813
 6  16.41280387758776  0.50692160336034  0.40868413281328
 6  17.83582042074207  0.72965869976998 -0.26259076687669
 6  18.72836268726872  1.75926454545455  0.44815350825083
 6  20.06488638453845  1.73013863916392 -0.02461970157016
 6  20.04702563206321  1.96089552075208 -1.64931134013401
 6  20.97393785938594  2.70335407150715  0.75793219391939
 1 -4.06986515411541  3.30332671697170  2.02345458375838
 1 -10.25181276627663  4.18022745924592 -0.53076175007501
 1 -10.67397573747375 -2.17964397439744 -1.68669856375638
 1 -2.67656370787079 -1.36238660276028  2.11488328302830
 1 -2.19031959955996  1.19598955005501  1.53756325472547
 1 -2.21912942884288  0.45795321702170  3.83286001130113
 1 -3.22496579687969  1.89259390299030  3.93885298649865
 1 -3.90112069146915  0.21714241654165  3.95767461316132
 1 -2.24584403830383 -1.93114699239924 -0.18567542384238
 1 -2.17551348994899 -0.12057458315832 -0.65483414411441
 1 -0.38362268566857  0.22172629852985  1.18163419391939
 1 -0.16878989188919 -1.61430061006101  1.25671279027903
 1 -4.40742539993999  6.11055919351935  0.92975611361136
 1 -5.77200841964196  6.61719683838384  1.65731132813281
 1 -4.86449822682268  5.47142699209921  2.46203726432643
 1 -7.59843994289429  7.06382341604160  1.08469977627763
 1 -9.63366875967597  6.11276926242624 -1.18238763476348
 1 -9.36362064126413  7.76883216851685 -0.28191789588959
 1 -12.50000454785479  3.41893239173917 -0.08538093669367
 1 -12.11372029432943  3.88264322902290 -1.61973919141914
 1 -13.18061546154616  2.65240085828583 -1.59907295419542
 1 -12.86035086098610 -0.96291641794179 -1.41567614141414
 1 -13.55029577187719  0.59990965236524 -1.70426410371037
 1 -12.17733224822482  0.34555157025703 -3.96112495589559
 1 -11.80010621832183 -1.02522191859186 -3.23766456315632
 1 -13.59977805100510 -0.87863522162216 -3.62764662336234
 1 -9.75453300010001 -4.82853494539454 -0.67367317121712
 1 -9.25282719291929 -4.64150116361636 -2.22295281588159
 1 -8.28218992449245 -5.58060884078408 -1.16114076757676
 1 -3.74965069236924 -3.56961431273127 -0.39815287508751
 1 -2.29046591459146 -6.72875947964797  2.23220892489249
 1 -1.50898747044704 -4.98094783378338  2.93398784908491
 1 -3.40041109650965 -5.45429242924292  3.58100962116212
 1  2.52415420722072 -2.08453519461946 -1.23419055235524
 1  2.64139598249825 -0.25312675067507 -2.17146476577658
 1  4.27665910181018 -1.17013508400840  0.48643768816882
 1  5.36963222772277  1.89149684748475 -2.27506009340934
 1  5.40290725452545  0.43878983418342 -3.21384445154515
 1  3.86812329752975  0.74075688158816 -2.87372272917292
 1  6.68753885098510  1.36455959985999 -0.24976017641764
 1  6.17858568436844  0.22841725642564  0.78607830193019
 1  7.13388404150415 -1.41056510191019 -0.74960980708071
 1  7.82120187128713  0.03332883748375 -1.94149300700070
 1  8.69704414601460  1.08116596809681  0.30029128762876
 1  8.69033176307631 -0.72918000500050  0.81594444734473
 1  10.20635750105011 -0.34058386008601 -1.58545926882688
 1  9.02308949654966 -2.48080674347435 -1.47820704620462
 1  10.69377623862386 -2.36806848324833 -1.81227697329733
 1  10.13671211301130 -3.06412829032903 -0.07054057555756
 1  11.12528671877188  0.76712433623362  0.22363582618262
 1  11.34190175957596 -0.62684116961696  1.17974849654966
 1  12.77199370737074 -1.57222110111011 -0.80236367916792
 1  12.87776809340934 -0.17914518741874 -1.54889820832083
 1  13.64979601510151  0.93485388118812  0.65325049914991
 1  13.92446728222822 -0.54038699269927  1.13106268246825
 1  15.44891638903890  0.00149334913491 -1.43192984278428
 1  14.99386478147815 -2.58870715451545 -0.56709072957296
 1  16.73619035533553 -2.09649548904890 -0.39122051465146
 1  15.70230294789479 -2.09910952955296  0.84059676097610
 1  15.99736692829283  1.59561264996500  0.54517836143614
 1  16.47184350705071  0.05483929302930  1.20802279907991
 1  18.23113919121912 -0.33361183978398 -0.25965064976498
 1  17.71327405280528  0.87924088718872 -1.34439174377438
 1  18.18642034793480  2.85426415411541  0.38658515351535
 1  18.57121013521352  1.61646048284829  1.66921817741774
 1  20.50161839163917  0.73801453515352  0.24445738283828
 1  19.72767546474648  2.87132926502650 -1.81656663086309
 1  21.06844536173617  1.93043864766477 -2.13799912331233
 1  19.44388262406240  1.00060009660966 -2.06713189438944
 1  20.79171418451845  2.56191574187419  1.87623155095510
 1  22.02350619231923  2.41660977757776  0.36127802760276
 1  20.83167082978298  3.82858252875287  0.68901150555055
 1 -6.88526230873087  1.78737300930093  0.12540579737974
 1 -7.75716708330833 -0.27302217781778 -0.21925524572457

