%nproc=4
%Mem=2GB
# td=(NStates=1) B3LYP/SVP 

TD

0 1
 6 -5.11063391389139 -1.97753755975598  0.37650627572757
 6 -4.75987214541454  2.73244347334733  1.53904058015802
 6 -9.33034227782778  3.40762695899590 -0.35632024822482
 6 -9.61237308840884 -1.39256085068507 -1.07559370477048
 7 -5.17882463046305  0.41283774487449  0.76294375237524
 6 -4.44089218681868 -0.72666164976498  0.70862694829483
 6 -3.03866562026203 -0.58124860836084  1.28180142954295
 6 -3.11942609500950  0.84447956555656  1.94222872827283
 6 -4.45680063816382  1.32035908130813  1.39367127852785
 6 -3.12944944284428  0.81804010501050  3.46443630163016
 6 -2.01108645144514 -0.86221123522352  0.21327793549355
 6 -0.53151153925393 -0.74052290709071  0.72320008510851
 6  0.36639114501450 -0.98430534783478 -0.38419427662766
 8  0.12228196409641 -1.48707839773977 -1.46244869946995
 8  1.68194326952695 -0.62541896039604 -0.04336932893289
 7 -7.10135331633163  2.74561930383038  0.56401699569957
 6 -6.00735491649165  3.33019975247525  1.19869399479948
 6 -6.29485075757576  4.77723580738074  1.18074962666267
 6 -7.51078414291429  4.94513583658366  0.70997622772277
 6 -8.02462791319132  3.69211781068107  0.26060739703970
 6 -5.19812896929693  5.77242102450245  1.74766076997700
 6 -8.09688627682768  6.27374709240924  0.41924697899790
 6 -8.84902242504250  6.58791808240824 -0.65500411671167
 7 -9.04625802510251  0.89189766436644 -0.55738271367137
 6 -9.76334811221122  2.06998029972997 -0.63058186888689
 6 -11.08396463446345  1.89035267476748 -1.07237130843084
 6 -11.33186862736274  0.54474851625163 -1.31350141174117
 6 -9.99171587998800 -0.01387843724372 -0.89269274967497
 6 -12.15865006220622  2.93696626572657 -1.20297472657266
 6 -12.39377947534753 -0.26810590899090 -1.83449568456846
 6 -12.53596806640664 -0.38613325972597 -3.35858304270427
 7 -7.35990911661166 -1.23155747024702 -0.34828117321732
 6 -8.56745273077308 -2.05864247844784 -0.81406833523352
 6 -8.17589119631963 -3.44642924442444 -0.74960869936994
 6 -6.90545257345735 -3.41976786108611 -0.30002210751075
 6 -6.44552309190919 -2.12034383348335 -0.02031987788779
 6 -9.02149613471347 -4.64990839083908 -0.94865737253725
 6 -5.78468458995900 -4.34382960986099 -0.05378270867087
 8 -5.75846770287029 -5.51646815551555 -0.04025710531053
 6 -4.57531313591359 -3.45375248794879  0.35423067266727
 6 -3.99598201300130 -3.82639633483348  1.64177606290629
 8 -4.17190980268027 -3.36899785568557  2.73876434043404
 8 -3.07383989968997 -4.82825310661066  1.44873061606161
 6 -2.52686621692169 -5.35689659495950  2.64820129042904
 6  2.69460950435044 -1.02854154475448 -0.98680288558856
 6  4.02036614641464 -0.67724234763476 -0.35190180338034
 6  4.89759205940594  0.15177422502250 -0.86488189278928
 6  4.69090960116012  0.87530137183718 -2.34169670867087
 6  6.18102181428143  0.53934656295630 -0.26039750285028
 6  7.42750697789779 -0.25140447354735 -0.92571992539254
 6  8.66468994599460 -0.03308851575158 -0.04553943384338
 6  9.99878173287329 -0.64121860446045 -0.67138811871187
 6  9.88219201260126 -2.07721288708871 -0.78944305900590
 6  11.26145682028203 -0.21283095369537  0.19272680468047
 6  12.56355494009401 -0.62081055945595 -0.54764264146415
 6  13.82495890309031 -0.11572427552755  0.18286464906491
 6  15.28350017111711 -0.27064009980998 -0.38263209900990
 6  15.45147247484748 -1.76404056595660 -0.32522225772577
 6  16.21657425462546  0.62056296749675  0.24626789118912
 6  17.62446928562856  0.57048278217822 -0.31973648144814
 6  18.49721957295730  1.56871549054905  0.38981767466747
 6  19.99809970587059  1.59267489278928 -0.10663790339034
 6  20.20609153865387  1.94115354655466 -1.49861627062706
 6  20.87396786238624  2.47829156525653  0.80219662036204
 1 -4.18519668726873  3.44260064436444  2.27739997829783
 1 -10.11809939493949  4.19890932743274 -0.68760743464346
 1 -10.43115145504551 -2.06884289428943 -1.42175206910691
 1 -2.66317236873687 -1.42306267036704  1.97886968166817
 1 -2.20676124372437  1.42091204230423  1.44306380478048
 1 -2.23083059895990  0.23039046074607  3.89462618791879
 1 -2.99206250655066  1.87460210381038  3.83055215641564
 1 -3.91964254365437  0.28678938123812  3.57644649034903
 1 -2.16563601750175 -2.04223810151015  0.03941708540854
 1 -2.25665160376038 -0.36513903960396 -0.71119978067807
 1 -0.25351967536754  0.19987411331133  1.25225125562556
 1 -0.15250826372637 -1.54125330533053  1.40166728572857
 1 -4.32086674407441  5.52937107470747  1.06835997399740
 1 -5.54647586638664  6.93202832153215  1.50669626662666
 1 -5.04876665366537  5.76892674207421  2.69169022962296
 1 -7.86509660856086  7.04433146684668  1.00863216951695
 1 -9.17234262706271  5.89848783428343 -1.41452084808481
 1 -9.20205448464847  7.68281356665667 -0.74913461756176
 1 -12.32779732713271  3.46376687518752 -0.26415881448145
 1 -11.99609853215322  3.53468843354336 -2.02415963346335
 1 -13.15014241424142  2.50885650385039 -1.32528557545755
 1 -12.43846867276728 -1.06150627692769 -1.29397397119712
 1 -13.27919866216622  0.26070573197320 -1.56835051235124
 1 -12.68951346634663  0.60650766586659 -3.76067491089109
 1 -11.72397860556056 -1.13385278167817 -3.81440223692369
 1 -13.57804587778778 -0.73730108820882 -3.73769762846285
 1 -9.95389293609361 -4.72699479137914 -0.36583238713871
 1 -9.33104501470147 -5.06679369286929 -2.07904842544254
 1 -8.63526523202320 -5.71911269116912 -0.58579323282328
 1 -3.93959968726873 -3.72292964426443 -0.40851391119112
 1 -1.62744961296130 -6.12495909960996  2.38807451145115
 1 -2.13785035673567 -4.50858059705971  3.40866531683168
 1 -3.18299935533553 -5.93029002900290  3.38031955215522
 1  2.62110390219022 -2.05940268136814 -0.93734086738674
 1  2.34724656755676 -0.52308374637464 -1.90571819111911
 1  4.30850228612861 -1.12455052555255  0.40837988238824
 1  4.75355061956196  2.00749844764476 -2.25432802020202
 1  5.46931389518952  0.31521747694769 -3.12906597369737
 1  3.62596908210821  0.59103190909091 -2.67649300620062
 1  6.43257335443544  1.55240838473847 -0.31539674007401
 1  6.15091291709171  0.40467488218822  0.93423311741174
 1  7.15949660276028 -1.17320136553655 -0.71973681978198
 1  7.51925167626763 -0.00757525292529 -2.01893075077508
 1  8.94638908050805  1.11093894539454  0.05619687818782
 1  8.71812454235424 -0.74963205020502  0.82740559345935
 1  10.08366523182318 -0.09446924862486 -1.49226994989499
 1  8.95603279087909 -2.33133179597960 -1.31210043554355
 1  10.73345020602060 -2.54014569096910 -1.40508625422542
 1  9.69653809560956 -2.48209008650865  0.13234971347135
 1  11.11771596169617  0.83943156695670  0.41133459605961
 1  11.20780835023502 -0.74578306380638  1.09888040974097
 1  12.63175968396840 -1.70418429742974 -0.60749419221922
 1  12.60089040564056 -0.18704597749775 -1.54030734923492
 1  13.64095513101310  0.82687308310831  0.53583875797580
 1  13.93618845434544 -0.61442439643964  1.26583615981598
 1  15.14970646804680  0.25878907870787 -1.37978462826283
 1  14.55794118911891 -2.53287157095710 -0.62612663316332
 1  16.43319005530553 -2.15564140364036 -0.81722311491149
 1  15.58850156775678 -2.20199981858186  0.79180188148815
 1  15.64528171977198  1.67300038873887  0.33247709130913
 1  16.14431075377538  0.26556036513651  1.36788878567857
 1  18.01365744304431 -0.43591206980698 -0.22135682038204
 1  17.62520524592459  0.88194115721572 -1.35726303090309
 1  18.04659636553655  2.62337106480648  0.00786728172817
 1  18.41518453265327  1.49889872667267  1.58789004460446
 1  20.40581881168117  0.44695542924292 -0.10289735263526
 1  19.78514121132113  2.86775890799080 -1.84097907210721
 1  21.36036455365536  1.90528613241324 -1.55352067546755
 1  19.79533776957696  1.32272230883088 -2.22579776097610
 1  20.70585559865987  2.33603315361536  1.87215114291429
 1  21.94482832453245  2.28583670027003  0.59128102790279
 1  20.48750641334134  3.60614028452845  0.35573817821782
 1 -7.42607639013901  1.64584885688569  0.50222347914791
 1 -7.43297466406641 -0.23063793939394 -0.43055637583758

