%nproc=4
%Mem=2GB
# td=(NStates=1) B3LYP/SVP 

TD

0 1
 6 -5.06078892939294 -2.02587239323932  0.42273089818982
 6 -4.71030718891889  2.69058928792879  1.35884256035604
 6 -9.24875411901190  3.34555075137514 -0.23094771097110
 6 -9.71544339543954 -1.33118471307131 -0.94489063446345
 7 -5.20224697269727  0.40044650575057  0.73923138113811
 6 -4.54967306490649 -0.81370035363536  0.83572965856586
 6 -3.07916967066707 -0.67766825032503  1.39131238063806
 6 -3.08275242764276  0.74703982158216  1.96625113051305
 6 -4.44600955905590  1.34924196959696  1.39061097249725
 6 -3.06465296319632  0.64707300830083  3.42163202120212
 6 -2.02877822062206 -0.90593560766077  0.19532614031403
 6 -0.54243263136314 -0.90191904670467  0.67173493859386
 6  0.35353985988599 -1.12385930323032 -0.50467632483248
 8  0.05862559845985 -1.49336902680268 -1.65095755035504
 8  1.61219629482948 -0.89401582008201 -0.08968396039604
 7 -6.92349553055305  2.73332807470747  0.52895348934894
 6 -5.81100528152815  3.42174890739074  1.01196532193219
 6 -6.08496976947695  4.82191027482748  1.09057060876088
 6 -7.30804386888689  5.00166148914891  0.49045427552755
 6 -7.90574602500250  3.65115371427143  0.12022335863586
 6 -5.17068622502250  5.87695147754775  1.48145414931493
 6 -7.96700328852885  6.27559727742774  0.36161121542154
 6 -8.93378090089009  6.74895418601860 -0.51160977727773
 7 -9.15060846014601  0.92546102070207 -0.64434140954095
 6 -9.84889666706671  2.19892319401940 -0.63460227092709
 6 -11.23279951795180  2.06041968146815 -1.16462053335334
 6 -11.30191563206321  0.65796983838384 -1.29973003460346
 6 -9.99188589698970  0.09626257685769 -0.91113459385939
 6 -12.19142333953395  3.15146771587159 -1.34080850995099
 6 -12.51239133653365 -0.10797989638964 -1.67593982898290
 6 -12.51130560016002 -0.43400804720472 -3.22181936633663
 7 -7.43981710741074 -1.23202751725172 -0.28102444754475
 6 -8.54060004550455 -1.97929454365437 -0.64038096649665
 6 -8.17702130933093 -3.46863146464646 -0.63452719121912
 6 -6.86543857205721 -3.37366325062506 -0.27585969126913
 6 -6.48040658025803 -2.11816361546155  0.04961711581158
 6 -9.16116010111011 -4.54540794079408 -0.99116162296230
 6 -5.75665178667867 -4.32022724962496  0.07321999159916
 8 -5.79291114721472 -5.55037154585459  0.21162808320832
 6 -4.53858946354635 -3.36781389408941  0.49996524612461
 6 -4.05169758455846 -3.92616631183118  1.88592047734773
 8 -4.11311392309231 -3.35616657255726  2.91739220322032
 8 -3.40878339403940 -5.08682896419642  1.63616935993599
 6 -2.86722025232523 -5.61106201150115  2.86848331863186
 6  2.68451849524952 -1.01796048664866 -1.16567077237724
 6  3.89814392419242 -0.89314393779378 -0.52633924712471
 6  4.91408370857086 -0.06285723812381 -0.82533793839384
 6  4.86853736393639  0.82709655135514 -2.08453099209921
 6  6.25276898899890 -0.12951032273227 -0.16140760386039
 6  7.48718294549455 -0.52912224532453 -0.97702505590559
 6  8.74732820982098 -0.35907111401140 -0.10413529342934
 6  10.05911776647665 -0.71127561016102 -0.85698667856786
 6  10.12159595299530 -2.06294145994599 -1.52434654935494
 6  11.28347902250225 -0.28127779837984 -0.14081654965497
 6  12.66946553115312 -0.57576605500550 -0.84053193039304
 6  13.75191159835984  0.11436873377338 -0.04125776317632
 6  15.19115093619362 -0.04855789158916 -0.60331416721672
 6  15.62857018461846 -1.51997615951595 -0.71743147864786
 6  16.19726232343234  0.75067597879788  0.44814807920792
 6  17.64087092579258  0.78815454935494 -0.18045255305531
 6  18.45781563256325  1.81870048904890  0.59634832773277
 6  19.97225712161216  1.74435006030603  0.27210997139714
 6  20.26305723522352  2.46511594279428 -1.17704411341134
 6  20.86060652625262  2.38165190129013  1.36056245694569
 1 -3.94482264986499  3.38967535183518  2.06384862316232
 1 -9.78845643064306  4.29260869736974 -0.05278395229523
 1 -10.64294263416342 -1.87157316731673 -1.11042093599360
 1 -3.15016106760676 -1.59855021912191  2.10895268996900
 1 -2.24468503610361  1.54848479957996  1.60978047644764
 1 -2.12796031193119  0.25833325502550  3.98336506180618
 1 -3.42144544484449  1.74814945854585  3.78053715491549
 1 -4.04662524192419 -0.11100039773977  3.74992383808381
 1 -2.17543699759976 -1.74471834953495 -0.31072792909291
 1 -1.93803974257426 -0.12278480418042 -0.68270693139314
 1 -0.06248057145715 -0.03185906000600  1.14019004950495
 1 -0.46510952385239 -1.66846602660266  1.42242936193619
 1 -4.22870752815281  5.83569170677068  0.86796993499350
 1 -5.36848806760676  6.93363848254825  1.19072466946695
 1 -4.67843962096210  5.80311016041604  2.39703076367637
 1 -7.67771787068707  7.01353838753875  1.04251555785579
 1 -9.43797919071907  5.86794477997800 -1.23298269426943
 1 -9.26382066126613  7.74402968826883 -0.67550725482548
 1 -12.41602615001500  3.62237273577358 -0.35494789338934
 1 -11.87889681198120  3.93705867056706 -2.12051926942694
 1 -13.03969136913691  2.89439505770577 -1.80535358225823
 1 -12.52862768866887 -1.05598572487249 -1.18896347014702
 1 -13.23567430973097  0.63606326772677 -1.62222589988999
 1 -12.56434094909491  0.52468948404840 -3.74436327972797
 1 -11.81885809350935 -1.27240663706371 -3.70531132783278
 1 -13.44580265346535 -0.87952531063106 -3.46561041974197
 1 -10.24094164096410 -4.36611870377038 -0.53830963486349
 1 -9.41152306250625 -4.43846085958596 -2.12970349094909
 1 -8.72903460896090 -5.56003678357836 -0.90447510101010
 1 -3.66543227052705 -3.51405875717572 -0.13652671247125
 1 -2.15622249024903 -6.33535013871387  2.45128083208321
 1 -2.42528910061006 -4.90140987998800  3.57672212251225
 1 -3.69993104850485 -5.97013401340134  3.44439595979598
 1  2.59517130893089 -2.06170291139114 -1.63742087538754
 1  2.28574041694169 -0.32500393839384 -1.97799541884188
 1  4.31869330523052 -1.53530160066007  0.38276732113211
 1  5.10156542104210  1.90798849664967 -1.97518010541054
 1  5.46136310011001  0.43353930913091 -2.88727179427943
 1  3.95419190439044  0.74893769966997 -2.59271462836284
 1  6.30967106420642  0.87157030093009  0.30018481808181
 1  6.15984381018102 -0.79683526882688  0.81080077417742
 1  7.47620827392739 -1.74825887128713 -1.30924577067707
 1  7.39999975107511  0.27681318591859 -1.93908276597660
 1  8.88203264486449  0.61359921142114  0.41908316681668
 1  8.33580631053105 -0.86683377037704  0.76714956785679
 1  9.76336320162016  0.23648384668467 -1.65729645254525
 1  9.10306749434944 -2.01130979377938 -2.11723094859486
 1  11.08392525352535 -2.30001167756776 -2.29994574017402
 1  10.12326076787679 -2.80205208270827 -0.58960248174817
 1  11.28306249634963  0.76083370717072 -0.09077561496150
 1  11.37729529892989 -0.88939742524252  0.66041656335634
 1  12.69042555055506 -1.74321820082008 -1.13414685748575
 1  12.81593190979098  0.04566729382938 -1.80607392589259
 1  13.33165420092009  1.07127752355236  0.07672284638464
 1  13.66140097559756 -0.24871782578258  0.97214679087909
 1  15.14673617101710  0.62944614441444 -1.55348199799980
 1  14.97960335533553 -2.13631191499150 -1.41904592509251
 1  16.57745448174818 -1.87306314581458 -1.11102249484948
 1  15.56888960656066 -1.98696831543154  0.35970867216722
 1  15.77294448604860  1.67813090179018  0.47339118271827
 1  16.14046036873687  0.24777858695870  1.39423141994199
 1  17.99539561686169 -0.23342182078208 -0.32191687638764
 1  17.49316204160416  1.28244120722072 -1.09074637923792
 1  18.10048175407541  2.91936066376638  0.53334982998300
 1  18.50441345554556  1.59926876367637  1.69653090869087
 1  20.17360559035904  0.72518325202520 -0.03111017391739
 1  19.87939063626363  3.51334346644664 -1.24044901910191
 1  21.41719023622362  2.35141074487449 -1.35540086348635
 1  19.46028426422642  2.03972400900090 -1.89444462566257
 1  20.77420243334333  1.54583413371337  2.27012093989399
 1  21.95034887658766  2.34560267686769  0.79741164096410
 1  20.56439410211021  3.39725939643964  1.57693029742974
 1 -6.83275705820582  1.76479075107511  0.28371162796280
 1 -7.36685805240524 -0.15150002560256 -0.27565088528853

