%nproc=4
%Mem=2GB
# td=(NStates=1) B3LYP/SVP 

TD

0 1
 6 -5.27390024052405 -1.98437824382438  0.41932055715572
 6 -4.63907006520652  2.80283051205121  1.27652432853285
 6 -9.26332557615762  3.52356855315532 -0.23608822502250
 6 -9.90689254035403 -1.36843843844384 -0.83551969736974
 7 -5.07831457945795  0.42433889498950  0.64767222522252
 6 -4.48423652125213 -0.79740872447245  0.65938202380238
 6 -3.09262101580158 -0.67153763726373  1.11441469086909
 6 -3.06057020942094  0.74516963456346  1.64928943434343
 6 -4.38622358045805  1.38279532493249  1.13626553795380
 6 -2.96563306120612  0.77994629562956  3.28357821582158
 6 -2.12042738553855 -0.94823983808381 -0.01334472677268
 6 -0.61074946304630 -0.99074792959296  0.46869463456346
 6  0.50827533343334 -1.16631354865487 -0.65642149934994
 8  0.13340307620762 -1.34044373427343 -1.88459091369137
 8  1.66049112431243 -1.10125654415442 -0.16364135613561
 7 -6.99914309530953  2.78378312021202  0.36535712971297
 6 -5.88707288828883  3.30968770127013  0.86200032543254
 6 -5.99040031253125  4.69027711151115  0.93335488718872
 6 -7.27295035953595  5.07322864586459  0.52162739283928
 6 -7.93652910331033  3.78056665556556  0.26985832213221
 6 -5.06938609500950  5.79801358375838  1.40437644154415
 6 -7.83848043624362  6.36362608030803  0.50717577187719
 6 -8.89257678047805  6.85878516911691 -0.24821343764376
 7 -9.23157655695570  1.05561403600360 -0.29825680108011
 6 -9.88312008940894  2.19808311001100 -0.43528233893389
 6 -11.31808804680468  2.02934657415742 -0.87301137243724
 6 -11.43254869536954  0.65841988338834 -1.08705876747675
 6 -10.18021472987299  0.09605255585559 -0.73588706910691
 6 -12.25234943214321  3.14193676277628 -1.03041747084708
 6 -12.68998909630963 -0.03154225262526 -1.56515875087509
 6 -12.56552102170217 -0.47177182358236 -3.10127731213121
 7 -7.57365049074907 -1.31316563106311 -0.17920426552655
 6 -8.60142612811281 -1.96724333853385 -0.57329425782578
 6 -8.24620822802280 -3.34358896039604 -0.55405914441444
 6 -6.88364039223922 -3.43462934723472 -0.17164927022702
 6 -6.50060860046005 -2.13892569166917  0.04570672477248
 6 -9.12282626772677 -4.48256165616562 -1.06799930673067
 6 -5.81025714721472 -4.31269649654965  0.09918258785879
 8 -5.89309116521652 -5.59079558825883 -0.04887796739674
 6 -4.62866847144714 -3.44211132383238  0.46323157275728
 6 -3.92698511331133 -3.93914760996100  1.63575546084608
 8 -4.36720933263326 -3.60046100200020  2.77062752675268
 8 -2.98594110981098 -4.96428670997100  1.38599434243424
 6 -2.50618414871487 -5.58506941224122  2.56573304360436
 6  2.73729377277728 -1.21575026562656 -1.13711791709171
 6  4.05528963876388 -0.92791741514151 -0.50299691289129
 6  4.94269656985699 -0.11158211061106 -1.18513391799180
 6  4.70126063626363  0.57823166486649 -2.41640417941794
 6  6.22997670977098  0.27957058535854 -0.40055151825183
 6  7.51112533973397 -0.50201953505351 -0.94255160856086
 6  8.77158063506351 -0.17904311121112 -0.17443232313231
 6  10.08380023472347 -0.88199268186819 -0.72390337023702
 6  10.22425621902190 -2.36758192399240 -0.63468758345835
 6  11.22122279687969 -0.32239190979098  0.16891442344234
 6  12.61283986858686 -0.70537901630163 -0.38186606380638
 6  13.75383179037904  0.12428972587259  0.44739110171017
 6  15.15514733583358 -0.18836187198720 -0.21412524832483
 6  15.60066739433943 -1.63322748464846 -0.27352708820882
 6  16.27526012321232  0.62174308550855  0.57839110351035
 6  17.59537637633763  0.92704843874387 -0.19041354915492
 6  18.60511036203620  1.81542016101610  0.62099079197920
 6  20.05641553745374  1.87792341764176  0.00352311271127
 6  20.12859378887889  2.28186761796180 -1.45213162216222
 6  20.90673113871387  2.90171390749075  0.81835823652365
 1 -3.85067323492349  3.47134351865186  1.47840007830783
 1 -9.85854343934393  4.38426786328633 -0.59457813171317
 1 -10.78908724862486 -1.74433044304430 -1.29040893479348
 1 -2.77550360186019 -1.29891025512551  1.95230702540254
 1 -2.26914748234824  1.20095004610461  1.16321581998200
 1 -1.95666318221822  0.56652407410741  3.58390511581158
 1 -3.21493479377938  1.91198584218422  3.56140524172417
 1 -3.74482506190619  0.07801850415042  3.72791163686369
 1 -2.46932638653865 -1.86439031673167 -0.58897575387539
 1 -2.13550948954896 -0.11862438813881 -0.58254691539154
 1 -0.41163548694869 -0.20138601270127  1.12260829132913
 1 -0.57122013491349 -1.68065724572457  1.27314443344334
 1 -3.93826848424842  5.75402353995400  0.73871700970097
 1 -5.55023624242424  6.95721083978398  1.15344094109411
 1 -4.92502427942794  5.54660450985099  2.51933299389939
 1 -7.37933803270327  7.14259129282928  0.93493479977998
 1 -9.34069946274627  6.35159314481448 -1.07502689868987
 1 -9.27302158135813  7.93918920422042 -0.06177588168817
 1 -12.52839738713871  3.68924942344234 -0.14786718531853
 1 -11.85862478477848  4.07525248994900 -1.60273749124912
 1 -13.21466886688669  2.94253987218722 -1.33958700560056
 1 -12.69256408230823 -0.96640676697670 -1.01631620542054
 1 -13.75430617291729  0.47525718711871 -1.39592326962696
 1 -12.47032154715471  0.47180419551955 -3.79082792619262
 1 -11.62433864156416 -0.91822121852185 -3.21008180488049
 1 -13.39186725992599 -1.15826318441844 -3.52963682238224
 1 -9.95034258105811 -4.71960405230523 -0.38852465636564
 1 -9.64974688488849 -4.29412642614261 -2.13475399599960
 1 -8.63598530403040 -5.39216999689969 -1.15447010051005
 1 -3.90990671797180 -3.61919927122712 -0.40393345314531
 1 -1.61154802280228 -6.20411701540154  2.32068777277728
 1 -2.06577314901490 -4.81270100910091  3.63483793409341
 1 -3.39778083348335 -6.08901590159016  3.04393591379138
 1  2.65898769056906 -2.40940768186819 -1.54780191349135
 1  2.40039188208821 -0.84731616961696 -2.08593621292129
 1  4.19205064096410 -1.30443851435143  0.37570661506151
 1  5.05548081258126  1.57004470227023 -2.36014860226023
 1  5.32965992979298  0.19338529372937 -3.25246831393139
 1  3.64981146634663  0.54227703360336 -3.00192554945495
 1  6.40620071717172  1.35311845574557 -0.69557475787579
 1  6.20946877267727  0.06159057375738  0.73843353745375
 1  7.32079273237324 -1.66043008840884 -0.81777662376238
 1  7.36608635973597 -0.14273876927693 -2.04235309300930
 1  9.02968741034103  0.92052990449045 -0.15119386088609
 1  8.88765149504951 -0.40937802480248  0.95560841374137
 1  10.15137200250025 -0.45175497719772 -1.74874559745975
 1  9.39213640124012 -2.85164382718272 -1.20998022352235
 1  11.16921378237824 -2.83912558895890 -0.99157490309031
 1  9.85551399319932 -2.70750262776278  0.50069654815481
 1  11.27039122922292  0.77446507030703  0.48615207780778
 1  11.05988355775578 -0.79452793829383  1.20268078977898
 1  12.99235574357436 -1.74265814481448 -0.41306474927493
 1  12.62832314891489 -0.49417669056906 -1.54071739023902
 1  13.58901993749375  1.16898729452945  0.41882705680568
 1  13.65214004950495 -0.21940489448945  1.62491206740674
 1  15.09136063346335  0.38216141594159 -1.14311096089609
 1  14.84263965896590 -2.38571685548555 -0.77746176667667
 1  16.59932666896690 -1.57061290079008 -0.67940933353335
 1  15.86276899449945 -2.02787240584058  0.83177587888789
 1  15.78334552615261  1.69233232193219  0.86222006560656
 1  16.57311363406341  0.04027783688369  1.65101709850985
 1  18.16834291159116 -0.02194067266727 -0.38447313201320
 1  17.56061878727873  1.21807477057706 -1.15927323192319
 1  18.35789749564957  3.03578230593059  0.66304279927993
 1  18.59525253945394  1.49573841064106  1.55775703130313
 1  20.73089131893190  0.81323205690569  0.08240117721772
 1  19.58809150635064  3.40982311441144 -1.58330330453045
 1  21.24545306250625  2.33048865266527 -1.68039336273627
 1  19.39357759355936  1.70054009060906 -2.27501268246825
 1  20.73795880898090  2.59438898919892  1.89890381818182
 1  21.88343218491849  2.66818493509351  0.57495939573957
 1  20.38915657835784  3.80989065956596  0.79981258565857
 1 -7.18151193369337  1.87761203320332  0.42938619541954
 1 -7.61322268886889 -0.20984586018602 -0.19511283148315

