%nproc=4
%Mem=2GB
# td=(NStates=1) B3LYP/SVP 

TD

0 1
 6 -5.16657950845085 -1.98273807980798  0.54405303040304
 6 -4.72843900210021  2.72901313031303  1.40344702080208
 6 -9.20515975957596  3.38788498479848 -0.20674529072907
 6 -9.76134798589859 -1.41205279987999 -1.02089823522352
 7 -5.15247199519952  0.39167562866287  0.88944640264026
 6 -4.56039413701370 -0.73960294389439  0.91737782338234
 6 -3.02289404310431 -0.58571905540554  1.34867811721172
 6 -3.03221737413741  0.79120423802380  1.92954746014601
 6 -4.34096905500550  1.41837888328833  1.33631554295430
 6 -2.92229872777278  1.10003830483048  3.46142600060006
 6 -2.06800214301430 -0.86598161226123  0.22455906360636
 6 -0.66633502160216 -0.88626748154815  0.73940170527053
 6  0.31468597449745 -0.91108802610261 -0.49616547374737
 8  0.05597533343334 -1.08151784168417 -1.60250270487049
 8  1.65164023922392 -0.92794921342134  0.02063707170717
 7 -7.02520570157016  2.78290303220322  0.51097169116912
 6 -5.85766994799480  3.41389812231223  0.99039316471647
 6 -6.18167944044404  4.80593867766777  1.16738829052905
 6 -7.46492955745575  4.98860018301830  0.56020125022502
 6 -7.95238068846885  3.75844444334433  0.20859219551955
 6 -5.15246440284028  5.85861964436444  1.48320432433243
 6 -8.08248483668367  6.36581629932993  0.46221127542754
 6 -8.98302582538254  6.63074236483648 -0.41862047834783
 7 -9.10481388068807  0.94153262786279 -0.52897987338734
 6 -9.72477425482548  2.17503080478048 -0.49694850555056
 6 -11.17377361536154  1.84467810731073 -0.98808287958796
 6 -11.35720116061606  0.59702374377438 -1.34814487608761
 6 -9.96083279167917  0.03579653025303 -0.90249372977298
 6 -12.22538673587359  3.01039360846085 -1.13180760986099
 6 -12.52688278567857 -0.16444554295430 -1.88864109910991
 6 -12.58610307990799 -0.38278292469247 -3.45934311871187
 7 -7.52096522222222 -1.29831414591459 -0.20121646674667
 6 -8.58124410991099 -2.07122373657366 -0.67905483388339
 6 -8.06243985118512 -3.50449505100510 -0.75880961946195
 6 -6.83649567776778 -3.46275215951595 -0.27394950025002
 6 -6.48600714031403 -2.13640543964396  0.09920207430743
 6 -8.91537552265227 -4.67323072307231 -1.12937544434443
 6 -5.77918403990399 -4.31875710261026 -0.01684901530153
 8 -5.59749160526053 -5.53756026472647 -0.17649072867287
 6 -4.55151075567557 -3.40431754445445  0.56339158875888
 6 -3.99130154495450 -3.88301199639964  1.83901578687869
 8 -4.31281389308931 -3.49011996789679  2.88223868786879
 8 -2.94860737643764 -4.78978926022602  1.51991773477348
 6 -2.40883441374137 -5.33235414071407  2.67195366566657
 6  2.67134717811781 -1.10267895849585 -1.10773497879788
 6  3.88795290509051 -0.58232285568557 -0.53486009920992
 6  4.94927722792279 -0.02321327372737 -1.18186359095910
 6  4.72831334153415  0.37232107380738 -2.63923646264626
 6  6.28650236233623  0.31120374867487 -0.46356781988199
 6  7.44872910011001 -0.53502283538354 -0.99610696409641
 6  8.73591706870687 -0.28800400730073 -0.14125900580058
 6  10.02606446114611 -0.91108559115912 -0.79155013491349
 6  9.86600039343934 -2.39020418621862 -0.93241735643564
 6  11.32631330593059 -0.34981465206521 -0.00867333533353
 6  12.64068265286529 -0.58682716111611 -0.72259013621362
 6  13.76145255245524 -0.12938564166417  0.26987334993499
 6  15.20021184228423 -0.29574261006101 -0.51682551835184
 6  15.56650397799780 -1.79611377327733 -0.56760649614962
 6  16.22663526072607  0.51153206440644  0.37736100050005
 6  17.69869670837084  0.64120985488549 -0.24418892669267
 6  18.58970882188219  1.62221084008401  0.65224391729173
 6  19.94573446934693  1.88314393969397  0.11224398479848
 6  19.92128305780578  2.55762519371937 -1.27865427442744
 6  20.65975644124412  2.67170090619062  1.16168256895690
 1 -3.95572373997400  3.31999838413841  1.78004024232423
 1 -9.84438202320232  4.26642607910791 -0.35510418431843
 1 -10.61376971687169 -1.94070008000800 -1.31161105500550
 1 -2.86159221072107 -1.37768813291329  2.23984577927793
 1 -2.14735530313031  1.51057100820082  1.49162866126613
 1 -2.18055557145715  0.65212263396340  3.97650437573757
 1 -2.84824812511251  2.14609925352535  3.46646574777478
 1 -3.89583016241624  0.72413311561156  3.98529737543754
 1 -2.46996645054505 -1.79373325102510 -0.33193004930493
 1 -2.18679461806181  0.01460893519352 -0.48920758145815
 1 -0.43351767516752 -0.12066794089409  1.34181021152115
 1 -0.65622863576358 -1.91506068606861  1.36423354235424
 1 -4.42157681508151  6.19664780238024  0.52483562156216
 1 -5.80740195899590  6.68307342604261  2.02717831483148
 1 -4.62282405940594  5.43016286568657  2.29138019861986
 1 -7.61506160506051  7.19708674237424  1.11991329762976
 1 -9.50546593939394  5.84305229072907 -1.18830822682268
 1 -9.20764504370437  7.76463174847485 -0.41773147724772
 1 -12.46953150055005  3.40823132163216 -0.13800619921992
 1 -11.88648757105711  3.94261922662266 -1.77325454295430
 1 -13.19897729772977  2.56970258845885 -1.75432847974797
 1 -12.45539036493649 -1.09736986328633 -1.24300887468747
 1 -13.35808655095510  0.28806846824682 -1.63167684498450
 1 -12.58417293229323  0.54190120522052 -4.28667751115112
 1 -11.91995820352035 -1.26317571397140 -3.82171296799680
 1 -13.58924699789979 -0.81689904800480 -3.75282914161416
 1 -9.64941248804880 -4.89599169106911 -0.32178798269827
 1 -9.36738864906491 -4.50221723522352 -2.08166868746875
 1 -8.24241594709471 -5.54911569146915 -1.00608526202620
 1 -3.74757048434843 -3.39054640594059 -0.11484454425443
 1 -1.55870273827383 -6.05988259195920  2.26481218521852
 1 -2.08823539523952 -4.52475221422142  3.41613606390639
 1 -3.16608766416642 -6.08692569256926  3.32697421762176
 1  2.80078186998700 -2.16448318941894 -1.10495762906291
 1  2.38717055995600 -0.57234867286729 -2.10575819511951
 1  3.92817425332533 -1.02761083158316  0.45923496789679
 1  4.94989025352535  1.48572627042704 -2.71441402880288
 1  5.60843780758076  0.04599055425543 -3.21091415851585
 1  3.72552903810381  0.19968277417742 -2.87946330323032
 1  6.27270736783678  1.45747889178918 -0.21455665606561
 1  6.23107093289329 -0.01035662096210  0.69537923202320
 1  7.05267592069207 -1.62119616501650 -1.03292813891389
 1  7.43757350845085 -0.19273376877688 -1.99724858255826
 1  8.68244268586859  0.79130698219822  0.31295255375538
 1  8.54190692059206 -0.88908599559956  0.82943579647965
 1  10.21345821112111 -0.49961976367637 -1.86986770967097
 1  9.05343253085308 -2.69967863066307 -1.30554978047805
 1  10.80609747074707 -2.80310198659866 -1.39332507810781
 1  9.81692013381338 -2.91776365386539  0.03610008850885
 1  11.03377756785678  0.73624124792479 -0.07292382978298
 1  11.49391696109611 -0.89796828232823  1.01750227192719
 1  12.65684219221922 -1.76528040704070 -1.04617806060606
 1  12.53934425102510  0.15397812491249 -1.73345666416642
 1  13.61786282178218  1.00016041184118  0.51905707980798
 1  13.62604744024402 -0.75749870387039  1.00906048224822
 1  15.05660715811581  0.13835703550355 -1.55334198399840
 1  14.71060645564557 -2.20752903670367 -1.41259528002800
 1  16.53428016431643 -1.93283912341234 -0.84978637123712
 1  15.31852457005701 -2.44692431103110  0.35824852615262
 1  15.79595678727873  1.47755084378438  0.58548239183918
 1  16.25159148184819 -0.12800899179918  1.37125912271227
 1  18.22794887218722 -0.34166264486449 -0.16506119081908
 1  17.52522524792479  1.29612257535754 -1.28354565916592
 1  18.08878058395840  2.68910763846385  0.67431392639264
 1  18.50705371957196  1.34538337513751  1.81651290689069
 1  20.65007323712371  0.87673840754075  0.01504444154415
 1  19.27603030023002  3.55939807190719 -1.39488446264626
 1  20.93116163336333  2.90007561136114 -1.41921724512451
 1  19.51997023282328  1.90672070867087 -2.19149433063306
 1  20.82228724182418  1.91385093539354  2.08511243904390
 1  21.87054089578958  2.61841995859586  0.89531143094309
 1  20.42815047774777  3.60336000650065  1.29998260266027
 1 -7.17196097859786  1.75252952495250  0.11919517631763
 1 -7.66701806840684 -0.26361123672367  0.05315199499950

