%nproc=4
%Mem=2GB
# td=(NStates=1) B3LYP/SVP 

TD

0 1
 6 -5.13394624512451 -1.88984879087909  0.31084971007101
 6 -4.78800495869587  2.75686591559156  1.54501117721772
 6 -9.44253349694969  3.38359455575558 -0.17499211541154
 6 -9.82146399749975 -1.44436603120312 -0.99075522092209
 7 -5.19954670267027  0.41416787788779  0.89155661366137
 6 -4.51200929852985 -0.75065404900490  0.81396748234824
 6 -3.10589234293429 -0.56881736523652  1.18591184058406
 6 -3.10546469886989  0.89703482108211  1.81145565096510
 6 -4.49383434153415  1.41670871627163  1.31748365976598
 6 -2.87232373027303  0.89008730973097  3.31146100410041
 6 -2.05619096189619 -0.76609162326233  0.01753836153615
 6 -0.58071645974597 -0.67672652745275  0.45141290639064
 6  0.42215672157216 -0.92638955625563 -0.55403126032603
 8  0.08446818271827 -1.19201889178918 -1.74897735233523
 8  1.63178825402540 -0.81690810931093 -0.13716870887089
 7 -7.21613479447945  2.78668341024102  0.57192778677868
 6 -6.03723790479048  3.38839557205721  1.07455158055806
 6 -6.38866013851385  4.76247433123312  1.02702425412541
 6 -7.63653671817182  4.99753107610761  0.52363759385939
 6 -8.16143159355936  3.74151275017502  0.25763710001000
 6 -5.38796795319532  5.82106588898890  1.54752075597560
 6 -8.26586317451745  6.28334805250525  0.42154720902090
 6 -9.22865038783878  6.65999529012901 -0.39903852015202
 7 -9.30910430973097  0.87129560416042 -0.40961793719372
 6 -9.97382916031603  2.02826612831283 -0.54500331103110
 6 -11.20526676467647  1.95782942244224 -1.07243131443144
 6 -11.35722116261626  0.52697673907391 -1.26207626922692
 6 -10.16100280868087 -0.09689673907391 -0.85681916231623
 6 -12.28329252645264  3.01916448554855 -1.29909433853385
 6 -12.55694579197920 -0.16250534893489 -1.85096733173317
 6 -12.48886335593559 -0.24487913431343 -3.41574875927593
 7 -7.56490961666167 -1.25001931643164 -0.19261560666067
 6 -8.58567455295529 -1.99632624682468 -0.68113504190419
 6 -8.17496110331033 -3.35711031253125 -0.55160889938994
 6 -6.84398642684268 -3.39930581488149 -0.17705981128113
 6 -6.50072861246125 -2.09202100120012  0.04995714981498
 6 -9.01348533363336 -4.55257865786579 -0.97464997179718
 6 -5.75440156165617 -4.30834606150615  0.12417508710871
 8 -5.72010386648665 -5.49101561026103 -0.01881496109611
 6 -4.51426703130313 -3.37107422012201  0.38747399699970
 6 -3.89555196999700 -3.82694638983898  1.62987487278728
 8 -4.06856946864686 -3.45397635353535  2.78882934693469
 8 -3.05307782348235 -4.80806108740874  1.43594933793379
 6 -2.55261879217922 -5.47173807910791  2.55012148244824
 6  2.77035707910791 -1.05088377897790 -1.07127133243324
 6  4.00846495629563 -0.78812343574357 -0.34497111031103
 6  5.02493479367937 -0.09893084548455 -0.92338774337434
 6  5.02250276047605  0.56695053675368 -2.29199173817382
 6  6.29571328342834  0.11203383168317 -0.23116457955796
 6  7.51679590679068 -0.62622195529553 -0.72712006540654
 6  8.79485296229623 -0.16840204710471 -0.01503638353835
 6  10.17177903260326 -0.86706118871887 -0.69778075797580
 6  10.08577237063706 -2.39294446024603 -0.68532264696470
 6  11.30258093269327 -0.36835650625062  0.13606113811381
 6  12.69267785238524 -0.74030250865086 -0.49168704590459
 6  13.88806521372137 -0.17070977407741  0.28277464006401
 6  15.27405922702270 -0.16925996179618 -0.35286912271227
 6  15.70494782238224 -1.59144330623062 -0.67087682318232
 6  16.34600719791979  0.48997990919092  0.43540680508051
 6  17.82494933363336  0.65341107500750 -0.25305981378138
 6  18.73228307930793  1.51347996699670  0.49227792069207
 6  20.17320721662166  1.82584821012101 -0.03954119371937
 6  20.09391032053205  2.42543197439744 -1.47313372237224
 6  21.01924238983898  2.58862259835984  0.84529092979298
 1 -4.22549071667167  3.64671105540554  1.83546578487849
 1 -10.06023360836084  4.29346878337834 -0.19238791269127
 1 -10.57331567146715 -2.07345335533553 -1.67552744664467
 1 -2.69984603610361 -1.34015437953795  1.89890168486849
 1 -2.39873044064406  1.51660161126113  1.21932143054305
 1 -1.74345186108611  0.47886530823082  3.42693941924192
 1 -3.01200450075008  1.72557720132013  3.94363346454645
 1 -3.73837441684168  0.28888959125913  3.75981482718272
 1 -2.40927038093809 -1.64282816051605 -0.54100095639564
 1 -2.27492343094309  0.02090956525653 -0.64930359105911
 1 -0.39710403380338  0.52486661256126  0.75274130463046
 1 -0.40378339123912 -1.26058523852385  1.35567268626863
 1 -4.56747140454045  6.01181931953195  0.77183032103210
 1 -5.67343856265627  6.82891801050105  1.54701029802980
 1 -5.05590736773677  5.64426427582758  2.58773983458346
 1 -7.85383548244825  7.00961799549955  1.04172547884788
 1 -9.66965235803580  5.83352133763376 -1.17170656665667
 1 -9.75610989018902  7.61719700500050 -0.27435713981398
 1 -12.55098964636464  3.27716821532153 -0.39927232583258
 1 -11.79296821912191  3.64258922362236 -2.00227744524452
 1 -13.22629002900290  2.64288990719072 -1.64473752065207
 1 -12.63521834773477 -1.14355448174817 -1.17623219701970
 1 -13.60179092139214  0.50486014741474 -1.45165884318432
 1 -12.15539005400540  0.61116813191319 -3.92034087748775
 1 -11.59631583928393 -1.03472286868687 -3.51666246294629
 1 -13.35101317451745 -0.59551690979098 -3.70098395709571
 1 -9.78580612741274 -4.89963205510551 -0.02614841874187
 1 -9.37829974017402 -4.06962397589759 -2.03463398399840
 1 -8.62957466296630 -5.50405118501850 -0.98423307680768
 1 -3.89082480978098 -3.52448980028003 -0.39603266306631
 1 -2.02828969696970 -6.39697630133013  2.34373007700770
 1 -2.04622119381938 -4.76839657865787  3.08996344664466
 1 -3.39209026442644 -5.77152415241524  3.29924144434443
 1  2.75682747454745 -2.19990673177318 -1.33269040234023
 1  2.50214205710571 -0.47042848084808 -1.88428604790479
 1  4.06183761966197 -1.01249932043204  0.66778582298230
 1  5.34301956645665  1.73581127892789 -2.10611319871987
 1  5.89124608840884  0.05429138433843 -2.97244031113111
 1  4.11389787498750  0.66676948284828 -2.83290864776478
 1  6.61180127722772  1.25126827072707 -0.39898509890989
 1  6.16568439423942 -0.02933851915192  0.86681637573757
 1  7.22959361246125 -1.69504354975498 -0.64916976307631
 1  7.57088683978398 -0.40432492789279 -1.91750060776078
 1  8.82922736433643  1.03085093659366 -0.24185292679268
 1  8.86790952085209 -0.55650273727373  1.15659851275128
 1  10.15271213651365 -0.65777557925793 -1.74072479537954
 1  9.14531171877188 -2.65731439423942 -1.12393161866187
 1  10.90318717971797 -2.96039771617162 -1.29622536813681
 1  9.99161760356036 -2.94391626912691  0.48816529502950
 1  11.19032322242224  0.68905652945295  0.15994945754575
 1  11.36455402480248 -0.87814630013001  1.23239376107611
 1  13.06909341734173 -1.84990886988699 -0.38844228702870
 1  12.83708402500250 -0.34264153705371 -1.51981530003000
 1  13.57453848934894  0.70968136393639  0.59544471857186
 1  13.83224806030603 -0.62114506850685  1.28119769596960
 1  15.38906040344034  0.37178037783778 -1.37095374517452
 1  15.04084947994800 -2.17103538733873 -1.33867788828883
 1  16.85301203750375 -1.73975981548155 -0.93069446204620
 1  15.63157587518752 -2.09439905850585  0.21291399269927
 1  15.90221741334133  1.60173326202620  0.41712555615562
 1  16.48413473617362 -0.01077726862686  1.46653865066507
 1  18.24690076737674 -0.36733521212121 -0.34644932963296
 1  17.70814353975398  0.83634659775978 -1.31599890449045
 1  18.35709741564157  2.60691941964196  0.96098259325933
 1  18.92236525072508  0.83824266106611  1.39074032963296
 1  20.73777200700070  0.86015674937494 -0.32834989788979
 1  19.82457515471547  3.50543267536754 -1.35404037823782
 1  21.07556607380738  2.23901950575058 -2.02714803820382
 1  19.25604384018402  2.10021005760576 -2.21838701990199
 1  21.26975198829883  1.98142769306931  1.69681360916092
 1  22.14392823452345  2.91493961056106  0.39472137193719
 1  20.55312297499750  3.70969063956396  1.27662026642664
 1 -7.45530931343134  1.84951922392239  0.32928618541854
 1 -7.81299266586659 -0.25785066066607  0.01034771457146

