%nproc=4
%Mem=2GB
# td=(NStates=1) B3LYP/SVP 

TD

0 1
 6 -5.21764461496150 -2.01743154915492  0.54865349044904
 6 -4.66976313451345  2.68450867986799  1.45036171227123
 6 -9.27960720432043  3.41784798109811 -0.22863747994799
 6 -9.80220207130713 -1.38959055365537 -1.03325947134713
 7 -5.19475622362236  0.27790425152515  0.88311576957696
 6 -4.61320941854185 -0.85015399899990  0.90752683828383
 6 -3.06268802250225 -0.66767725122512  1.31258450785079
 6 -3.08707285968597  0.69225434303430  1.94145865126513
 6 -4.44962992109211  1.28735578097810  1.40163207460746
 6 -2.98083458135814  0.85772407340734  3.39012887088709
 6 -2.04630997379738 -0.86916193029303  0.17500410811081
 6 -0.63520190829083 -0.78197705250525  0.59254701980198
 6  0.37962246814681 -1.09455637293729 -0.51039689688969
 8  0.18851858775878 -1.70893058295830 -1.60642309690969
 8  1.55969104430443 -0.77175359385939 -0.20483547554755
 7 -7.05718889988999  2.70872561446145  0.61143173717372
 6 -5.91552573357336  3.35442217471747  1.02270639603960
 6 -6.18219949244924  4.72060014381438  1.05125667736774
 6 -7.44071713621362  4.92928425142514  0.51543677377738
 6 -8.01562701310131  3.65314391329133  0.22730406670667
 6 -5.21366052245224  5.71299508190819  1.66879288318832
 6 -8.05848243644364  6.30710042774277  0.25646070037004
 6 -8.73550107290729  6.74453374397440 -0.73994261056106
 7 -9.07214061336134  0.98273674827483 -0.48437541294129
 6 -9.70846262366237  2.14277757945795 -0.58349716041604
 6 -11.07575381338134  1.95083872337234 -1.07050112141214
 6 -11.28380382088209  0.61852589398940 -1.30869093069307
 6 -10.03369007740774 -0.08054510391039 -0.89332281268127
 6 -12.09885408260826  3.14816738583858 -1.37692212131213
 6 -12.51236133353335 -0.18371747014701 -1.78940117511751
 6 -12.61241571117112 -0.30949559595960 -3.29766695109511
 7 -7.55308843454345 -1.33137745224522 -0.16340268536854
 6 -8.61396738223822 -2.02300891509151 -0.66425335373537
 6 -8.28209181638164 -3.41371597309731 -0.65347908640864
 6 -6.97440946914691 -3.46905278957896 -0.11248335363536
 6 -6.57020556015602 -2.12979477857786  0.20913306740674
 6 -9.20037402250225 -4.50384378437844 -1.11988449524952
 6 -5.81251737323732 -4.35801102800280  0.08832150175017
 8 -5.79476133223322 -5.54149065776578 -0.00126320592059
 6 -4.63508911351135 -3.41535864856486  0.48612386198620
 6 -3.99033144794479 -3.96906060126013  1.74218610391039
 8 -4.32688530023002 -3.69069002490249  2.88751921592159
 8 -3.02500501620162 -4.88134841614161  1.56870261326133
 6 -2.53822735303530 -5.56697760306031  2.78913538383838
 6  2.62754279767977 -0.91840053065307 -1.21033523882388
 6  3.89389349914992 -0.53625824922492 -0.69250586378638
 6  4.93105540574057  0.25949499709971 -1.14555996059606
 6  4.71799230943094  0.93615745744574 -2.41944448344834
 6  6.20091380348035  0.48323095139514 -0.28672013511351
 6  7.44052828002800 -0.13860319341934 -0.93003035643564
 6  8.81026450345035  0.14204899799980 -0.27906278617862
 6  10.04056591129113 -0.63494797739774 -0.76890787068707
 6  9.95955974937494 -2.20690585638564 -0.89514362906291
 6  11.36376705130513 -0.14683435403540  0.00519805180518
 6  12.64814339893989 -0.63877235563556 -0.58137601480148
 6  13.74444085128513  0.16841413831383  0.21536789938994
 6  15.19753157425743 -0.11541457725773 -0.32572640844084
 6  15.53063039063906 -1.62892705460546 -0.57691742724272
 6  16.17826042324232  0.68297920912091  0.41706497089709
 6  17.66343318201820  0.61573730763076 -0.11892640044004
 6  18.66993684468447  1.51455007400740  0.62990168306831
 6  20.09312920882088  1.56150177547755  0.09470223062306
 6  20.13095402490249  2.06986641784178 -1.38043445244524
 6  21.16130659625963  2.29544328042804  0.98068446914691
 1 -4.00261842944294  3.32576896119612  1.79204144244424
 1 -9.88265585058506  4.26996643314331 -0.42339101300130
 1 -10.73921226112611 -2.08169417941794 -1.36548644254425
 1 -2.86670272177218 -1.66474683878388  2.15680747544755
 1 -2.27362793039304  1.26866681778178  1.40351985038504
 1 -1.67941545744574  0.69015643734373  3.68353507880788
 1 -3.24823812411241  1.91594623822382  3.77767686888689
 1 -3.52633321272127 -0.01178047574757  4.07393623932393
 1 -2.25275472937294 -1.92173605130513 -0.35631248754876
 1 -2.29985592419242 -0.09621214691469 -0.63815247594759
 1 -0.31260558395840  0.20069419531953  1.00388641914191
 1 -0.55582859575958 -1.56502568256826  1.24270138913891
 1 -4.11667632503250  5.74115225282528  1.15270840884088
 1 -5.31583280208021  6.84709982868287  1.72591818881888
 1 -4.92208398539854  5.51835168456846  2.63650471107111
 1 -7.50029012791279  7.09444647834783  1.02622392869287
 1 -9.18260365316532  5.94484246974697 -1.26307570357036
 1 -9.05081936113611  7.82808809410941 -0.85677538163816
 1 -12.51210575797580  3.67701820032003 -0.56201860046005
 1 -11.71439036133613  3.76809177387739 -2.17721493899390
 1 -13.12580998099810  2.85962158035804 -1.53603665056506
 1 -12.45871069696970 -1.19855998229823 -1.34205877967797
 1 -13.54685542784278  0.15669533093309 -1.42374605190519
 1 -12.75235975097510  0.58905592069207 -3.89069791319132
 1 -11.56558276597660 -0.70508990539054 -3.86844764146415
 1 -13.24936300950095 -1.28783614171417 -3.40455431413141
 1 -9.67634518131813 -4.55938803070307 -0.36175197909791
 1 -9.79632154235424 -4.36991400490049 -2.00806132673267
 1 -8.30947265276528 -5.26717749764977 -1.36916156965697
 1 -3.97402312961296 -3.43836118741874 -0.35982904270427
 1 -1.91675854385439 -6.27122372607261  2.29968567256726
 1 -2.30174674637464 -4.85504524352435  3.64983943424342
 1 -3.48122917831783 -6.26009300930093  3.22674419461946
 1  2.79493128492849 -1.89607634873487 -1.54104123742374
 1  2.42240408330833 -0.25299673767377 -2.16152377167717
 1  3.93796523242324 -1.19953802430243  0.39486853125312
 1  5.13461872637264  2.11565926372637 -2.65603819121912
 1  5.35592255605560  0.28847480268027 -2.98291135823582
 1  3.60564704990499  0.76128893479348 -2.68692404930493
 1  6.30505060216022  1.54461760566057 -0.05221042144214
 1  5.94948277407741  0.28418283298330  0.81864155825583
 1  7.34071472457246 -1.18054209960996 -1.16310115621562
 1  7.66537628872887  0.28963446804680 -2.10449930763076
 1  9.00572501410141  1.20946879837984 -0.14172291379138
 1  8.46290902080208  0.03323623662366  0.92590544344434
 1  10.36075294059406 -0.52721252295229 -1.78799952285229
 1  9.13984117171717 -2.59436809960996 -1.57929715521552
 1  11.03446030703070 -2.50020169656966 -1.22015776137614
 1  9.93522196399640 -2.57907978547855  0.17073355185519
 1  11.10625481558156  0.92044966876688  0.25345880848085
 1  11.12494006340634 -0.88748723422342  0.93554407610761
 1  12.81322783078308 -1.70696457545755 -0.59543298609861
 1  12.57238755535553 -0.14516178907891 -1.54441776027603
 1  13.69985102060206  1.24527492329233  0.34228940304030
 1  13.78416325182518 -0.17656061006101  1.25690526672667
 1  15.26650814821482  0.31326452625263 -1.47709435923592
 1  14.84663005800580 -2.05502378617862 -1.17470149064907
 1  16.51968870517052 -1.73986982648265 -0.85292668526853
 1  15.66548926652665 -2.13678329692969  0.33105580688069
 1  16.24485167676768  1.98797188588859  0.49625346894690
 1  16.08914523722373  0.20185399449945  1.43949594639464
 1  18.05522159945995 -0.27827630623062 -0.14906959165917
 1  17.59530225562556  0.80625358845885 -1.18812611721172
 1  18.27880958685869  2.58107683538354  0.59955645064506
 1  18.78798181238124  1.05015385218522  1.70657191279128
 1  20.39938816861686  0.45961669536954 -0.07314437733773
 1  19.76790948814882  3.18098023012301 -1.30633560776078
 1  21.20738925612561  2.00538614241424 -1.89741506490649
 1  19.52190042584258  1.44816485308531 -2.05057023822382
 1  21.30549556265627  1.85180473077308  1.99244317211721
 1  22.13186702840284  2.20659877647765  0.45913781358136
 1  20.81179884258426  3.34519418991899  1.25131773617362
 1 -7.33890767326733  1.71466573857386  0.75267852465247
 1 -7.40296166276628 -0.34868974457446 -0.40251357155716

