%nproc=4
%Mem=2GB
# td=(NStates=1) B3LYP/SVP 

TD

0 1
 6 -5.07996084658466 -1.98315812181218  0.37765639073907
 6 -4.68919507770777  2.78928915791579  1.39566624272427
 6 -9.24523376697670  3.34978117441744 -0.24316893309331
 6 -9.76402825392539 -1.48093968856886 -0.85197134253425
 7 -5.01880862886289  0.40665712681268  0.74565202320232
 6 -4.43137123472347 -0.78896788038804  0.87226331193119
 6 -3.00758251195120 -0.56771725522552  1.28401165056506
 6 -3.04777893029303  0.88205332293229  1.84479898529853
 6 -4.33377833593359  1.37103414881488  1.27120903230323
 6 -3.09208570647065  0.86297459845985  3.42271212921292
 6 -2.08527387018702 -0.82476749084908  0.02546915461546
 6 -0.62890127822782 -0.79441829662966  0.59751751685169
 6  0.35897040294029 -0.92146906420642 -0.57252310951095
 8  0.04881461736174 -1.30419010891089 -1.62780523512351
 8  1.63551862706271 -0.63821023952395 -0.20585557755776
 7 -6.93137631863186  2.73773851575158  0.33874446844684
 6 -5.89565374637464  3.37709444194419  0.95935006040604
 6 -6.12091336383638  4.84489257305731  1.00691224292429
 6 -7.35606867136714  5.07625894889489  0.42115734583458
 6 -7.95487093749375  3.61555015391539  0.07067840414041
 6 -5.16717587398740  5.91423520592059  1.42309831373137
 6 -8.05001158935893  6.33255297299730  0.29396445074507
 6 -9.05094261706171  6.71181047164716 -0.53007162346235
 7 -9.23851725102510  0.86378485308531 -0.35403237863786
 6 -9.74947672507251  2.08288158985899 -0.52032084278428
 6 -11.29741597959796  1.91062470197020 -0.93967803910391
 6 -11.36706214671467  0.54461850325032 -1.14789485108511
 6 -10.09226593499350 -0.06751380078008 -0.74758823922392
 6 -12.28730292749275  2.92226479557956 -1.18865329442944
 6 -12.59968006540654 -0.29514861326133 -1.60618285328533
 6 -12.63424789438944 -0.42105675207521 -3.15444262866287
 7 -7.53385651135114 -1.30192450695070 -0.23565991109111
 6 -8.57705369086909 -2.11895851005101 -0.55888281668167
 6 -8.16314992219222 -3.41742634413441 -0.64466820532053
 6 -6.91490351855186 -3.45464134843484 -0.24404650995099
 6 -6.44446298589859 -2.08366016511651 -0.01282912881288
 6 -9.05530951605160 -4.62390579057906 -1.03809631643164
 6 -5.80888701020102 -4.29897512441244  0.09915258485849
 8 -5.76365822192219 -5.56245275397540  0.11905882628263
 6 -4.56644224882488 -3.44393150585059  0.45785103470347
 6 -3.98673108790879 -3.92009570477048  1.84135602090209
 8 -4.29952256395640 -3.43061401730173  2.94418488248825
 8 -3.04126664236424 -4.89211949324933  1.53645938893889
 6 -2.45481901220122 -5.54462536783678  2.70132660296030
 6  2.60619066246625 -0.84196288688869 -1.18486269156916
 6  3.96975108490849 -0.66349097249725 -0.61559817301730
 6  4.92408470867087  0.13886293389339 -1.01699710431043
 6  5.01659216941694  0.69853369506951 -2.42560509950995
 6  6.38754246634663  0.23234586288629 -0.31492295539554
 6  7.53649787698770 -0.35615494859486 -1.05721307470747
 6  8.72780625762576 -0.23726893379338 -0.15783066296630
 6  10.04506636133613 -0.76290077267727 -0.79123010291029
 6  10.01040483388339 -2.32854802060206 -1.14967908260826
 6  11.32471314591459 -0.36428609920992 -0.05555802380238
 6  12.62042062666267 -0.56773525192519 -0.64428230543054
 6  13.80606701390139  0.06630392729273  0.19120548314831
 6  15.20407222832283 -0.06573960976098 -0.47387122292229
 6  15.41611893949395 -1.58367252915292 -0.82690242574257
 6  16.24968756595660  0.36652756395640  0.48902216661666
 6  17.62418925762576  0.64848058195820 -0.19303381118112
 6  18.52025187618762  1.35265388438844  0.70144883778378
 6  19.94406430233023  1.60046567186719  0.09259201960196
 6  19.95070600010001  2.88090752195220 -1.01074748374837
 6  20.95507597319732  2.03582731883188  1.42136853755376
 1 -3.93739190679068  3.59517590189019  1.83071530983098
 1 -9.87050463546355  4.20361979847985 -0.39483815771577
 1 -10.63021136103610 -2.08634464446445 -1.28784867876788
 1 -2.74517056855686 -1.40639100320032  2.02974476917692
 1 -2.25116568416842  1.52607255835584  1.55062456085609
 1 -2.12400991689169  0.53632105380538  3.77027375267527
 1 -3.15095839613961  2.06017066066607  3.62204130533053
 1 -3.77047762716272  0.31267196949695  3.84835368106811
 1 -2.29524897879788 -1.79834371207121 -0.43986084238424
 1 -2.12600853945395 -0.04493701940194 -0.77120578127813
 1 -0.29862418581858  0.03356748264826  1.26024205470547
 1 -0.55363837673767 -1.66825600560056  1.12210932993299
 1 -4.35307996539654  5.79230736833683  0.66170930893089
 1 -5.67986920572057  7.02548766746675  1.31630722772277
 1 -4.84967674467447  5.80667051645164  2.45800686128613
 1 -7.46522662156216  7.12602963666367  0.98655996229623
 1 -9.76396178897890  6.08778676417642 -1.05823521952195
 1 -9.40220449964997  7.72602788808881 -0.45407511161116
 1 -12.16839138653865  3.62127262576258 -0.28991138973897
 1 -11.93735265756576  3.49206417111711 -2.07081429892989
 1 -13.15909330933093  2.43186880508051 -1.26345939283928
 1 -12.72668749464946 -1.22226235253525 -0.97419199299930
 1 -13.57306804910491  0.07825748714871 -1.43178685598560
 1 -12.67713222822282  0.70966798189819 -3.45599444284428
 1 -11.83342955065507 -1.01352074847485 -3.53873467016702
 1 -13.58044611781178 -0.78819617771777 -3.50079393809381
 1 -10.12978052485249 -4.44426651855185 -0.50030583448345
 1 -9.57822973317332 -4.50485749924993 -2.14109463006301
 1 -8.53373507900790 -5.69424020392039 -0.71741639513951
 1 -3.64478020532053 -3.56652400370037 -0.26558961876188
 1 -1.52288915691569 -6.14523112681268  2.41158686268627
 1 -2.36486305800580 -4.62287202620262  3.28279272957296
 1 -3.14547560296030 -6.43068006800680  3.19648116831683
 1  2.49703149494949 -1.84257099819982 -1.61484861816182
 1  2.45690753365337 -0.47766920492049 -2.18103572287229
 1  4.21738317421742 -0.83700177067707  0.42630167456746
 1  5.00343560806081  1.82549024682468 -2.52586517391739
 1  5.86363332713271  0.55399135433543 -3.04210727782778
 1  4.18320480568057  0.69145195109511 -3.01679703660366
 1  6.59407950505051  1.28284142804280 -0.23872907330733
 1  6.39293711951195 -0.16582216751675  0.69974966906691
 1  7.41292194529453 -1.43073711911191 -1.20202504860486
 1  7.58219797089709  0.07270277487749 -1.94894375207521
 1  9.22633707530753  0.76923477497750  0.19185044354435
 1  8.50630336023602 -0.81094818181818  0.69750260316032
 1  10.28629549484948 -0.16434623632363 -1.69099982288229
 1  9.19885707330733 -2.53298196099610 -1.83510273577358
 1  10.88890575157516 -2.49263093949395 -1.84449019461946
 1  10.13900234203420 -2.92866474397440 -0.20748426992699
 1  11.00574476457646  0.53147077087709  0.30157361996200
 1  11.12988055745575 -0.78216670217022  0.94703522522252
 1  12.94678118611861 -1.65441932093209 -0.74162760556056
 1  12.79789010561056 -0.10778805170517 -1.55859917841784
 1  13.77690872637264  1.18027842364236  0.26495166926693
 1  13.72799763526353 -0.54719767376738  1.15513508970897
 1  15.36082758015802  0.45607880768077 -1.51508815861586
 1  14.74081947694770 -1.92906118991899 -1.68018203870387
 1  16.46566330263027 -1.75492133163316 -1.33734512711271
 1  15.38349106670667 -2.06479609820982  0.26184888618862
 1  15.79592678427843  1.41180426912691  0.85441928552855
 1  16.20561688438844 -0.29948613951395  1.62126412321232
 1  18.07198327562756 -0.28013649224922 -0.54907959265927
 1  17.48272099749975  1.33921688478848 -1.10094739933993
 1  18.05649735563556  2.41304003170317  1.10260675567557
 1  18.62934594879488  0.87665650245025  1.60912216781678
 1  20.40352858265827  0.58412914661466 -0.45884294719472
 1  19.54742743994399  3.81021315341534 -0.53018799299930
 1  21.08058657585758  2.91751735553555 -1.35952127552755
 1  19.38003623942394  2.49499953655366 -2.10481566276628
 1  21.18401341444144  0.95293484378438  2.23966789458946
 1  21.94556839853985  2.09614773137314  0.72503440324032
 1  20.73116077877788  3.05816548704870  2.13172577697770
 1 -6.93912769526953  1.66532080408041  0.14245750255025
 1 -7.66962832943294 -0.27290216581658 -0.17715103530353

