%nproc=4
%Mem=2GB
# td=(NStates=1) B3LYP/SVP 

TD

0 1
 6 -5.14224707520752 -1.99000880688069  0.33511213631363
 6 -4.78093425162516  2.79003923292329  1.28495517161716
 6 -9.27891713531353  3.40171636793679 -0.19754437063706
 6 -9.93177502860286 -1.41121271587159 -0.84416056145615
 7 -5.16276302430243  0.48310477157716  0.78502596059606
 6 -4.56263436103610 -0.73836281988199  0.78235432103210
 6 -3.03146490019002 -0.57166765026503  1.29780302970297
 6 -3.08472262466247  0.84994011161116  1.85853035843584
 6 -4.38828378647865  1.42680972637264  1.35730764216422
 6 -2.96100259815982  0.87635593659366  3.42665252325232
 6 -1.99793513631363 -0.77414242834283  0.13179978767877
 6 -0.64809319741974 -0.79144799959996  0.62422018711871
 6  0.30022452835284 -1.11389830713071 -0.47824368156816
 8  0.11318105400540 -1.55432512241224 -1.58458091269127
 8  1.63450852605261 -0.87066348484848 -0.18247323932393
 7 -7.06690987198720  2.81256599849985  0.68530912491249
 6 -5.94881906290629  3.45939267176718  1.07142126752675
 6 -6.19494076657666  4.81286937073707  0.88404995669567
 6 -7.41892495699570  5.08803012601260  0.45887111721172
 6 -8.03008845924593  3.74486308520852  0.18586992329233
 6 -5.14326348274827  5.88574235663566  1.35322132603260
 6 -8.12719930813081  6.30274999269927  0.21172622692269
 6 -9.19966748954895  6.70352964356436 -0.50601921822182
 7 -9.23557695699570  0.92530100470047 -0.43472044744474
 6 -9.87620939833984  2.06880018171817 -0.45315412611261
 6 -11.22781901990199  1.87260089958996 -0.90967503880388
 6 -11.52016745724572  0.58191223262326 -1.05629569116912
 6 -10.19648635703570 -0.02057910731073 -0.71892537293729
 6 -12.33102729992999  2.97754032313231 -0.87420184928493
 6 -12.67307740514051 -0.27026612501250 -1.52256449144915
 6 -12.75058952855286 -0.49306395279528 -3.04459164356436
 7 -7.51980510621062 -1.20708502300230 -0.46944328942894
 6 -8.62711869736974 -2.03355997019702 -0.71001793019302
 6 -8.19704331153115 -3.40676527802780 -0.67449118761876
 6 -6.86634866306631 -3.42670855515552 -0.36341844714471
 6 -6.51552009160916 -2.08149994909491 -0.14783262916292
 6 -9.17583156825683 -4.48988238823882 -1.01808431523152
 6 -5.69545566706671 -4.24701992889289 -0.08793612401240
 8 -5.72440429652965 -5.55240174887489 -0.17165024462446
 6 -4.52661826642664 -3.33470058275828  0.35437068666867
 6 -3.95634804960496 -3.77350104530453  1.64424630993099
 8 -3.98980159185919 -3.29709066496650  2.72332279627963
 8 -3.21327384308431 -4.89678996029603  1.33135887888789
 6 -2.81052458275828 -5.60009091439144  2.59216568686869
 6  2.67059710311031 -1.12270096069607 -1.04155836113611
 6  4.05763987378738 -0.68767339073907 -0.52430904410441
 6  5.03069536973697 -0.01666261866187 -1.07990339493949
 6  4.90751126132613  0.59394323602360 -2.50782332133213
 6  6.31497520962096  0.22456508480848 -0.37034849794979
 6  7.56978120532053 -0.53307264036404 -0.90387774117412
 6  8.75452892989299 -0.26785199209921 -0.12637751765177
 6  10.16843869856986 -0.89896437903790 -0.73424440434043
 6  10.14906870027003 -2.43872903870387 -0.77973208790879
 6  11.35609628422842 -0.29924959555956  0.01346887888789
 6  12.70592917751775 -0.79062754115412 -0.56919479667967
 6  13.81027743494349  0.14206150305030  0.16607296989699
 6  15.23007482858286 -0.12795583138314 -0.39053288908891
 6  15.61887921552155 -1.52562672457246 -0.46256599209921
 6  16.32121471867187  0.69435034623462  0.40168343274327
 6  17.73898073677368  0.83598933283328 -0.30278478627863
 6  18.63971382238224  1.65950456945695  0.67932662556256
 6  20.23567346324633  1.65858148344834  0.14178693909391
 6  20.23659458895890  2.34505393659366 -1.28101451045105
 6  21.17039750535054  2.48820255635564  1.15133153385339
 1 -3.99674784238424  3.38928531283128  1.46704894319432
 1 -10.12127971297130  4.34266370287029 -0.31442011591159
 1 -10.60113845374538 -2.11663767376738 -1.09824971887189
 1 -2.64836088758876 -1.35867623172317  1.91518331303130
 1 -2.36194676227623  1.40019997109711  1.37666716511651
 1 -1.86471398729873  0.55875329702970  3.68976570187019
 1 -3.17059035933593  2.00696534013401  3.88677777897790
 1 -3.57534811421142  0.04549525182518  3.91906075177518
 1 -2.10363981788179 -1.89577345504550 -0.34874173047305
 1 -2.03477941654165  0.15014248854886 -0.44577323802380
 1 -0.43371769516952  0.31137526342634  1.08838486898690
 1 -0.21734474737474 -1.45284446444644  1.45072219121912
 1 -4.56524118151815  6.28201633923392  0.46420955895590
 1 -5.69405062386239  6.76509162786279  2.01357695469547
 1 -4.36698847584758  5.32478232763276  2.20735179577958
 1 -7.60692079097910  7.03444047774777  0.88085939223922
 1 -9.62759815261526  5.88421640714071 -1.20366976297630
 1 -9.63270754995500  7.70529581488149 -0.67709741384138
 1 -12.61970651805180  3.46148664716472  0.18552615401540
 1 -12.08960788308831  3.86657162186219 -1.65813303080308
 1 -13.33244064406441  2.60156577477748 -1.25398844574458
 1 -12.58744357025703 -1.25631575787579 -0.87691226502650
 1 -13.61144188648865  0.26222588398840 -1.11296497379738
 1 -12.92885740074007  0.40667768286829 -3.59426827022702
 1 -11.66442264996500 -0.89544894129413 -3.39188998569857
 1 -13.57549562276228 -1.19299665776578 -3.33106696539654
 1 -9.96745429222922 -4.57613970587059 -0.39204500840084
 1 -9.46634854505450 -4.57948496199620 -2.16192671327133
 1 -8.63487519301930 -5.61543232313231 -0.88465311881188
 1 -3.73908963626363 -3.25750310161016 -0.35516857665767
 1 -2.39170603860386 -6.71246785048505  2.13421912591259
 1 -2.08077464916492 -4.94854459345935  3.09549399969997
 1 -3.87735879127913 -5.81658865886589  3.28016953715372
 1  2.59613140494049 -2.34699144024402 -1.23357049034903
 1  2.41711355425543 -0.72882432043204 -2.10257787708771
 1  4.09416085198520 -0.89991806230623  0.66608565296530
 1  4.92315758025803  1.75328302610261 -2.46074866226623
 1  5.87754471827183  0.32300825602560 -3.29595266236624
 1  3.85417190239024  0.56773957985799 -2.97399275617562
 1  6.48304840194019  1.38830197409741 -0.36595179557956
 1  5.88897672347235 -0.22822840814081  0.67190688478848
 1  7.37174782788279 -1.59391343674367 -0.80630547664766
 1  7.67408715981598 -0.18115261066107 -1.96487534523452
 1  9.02636707830783  0.84372222372237 -0.05425416691669
 1  8.66277900780078 -0.70800788778878  0.88471132403240
 1  10.04051091639164 -0.45406520822082 -1.86455717861786
 1  9.21882907050705 -2.84279294209421 -1.23109233473347
 1  10.99645650665067 -2.76582825922592 -1.20608635423542
 1  9.96661510331033 -2.75522740024002  0.22526900540054
 1  11.19943413351335  0.75021264506451  0.01541500410041
 1  11.38443601300130 -0.54452293779378  1.14666518821882
 1  12.87409391739174 -1.87015089408941 -0.21300474327433
 1  12.60470078667867 -0.69702697559756 -1.70814413291329
 1  13.74408544404440  1.19408980478048  0.16455162926293
 1  13.95680051555156 -0.23131608560856  1.26027560376038
 1  15.36200769816982  0.27689088888889 -1.50116676647665
 1  14.93353874887489 -2.24093237703770 -0.86751077157716
 1  16.64714145044504 -1.66098193769377 -0.66591798439844
 1  15.40229294689469 -1.75817543614361  0.54042674397440
 1  15.87226441804180  1.67149023772377  0.69402324592459
 1  16.40271659435944 -0.15642183308331  1.29657165396540
 1  18.13201927922792 -0.10127860646065 -0.49814449914992
 1  17.67494021942194  1.41035399849985 -1.13259056365637
 1  18.27695940184018  2.65778450615062  0.65860235523552
 1  18.78224123832383  1.35887472427243  1.71318257385739
 1  20.61357958775878  0.59965069876988 -0.02046910981098
 1  19.97702039923993  3.49978211031103 -1.06638161236124
 1  21.19417793499350  2.29100470427043 -1.74738006140614
 1  19.50210844664467  1.75563560016002 -2.11867704890489
 1  21.07272228532853  2.17698724902490  2.22349627742774
 1  22.25193903560356  2.41890000660066  0.99090098989899
 1  20.75780344304431  3.58335800630063  1.19082168656866
 1 -7.02298608110811  1.79902417441744  0.53353661046105
 1 -7.73434480108011 -0.30632550815081  0.08114479427943

