%nproc=4
%Mem=2GB
# td=(NStates=1) B3LYP/SVP 

TD

0 1
 6 -5.01017386788679 -1.94519432543254  0.51273989908991
 6 -4.80480663886389  2.82700292929293  1.28637531363136
 6 -9.46181542514251  3.24632082838284 -0.10933554975498
 6 -9.80514236533653 -1.48514010861086 -0.90575672107211
 7 -5.24683143114311  0.46350281138114  0.83317077507751
 6 -4.44164226182618 -0.76744572817282  0.86535262086209
 6 -3.01857361106111 -0.48922940644064  1.33078632803280
 6 -3.21771592399240  0.92555767336734  1.75782028742874
 6 -4.48643360146015  1.39096614201420  1.28570048144814
 6 -3.02016851475148  1.25173347434743  3.34020387838784
 6 -2.09023436623662 -0.70080509460946  0.25283189088909
 6 -0.51779016711671 -0.56774562936294  0.54344210931093
 6  0.30634514041404 -0.85796271357136 -0.68560441764176
 8  0.04940467636764 -1.22714240414041 -1.74608706330633
 8  1.57311238643864 -0.61487790629063 -0.26003099509951
 7 -7.02970615161516  2.77019176107611  0.36954754875488
 6 -5.93018719971997  3.49993672617262  0.96790091549155
 6 -6.32754402690269  4.83015109890989  0.99186073777378
 6 -7.50103316781678  5.00276159915992  0.52743797389739
 6 -8.11065651605161  3.70003860276028  0.19780111641164
 6 -5.33303245964596  5.77717149954996  1.51023702760276
 6 -8.22491908010801  6.30672038973897  0.43341839613961
 6 -9.22538006080608  6.51223051365137 -0.44773338963896
 7 -9.26445984528453  0.84290276487649 -0.44136111151115
 6 -9.93303508090809  2.01934523622362 -0.50570938163816
 6 -11.32884912291229  1.76411005050505 -0.82886695799580
 6 -11.48499393989399  0.36284032543254 -1.01996205780578
 6 -10.04010071847185 -0.07597464686469 -0.85233871427143
 6 -12.32787698489849  2.84279684878488 -1.03452788188819
 6 -12.55604570197020 -0.40383948234823 -1.64399663466347
 6 -12.39087355695570 -0.76978162456246 -3.08822600700070
 7 -7.46632975867587 -1.23929824432443 -0.16291263636364
 6 -8.53332931843184 -2.06693330753075 -0.49396632503250
 6 -8.10717432463246 -3.40124472597260 -0.59500323882388
 6 -6.79372140034003 -3.44426031033103 -0.17086919221922
 6 -6.43212175177518 -2.08748054715472  0.15962811691169
 6 -9.00280426552655 -4.58524192419242 -1.11740424722472
 6 -5.66863298479848 -4.29940516741674  0.03888655825583
 8 -5.60225208130813 -5.49908641734173 -0.16292937253725
 6 -4.44329993459346 -3.34075118781878  0.40534578417842
 6 -3.78026044084408 -3.78612230743074  1.80730261556156
 8 -4.11910452215221 -3.32109306520652  2.85062552655266
 8 -2.91288380408041 -4.71712199349935  1.61658740174017
 6 -2.43545707600760 -5.41462236753675  2.69089555985599
 6  2.56706675007501 -0.83058174877488 -1.28161236653665
 6  3.93240735053505 -0.32452707610761 -0.74122073527353
 6  5.00350265046505  0.24497354495450 -1.35135053965397
 6  4.99648015821582  0.76095993769377 -2.76498903790379
 6  6.19626333843384  0.40666329462946 -0.53677514061406
 6  7.40469469666967 -0.34346367946795 -1.17426477987799
 6  8.83865734273427 -0.22264747164716 -0.41917679757976
 6  10.05928778347835 -0.79759424202420 -0.98512949284928
 6  9.98705249864986 -2.30656582238224 -0.99431354605461
 6  11.34091476607661 -0.28687835843584 -0.20163263126313
 6  12.63566215081508 -0.65680415881588 -0.63370124732473
 6  13.83675008220822 -0.18516121922192  0.17989435203520
 6  15.32997481858186 -0.34453748954895 -0.49076291209121
 6  15.66562388998900 -1.81164532643264 -0.63180291579158
 6  16.31537413461346  0.30670158135814  0.56689995439544
 6  17.68121496019602  0.60385611951195 -0.10655516331633
 6  18.59020887188719  1.37364598359836  0.85062375527553
 6  20.01307120302030  1.59970559585959  0.42578533893389
 6  20.08120905040504  2.29329876107611 -0.94353076207621
 6  20.88959942554256  2.18161189728973  1.47584398509851
 1 -3.78416658425843  3.20929731403140  1.79997223552355
 1 -10.05001258625862  4.01251068756876 -0.23592226612661
 1 -10.66618495839584 -2.31703771377138 -0.99521941584158
 1 -2.67658370987099 -1.13514387848785  2.33208500320032
 1 -2.37123769136914  1.68270822192219  1.31614111251125
 1 -2.16113362926293  0.62412983468347  3.57204392969297
 1 -2.92853615391539  2.23612825642564  3.49371847304730
 1 -3.84527510691069  0.65270597289729  3.96877572327233
 1 -2.23571302520252 -1.59690356805681 -0.21014787108711
 1 -2.37737367596760  0.16284375867587 -0.49399806050605
 1 -0.15822014541454  0.29219334523452  1.09066509700970
 1 -0.47190020292029 -1.35137431743174  1.42544966396640
 1 -4.47494215161516  5.90339847744774  0.98806194419442
 1 -5.79126034483448  6.84410952965297  1.80783638063806
 1 -4.72796457345734  5.46396624602460  2.40125118571857
 1 -7.77450754965497  7.00941797549755  1.12643394969497
 1 -9.40914630743074  5.82091007650765 -1.24048344434443
 1 -9.89231351055106  7.55296058135814 -0.38303800790079
 1 -12.53752830023002  3.43932443094309  0.03397099849985
 1 -11.97713663596360  3.65143010771077 -1.71449866736674
 1 -13.25171257125713  2.55702132033203 -1.62819586648665
 1 -12.73346817271727 -1.13880400670067 -0.99433400720072
 1 -13.42928367066707  0.07904756615662 -1.43870754805481
 1 -12.41317583258326  0.18873588868887 -3.68510735413541
 1 -11.51375758345835 -1.22202159855986 -3.26861765846585
 1 -13.12296036923692 -1.40747810591059 -3.39126298499850
 1 -9.90077762456246 -4.54166625852585 -0.52771857575758
 1 -9.38563047324732 -4.62606962046205 -2.26813733433343
 1 -8.59302100760076 -5.57634841474147 -0.89972462596260
 1 -3.79972569986999 -3.58271562286229 -0.37930098989899
 1 -1.59858672667267 -6.06970357405741  2.30777648164816
 1 -2.03378995069507 -4.83243298229823  3.48608305860586
 1 -3.27692874827483 -6.21820882088209  3.21897341754175
 1  2.47770956275628 -1.72528927002700 -1.50047718101810
 1  2.44371621452145 -0.23696513451345 -2.05211283058306
 1  4.33234467036704 -0.77224529502950  0.18847789218922
 1  5.25067033153315  1.79342704050405 -2.84504709210921
 1  5.69670663446345  0.05000095529553 -3.34448751585159
 1  4.04277076227623  0.63443624952495 -3.32264762166217
 1  6.51968206530653  1.39493263716372 -0.21128632903290
 1  6.17614544034403 -0.05827141244124  0.49971966606661
 1  7.11200185328533 -1.42683672907291 -1.25900074617462
 1  7.61856160726073 -0.19217371277128 -2.12565142284228
 1  8.95306974857486  0.90876872837284 -0.42670141164116
 1  8.56912964286429 -0.71254834183418  0.60100295319532
 1  10.10962782808281 -0.41500130183018 -1.98559928282828
 1  8.96787397499750 -2.49547821062106 -1.22634185968597
 1  10.80797765876588 -2.84702637903790 -1.46341208680868
 1  10.07964640644065 -2.82394427192719  0.04535101360136
 1  11.25797998809881  0.95740336413641 -0.08840537793779
 1  11.18539610901090 -0.73458194369437  0.94419494119412
 1  12.62237874587459 -1.82760663966397 -1.19962340514051
 1  12.86591690829083  0.06926965406541 -1.53485680418042
 1  13.86212724822482  0.77782817861786  0.53121829592959
 1  13.74064890039004 -0.63666662066207  1.08319789598960
 1  15.39521101850185  0.17122032183218 -1.36303295309531
 1  14.82887828282828 -2.33414169796980 -1.30875489598960
 1  16.63039977627763 -2.03785962546255 -1.09099049164916
 1  15.66267898549855 -2.39437905650565  0.28430113141314
 1  15.86736392799280  1.30574366306631  0.82741658525853
 1  16.51858818151815 -0.43112930383038  1.40935293209321
 1  18.11965804310431 -0.42136061466147 -0.29896458115812
 1  17.43981670707071  1.15384834793479 -1.02959026362636
 1  18.07571927782778  2.41212994069407  0.96993348834884
 1  18.52453546774678  1.02325116191619  1.92511376697670
 1  20.33092132193219  0.40601133483348  0.21231416851685
 1  19.31114381158116  3.10146227832783 -0.87842281648165
 1  21.26756527372737  2.99227483128313 -1.20944626802680
 1  20.01255949174918  1.44733477007701 -1.82940812201220
 1  20.96486149924992  1.62224177447745  2.37742166996700
 1  21.82913675537554  2.31297941454145  1.23500540034003
 1  20.50262792549255  3.27309698019802  1.78591119551955
 1 -7.06552033453345  1.73846811881188  0.05539879667967
 1 -7.59951131773177 -0.26463133873387 -0.09321264146415

