%nproc=4
%Mem=2GB
# td=(NStates=1) B3LYP/SVP 

TD

0 1
 6 -5.13604645514551 -1.91702150815082  0.41145977107711
 6 -4.71363752195220  2.79363959295930  1.25255193129313
 6 -9.36863610721072  3.28813500980098 -0.12057667386739
 6 -9.86376822792279 -1.42430402500250 -0.94478062346235
 7 -5.20748749674968  0.44308076917692  0.84084154215422
 6 -4.52672076967697 -0.70615959955996  0.82440852645265
 6 -3.00821257495750 -0.54427491099110  1.20319356875688
 6 -3.04684883728373  0.97458257585759  1.73190769616962
 6 -4.43872883098310  1.48141518691869  1.30464237563756
 6 -2.92499899779978  0.89429773077308  3.26299615761576
 6 -2.07080242304230 -0.88373338743874  0.00640724842484
 6 -0.56187457555756 -0.83665252005201  0.37654541964196
 6  0.33605811171117 -1.05090200750075 -0.77976383358336
 8  0.12627236313631 -1.46674636453645 -1.90308276287629
 8  1.61261633683368 -0.70064648314832 -0.41727671967197
 7 -7.01272445344534  2.85586032793279  0.48314890889089
 6 -5.89258343934393  3.51003773627363  0.88570269566957
 6 -6.13604487698770  4.94229231303130  0.89407095879588
 6 -7.48252131663166  5.01468279127913  0.44445967606761
 6 -8.05928137853786  3.78903750265026  0.25891722802280
 6 -5.14509366576658  5.95925970837084  1.21516752065206
 6 -8.22931952015201  6.28880859855986  0.42963801810181
 6 -9.24972249504951  6.62596188678868 -0.36306492279228
 7 -9.21170456975698  0.88065654025403 -0.53269024442444
 6 -9.88978075547555  2.03390669236924 -0.49895870657066
 6 -11.31787802580258  1.86294993449345 -0.71182525382538
 6 -11.43163860436044  0.51240528192819 -0.97621768336834
 6 -10.09261596999700 -0.08108515791579 -0.87097057745775
 6 -12.40388458565856  2.88103067216722 -0.74216864596460
 6 -12.59467956535654 -0.31825092349235 -1.47783001800180
 6 -12.59025349494950 -0.53170781718172 -2.98092527692769
 7 -7.49061218691869 -1.27358167266727 -0.31108745384538
 6 -8.60302628812881 -1.99637625182518 -0.65980290869087
 6 -8.21732533973397 -3.45346994849485 -0.72701644014401
 6 -6.85978800700070 -3.40155603990399 -0.23685579087909
 6 -6.45116365596560 -2.07178897799780 -0.06776462236224
 6 -9.03719770487049 -4.58167156715672 -1.08148065486549
 6 -5.67289341084108 -4.32373760066007 -0.03273060346035
 8 -5.52238409450945 -5.49997650635064 -0.12270535013501
 6 -4.43461906650665 -3.27075418811881  0.39298454805481
 6 -3.76305872067207 -3.82797649284928  1.70751263656366
 8 -4.04502711441144 -3.48463941984198  2.84206467046705
 8 -3.04671718741874 -4.82077235853585  1.54524026702670
 6 -2.42786631693169 -5.47688859415942  2.62830930123012
 6  2.79605964936494 -1.05744443504350 -1.36331053635364
 6  4.07800190999100 -0.79933455685569 -0.63379999319932
 6  4.99184148434843  0.12890193779378 -1.05260066466647
 6  5.00107061726173  0.88803264496450 -2.34465700470047
 6  6.22565627772777  0.17201983028303 -0.15901736483648
 6  7.59338356555656 -0.31930126322632 -0.91800915431543
 6  8.79311278827883 -0.27169237613761 -0.12337721762176
 6  10.17615947064706 -0.67344182678268 -0.73165414531453
 6  10.00976476987699 -2.24178934473447 -0.88493260796080
 6  11.19558023262326 -0.29504917551755  0.19510704270427
 6  12.57905649024902 -0.56888536693669 -0.33072094929493
 6  13.78885529272927 -0.01427413051305  0.49467583018302
 6  15.21467328842884 -0.24810784658466 -0.23204704050405
 6  15.49282661026103 -1.74298846074607 -0.34074380988099
 6  16.21198379557956  0.48952986418642  0.58098136253625
 6  17.46361320002000  0.63902963686369 -0.22420692849285
 6  18.50445029602960  1.51745036403640  0.67039573247325
 6  19.94962485838584  1.53979960526053  0.02260502090209
 6  19.98673960346035  2.32891232243224 -1.35030143914391
 6  20.92042250785078  2.27485122122212  0.92750915161516
 1 -3.78866703430343  3.38785516981698  1.39197143544354
 1 -10.02630021502150  4.14875431193119 -0.23031170507051
 1 -10.48524686458646 -2.22828883888389 -1.37740763466347
 1 -2.68860491199120 -1.43574393849385  1.91578337303730
 1 -2.16294686228623  1.74043399449945  1.22360185858586
 1 -1.89190670657066  0.63272069376938  3.50146687198720
 1 -3.00234353465347  2.03117776137614  3.68134723592359
 1 -3.52566314571457  0.16606730903090  3.83820266596660
 1 -2.19614906880688 -1.87495137283728 -0.51349820612061
 1 -2.21743768236824 -0.15341786748675 -0.56294495519552
 1 -0.09175349874987  0.24367849374938  0.70893692419242
 1 -0.04714772767277 -1.50256943694369  1.17648476747675
 1 -4.22473713111311  5.85354349194919  0.56942008000800
 1 -5.69541075987599  6.95100021872187  1.04634023102310
 1 -4.76983876087609  5.74655450485048  2.22158321892189
 1 -7.93540363926393  7.16101313501350  1.01801310761076
 1 -9.63605899869987  6.07161514701470 -1.15302469846985
 1 -9.54294857405741  7.70719600490049 -0.44121382548255
 1 -12.56149069646965  3.47437793629363  0.14681228262826
 1 -11.98445736803681  3.53930889558956 -1.57718493599360
 1 -13.44123152315232  2.49282490069007 -0.98425147204720
 1 -12.84868969486949 -1.23460358665867 -0.71766634043404
 1 -13.44118486078608  0.46279594099410 -1.20206388368837
 1 -12.67695221022102  0.40463747884789 -3.60219906330633
 1 -11.66138234593459 -0.90969036543654 -3.53540433713371
 1 -13.55524359755976 -1.09554691279128 -3.18539239793979
 1 -9.83260080688069 -4.73502559445944 -0.20136594049405
 1 -9.56488839903990 -4.46378339183918 -2.03326384698470
 1 -8.50079178467847 -5.43946472637264 -1.24370902440244
 1 -3.70669639693969 -3.32578993029303 -0.44963802360236
 1 -1.83688055605561 -6.43909051275128  2.42957866186619
 1 -1.72176874857486 -4.69775951495149  3.04473892419242
 1 -3.22878393379338 -5.64882188218822  3.44011553175318
 1  2.68051984378438 -2.18799554065407 -1.36767390069007
 1  2.54526636953695 -0.62371380938094 -2.35191281058106
 1  4.14350578647865 -1.19168723922392  0.37106615101510
 1  5.10550581508151  1.84483218101810 -1.99481206860686
 1  5.64800176397640  0.61922787798780 -3.09743281038104
 1  4.00404688988899  1.11492429832983 -2.73134849174918
 1  6.51172126922692  1.26409955385539 -0.00555575597560
 1  6.13481130693069 -0.34332991829183  0.88811850595059
 1  7.33091374447445 -1.32981702710271 -1.31395624172417
 1  7.90178993009301  0.29104460906091 -1.75029388708871
 1  9.00205464706471  0.99351720322032  0.24230548904890
 1  8.89953268316832 -0.53921100810081  0.91045389828983
 1  10.26420328562856 -0.31000080178018 -1.73181390429043
 1  9.06044323192319 -2.30032869566957 -1.39105833133313
 1  10.86106296729673 -2.83872554895490 -1.29257500310031
 1  9.72586102790279 -2.68963084058406  0.26453293179318
 1  11.10349453955395  0.81809943374337  0.32501596419642
 1  11.13910147954796 -0.75385387088709  1.30702122382238
 1  12.74736124412441 -1.61300517951795 -0.38439188198820
 1  12.57897821442144 -0.18417569046905 -1.38708202670267
 1  13.46570760626063  1.05567596339634  0.53771894599460
 1  13.72104694019402 -0.33317627162716  1.48787836403640
 1  15.11686318371837  0.17648084788479 -1.12011866166617
 1  14.86480187518752 -2.26880516431643 -0.89548356885689
 1  16.37928466476648 -1.85613145264526 -0.89760115271527
 1  15.81115383298330 -2.32016163476348  0.45751845314531
 1  16.06022321392139  1.60031312001200  0.90570441404140
 1  16.46164248694869 -0.00145633653365  1.57469946674667
 1  17.92739881718172 -0.41862034063406 -0.54646933163316
 1  17.39385211061106  1.32470543364336 -1.23340064466447
 1  18.05591729762977  2.33902262996300  0.83559005400540
 1  18.66662967716772  1.06226506330633  1.77734899049905
 1  20.29686791659166  0.60875160886089 -0.17963502640264
 1  19.77420011721172  3.40576270837084 -1.05146012021202
 1  20.92915143234323  2.19075467926793 -1.98617394079408
 1  19.00357859365937  1.95473551015102 -2.03007818901890
 1  20.82021703480348  2.04905445574557  1.78828275607561
 1  21.85070891259126  2.38642675927593  0.54058595839584
 1  20.58376603930393  3.23499316981698  1.18049065346535
 1 -6.97278106060606  1.83113738573857  0.35257851465147
 1 -7.42776414301430 -0.25906078167817 -0.29835315551555

