%nproc=4
%Mem=2GB
# td=(NStates=1) B3LYP/SVP 

TD

0 1
 6 -5.12005485598560 -1.90228003400340  0.41723034813481
 6 -4.71263742194219  2.72190241924192  1.51934861096110
 6 -9.31705094869487  3.37281347764776 -0.30256487268727
 6 -9.84765661676168 -1.43075467006701 -1.05031117651765
 7 -5.16062281028103  0.40751721282128  0.89354681268127
 6 -4.55474357195720 -0.75106409000900  0.96244232983298
 6 -3.05571732543254 -0.57256774027403  1.47123037243724
 6 -3.04427858025803  0.87122223982398  2.14351885728573
 6 -4.42556751485149  1.41752879827983  1.43550546194619
 6 -3.16114261216122  0.72643094409441  3.64885474347435
 6 -2.06588193099310 -0.70574558865887  0.34436104380438
 6 -0.66439482758276 -0.86112496729673  0.69985775087509
 6  0.35566007190719 -1.11187810511051 -0.43086894409441
 8 -0.00614087818782 -1.41551124102410 -1.52077453205321
 8  1.62487756295630 -0.91510792929293 -0.03302829482948
 7 -7.00431361236124  2.84332907480748  0.43664425842584
 6 -5.87733191419142  3.39558629112911  1.03213733913391
 6 -6.25174644714471  4.79505758955896  1.03265481718172
 6 -7.50852391689169  4.97277860086009  0.53185841594159
 6 -8.02158760916092  3.59352795169517  0.13198453475348
 6 -5.22600175657566  5.81157493989399  1.64690069396940
 6 -8.09259584778478  6.27309702740274  0.33040809510951
 6 -8.91655917871787  6.68593788438844 -0.65016363266327
 7 -9.17148054735473  0.84489296389639 -0.60796777217722
 6 -9.83650542794279  2.05532883458346 -0.52650146084608
 6 -11.21198743674367  1.90270390989099 -1.08072214351435
 6 -11.32791823232323  0.52612665406541 -1.29458952055206
 6 -10.02113882228223 -0.04221127052705 -1.02011549194920
 6 -12.21323552075208  2.96644921402140 -1.18188261736174
 6 -12.51400149754975 -0.18822792119212 -1.76329856485649
 6 -12.68000246984698 -0.31219586598660 -3.20424760916092
 7 -7.49152227792779 -1.16584089858986 -0.25697204230423
 6 -8.56450243574357 -1.95650226442644 -0.73916084448445
 6 -8.14923853105310 -3.39162376387639 -0.66550028852885
 6 -6.81885391359136 -3.36564244854485 -0.35771787708771
 6 -6.43483202280228 -1.95900769986999 -0.04728257415742
 6 -8.97672165726573 -4.62182558255826 -1.09309181598160
 6 -5.75824194569457 -4.25935116201620 -0.01618894929493
 8 -5.72826468256826 -5.46733324202420 -0.26422950255025
 6 -4.43639924452445 -3.36304341704170  0.36579182878288
 6 -3.80250266506651 -3.86536023122312  1.68175006030603
 8 -4.11212382408241 -3.48564952085209  2.77290775477548
 8 -3.10721323702370 -4.85528580988099  1.41170691369137
 6 -2.59030256055606 -5.75304620992099  2.57571404170417
 6  2.68618866226623 -1.04829351995200 -1.06980118541854
 6  3.94545865566557 -0.59819444284428 -0.42305891909191
 6  4.91812411261126  0.08535758335834 -1.11366677127713
 6  4.96845735593559  0.58605244694469 -2.56926946594659
 6  6.16559027112711  0.48273090139014 -0.24071553465347
 6  7.45824005120512 -0.31056038913891 -0.72177953135313
 6  8.71590506750675  0.01520631373137 -0.04633951385138
 6  10.00493234793479 -0.66564104670467 -0.66469744964496
 6  9.89741353475348 -2.22175734153415 -0.71540565526553
 6  11.20769144374437 -0.20943061366137  0.09742727472747
 6  12.63475205980598 -0.61015949434943 -0.45463334053405
 6  13.78745515271527  0.13552084898490  0.28645500810081
 6  15.20171199229923 -0.23858689448945 -0.29426326212621
 6  15.59434676227623 -1.70594475637564 -0.41997173267327
 6  16.24571716891689  0.55067597879788  0.40239350375038
 6  17.65401223992399  0.60746648054805 -0.21864637243724
 6  18.62461231223122  1.64359297829783  0.45282397529753
 6  20.09170906680668  1.66907253255326 -0.14603184278428
 6  20.19235016451645  1.97352678387839 -1.60581699069907
 6  21.08304877047705  2.45892962906291  0.68041444214421
 1 -3.83616178377838  3.20295667996800  1.99764200250025
 1 -9.95510309530953  4.10251968846885 -0.33643231713171
 1 -10.61666000590059 -2.14878088808881 -1.39949984388439
 1 -2.85245129662966 -1.21904226832683  2.20500229492949
 1 -1.93338390599060  1.30491044214421  1.98956845524553
 1 -2.20831834773477  0.46489391109111  4.09920664596460
 1 -3.39847314761476  1.56598124172417  3.95839494069407
 1 -4.04304488388839 -0.08936823452345  3.76915576127613
 1 -2.26626608050805 -1.56703058075808 -0.40772762906291
 1 -2.24024996359636  0.05550302460246 -0.41290995169517
 1 -0.13358768216822 -0.16146202030203  1.41202723322332
 1 -0.59820283318332 -1.84869404940494  1.35144226322632
 1 -4.16415107250725  5.58410654825482  1.17535067306731
 1 -5.74292551135113  6.86345146384638  1.30927652465247
 1 -5.26513829082908  5.73692354175417  2.73711477207721
 1 -7.86438653755376  6.95967300100010  1.15621692799280
 1 -9.32934832763276  6.12952093759376 -1.59849924592459
 1 -9.31605588478848  7.73450873617362 -0.51207091119112
 1 -12.39002354975498  3.32078257675768 -0.11094349294929
 1 -12.01036995929593  3.90637560226023 -1.63858107560756
 1 -13.06331373137314  2.43988960716072 -1.57215026192619
 1 -12.48742356825683 -1.30699082538254 -1.28960353415342
 1 -13.42802354465447  0.18740840224022 -1.29335301260126
 1 -12.99314382938294  0.54829184428443 -3.88225706910691
 1 -11.85963217091709 -0.81700109650965 -3.73822461916192
 1 -13.54867294049405 -1.07610496859686 -3.51992585128513
 1 -10.13240078687869 -4.39564165606561 -0.67146295019502
 1 -8.95357726792679 -4.78105511901190 -2.24361488208821
 1 -8.66862856835684 -5.63230401030103 -0.53361801530153
 1 -3.74276000330033 -3.47695504680468 -0.61966502630263
 1 -2.00937780578058 -6.66878348204820  2.24740044404440
 1 -2.10062663436344 -5.17478721772177  3.20736518681868
 1 -3.56459751515152 -5.92125912591259  3.08739025922592
 1  2.82455424722472 -2.10247698879888 -1.40247738103810
 1  2.28298014091409 -0.52210364836484 -2.06493411271127
 1  4.12775421132113 -1.19030710121012  0.56534557895790
 1  5.41424668916892  1.70680837863786 -2.58890147754775
 1  5.70993795759576 -0.23695774057406 -3.12165523262326
 1  4.04240072527253  0.61809461536154 -2.93438879577958
 1  6.53643374047405  1.50261340524052 -0.39822502290229
 1  6.11770959675968  0.31078549324932  0.72048174227423
 1  7.21064171727173 -1.44948899429943 -0.86908175427543
 1  7.32527227832783 -0.02194669006901 -1.80172903060306
 1  8.80441488308831  0.98117596909691  0.09313057155716
 1  8.67853058295830 -0.43237032403240  0.88072092499250
 1  10.12149901520152 -0.16176597829783 -1.72645336823682
 1  9.04365155275528 -2.66235489828983 -1.14334355985599
 1  10.94103096409641 -2.65307698409841 -0.98645439103910
 1  9.96451489328933 -2.63803568106811  0.33490996949695
 1  11.17908209830983  0.88735635943594  0.31934539713971
 1  10.92017958735874 -0.60910939643964  1.11946246794680
 1  12.79847635563556 -1.77638151715172 -0.47608105090509
 1  12.56578689528953 -0.19815708860886 -1.41608492699270
 1  13.65433646914691  1.34668506430643  0.16806198029803
 1  13.68576341184118 -0.41034398839884  1.22001157735774
 1  15.15210670807081  0.12285548534853 -1.35340198999900
 1  14.80020541554155 -2.25225350915092 -1.07397141764177
 1  16.62319905620562 -1.69198503800380 -0.76431782438244
 1  15.52946566416642 -1.98951857045705  0.66618932023202
 1  16.09513670527053  1.67730081878188  0.80230407400740
 1  16.37573389608961  0.25348915801580  1.33395539233923
 1  18.09003508080808 -0.48335681428143 -0.04491917661766
 1  17.49651237663766  0.84282724582458 -1.23428073267327
 1  18.24179588548855  2.80412914061406  0.25589208420842
 1  18.54151716591659  1.38838767556756  1.61887314291429
 1  20.11195942574258  0.62071280498050  0.09599253635364
 1  19.99181187838784  3.06853898599860 -1.47287226142614
 1  21.27107562476247  1.84419002280228 -1.98814413781378
 1  19.23663189898990  1.53813384998500 -2.16113129432943
 1  20.95921093419342  2.23679322962296  1.84930885868587
 1  22.01222506420642  2.45086320292029  0.33191509130913
 1  20.90160782348235  3.61527119761976  0.65087769216922
 1 -6.93263704620462  1.85275954795480  0.34246750355036
 1 -7.71642300890089 -0.29732460806081 -0.02356567676768

