%nproc=4
%Mem=2GB
# td=(NStates=1) B3LYP/SVP 

TD

0 1
 6 -5.10952380288029 -1.98023782978298  0.44722334743474
 6 -4.78630478867887  2.76361659065907  1.30257693379338
 6 -9.36799604320432  3.20500669696970 -0.27040165636564
 6 -9.73397524862486 -1.54485608020802 -0.87668381378138
 7 -5.18674542254225  0.44431089218922  0.83290074807481
 6 -4.45587368496850 -0.70054903850385  0.77926401200120
 6 -2.96777853155316 -0.48738922242224  1.16396964636464
 6 -3.08651280368037  0.95278039563956  1.91438594399440
 6 -4.34005896399640  1.45078212361236  1.40098200960096
 6 -3.09758625652565  0.77274557555756  3.40736059405941
 6 -2.06777212001200 -0.54134914901490 -0.08213160546055
 6 -0.57980636873687 -0.67040589538954  0.37491525662566
 6  0.32810731663166 -0.71035795309531 -0.85233109030903
 8 -0.03610387448745 -1.08639832973297 -1.99140159475948
 8  1.65212028722872 -0.60312673117312 -0.43538853085309
 7 -7.05839902090209  2.73872861476148  0.47818841284128
 6 -5.94782896389639  3.39181591409141  0.89063318871887
 6 -6.38016928942894  4.79726781058106  0.94736628832883
 6 -7.64059712421242  4.99947127012701  0.49128435853585
 6 -8.13445889628963  3.62144074297430  0.10462179847985
 6 -5.50320947734773  5.85869965236524  1.57804380828083
 6 -8.17924451265126  6.27434715241524  0.28337339163916
 6 -9.26233375617562  6.59127841844184 -0.55270388668867
 7 -9.23445684498450  0.81117959255926 -0.48662563796380
 6 -9.96502828022802  1.98922222392239 -0.49562837353735
 6 -11.40544678267827  1.73982762226223 -0.82531660296030
 6 -11.50415585608561  0.35115915731573 -1.05008507010701
 6 -10.03599030743074 -0.15507255665567 -0.83001648204820
 6 -12.47421161836184  2.80404297339734 -0.73263769286929
 6 -12.66831692909291 -0.35280437883788 -1.41144337933793
 6 -12.78530299989999 -0.73871851825183 -2.92667985238524
 7 -7.49235236093609 -1.35583989848985 -0.32359870497050
 6 -8.58492447794779 -2.12376899109911 -0.52382931133113
 6 -8.16107971517152 -3.43780838233823 -0.55828956745675
 6 -6.76597862606261 -3.49579546384639 -0.29408151345135
 6 -6.36186472607261 -2.15325712481248 -0.00936878277828
 6 -8.95927991309131 -4.75763916391639 -0.93855636243624
 6 -5.58402452395240 -4.37941316821682  0.10878354795480
 8 -5.57757961406141 -5.55211171987199 -0.03682676227623
 6 -4.42870847544754 -3.25825293799380  0.34522977257726
 6 -3.80263267806781 -3.69524321952195  1.68059994529453
 8 -4.26777938963896 -3.23708466436644  2.76869733373337
 8 -2.85702821852185 -4.70566084738474  1.62568831183118
 6 -2.22484601490149 -5.13090399569957  2.77125359565957
 6  2.70347039043904 -0.79128781938194 -1.29215342064206
 6  4.01678578837884 -0.42129675307531 -0.66692330553055
 6  5.00623292349235  0.31624067166717 -1.19219462406241
 6  4.91668217841784  1.08328216991699 -2.54072661166117
 6  6.28815252735273  0.44617724602460 -0.42965442854285
 6  7.57670189738974 -0.13052238533853 -1.16311366476648
 6  8.82623610061006 -0.11531673857386 -0.27539241914191
 6  10.03913576827683 -0.65780026262626 -0.85847682758276
 6  9.99097289068907 -2.20623578937894 -0.95411952665267
 6  11.26054672927293 -0.40255992659266  0.01999953195320
 6  12.68636722132213 -0.56332481088109 -0.64651252845285
 6  13.72664907210721 -0.09445214831483  0.34901126372637
 6  15.20433225432543 -0.24930796659666 -0.28642247804780
 6  15.46304363196320 -1.65806996889689 -0.46580631613161
 6  16.31733433063307  0.40005091629163  0.60336360076008
 6  17.69315615431543  0.34033976787679  0.07027251945195
 6  18.74444429542954  1.19388800780078  0.83887258015802
 6  20.11557145304531  1.30791641694169  0.24224698509851
 6  20.17773870337034  2.03791322252225 -1.14098050705071
 6  21.20890135573557  1.98400213631363  1.25247164786479
 1 -4.04130229782978  3.60231661596160  1.63268550685069
 1 -10.06744432943294  4.10261969846985 -0.25049372327233
 1 -10.50508884878488 -2.32012802280228 -1.18623851775178
 1 -2.53214926642664 -1.15440580468047  1.84441623632363
 1 -2.15191575917592  1.76132608370837  1.45883538193819
 1 -2.00303781968197  0.13133055475547  3.43235996129613
 1 -3.02675597589759  1.79616426002600  3.96186528772877
 1 -3.90309088848885  0.17308801110111  3.65535438113811
 1 -2.41551100500050 -1.43726760446045 -0.53715057135714
 1 -1.98469440804080  0.41849932423242 -0.59574823552355
 1 -0.18158248164816 -0.01465733983398  0.99196522702270
 1 -0.35749876277628 -1.87469664966497  0.86901402040204
 1 -4.60167482488249  5.85271340894089  0.96711984998500
 1 -6.00251146994699  6.81237635633563  1.36574217121712
 1 -5.19362113911391  5.83447329672967  2.68480954155416
 1 -7.54218431733173  7.01496853055305  0.78537984428443
 1 -9.83469886268627  5.76727471297130 -1.12083147914792
 1 -9.68402268146815  7.59781506680668 -0.56277598169817
 1 -12.56527107450745  3.12715321382138  0.18291589298930
 1 -12.17051597389739  3.78483344804480 -1.49540675817582
 1 -13.43440084008401  2.31643726192619 -1.13401644854485
 1 -12.90779560546055 -1.40358048434843 -0.94446902070207
 1 -13.52770351265127  0.44587424882488 -1.10638431573157
 1 -12.63502801780178  0.26932394749475 -3.38860770417042
 1 -11.95380158785879 -1.31369076547655 -3.36690748744874
 1 -13.64248232143214 -1.16777413551355 -3.08234209290929
 1 -10.18193574037404 -4.49429152105211 -0.51744754865487
 1 -9.06234814501450 -4.83053006650665 -2.11893241384138
 1 -8.33880558605861 -5.48557933783378 -0.24784943844384
 1 -3.69478520582058 -3.45560291159116 -0.38517157695770
 1 -1.44671153915392 -5.91436804050405  2.58775447944794
 1 -1.90314688638864 -4.27589732873287  3.36241069136914
 1 -2.98572962836284 -5.58471547154716  3.47705922612261
 1  2.86269806160616 -1.72460920202020 -1.77708484178418
 1  2.44607645054506 -0.15254669266927 -2.31391901120112
 1  4.10391182708271 -0.81113918441844  0.29479852425242
 1  5.71314657915792  2.03235093289329 -2.57041962936294
 1  5.29364632843284  0.56749270447045 -3.37026009310931
 1  3.67147363256326  1.40653345924592 -2.63437879477948
 1  6.33361345844584  1.73762690659066 -0.31859706010601
 1  6.49981780758076 -0.09492507780778  0.51333102720272
 1  7.15131578467847 -1.14621866726673 -1.69273411951195
 1  7.74657440854085  0.45985148974897 -2.07795665336534
 1  8.93315775737574  1.01708956045605 -0.07067580908091
 1  8.36105883578358 -0.56532361936194  0.60095294819482
 1  10.37978484378438 -0.07355715741574 -1.85198592149215
 1  9.25733292089209 -2.42594125692569 -1.72761198669867
 1  10.91027788878888 -2.40344202060206 -1.36680242584258
 1  9.74105254705471 -2.70849272677268 -0.11838536003600
 1  11.13506769686969  0.65359298309831  0.41922538513851
 1  11.42881045044504 -1.06112459795980  0.94459498119812
 1  12.72816932493249 -1.63059693869387 -0.93353679647965
 1  12.61993230983098 -0.03573084598460 -1.67019033753375
 1  13.73920495599560  1.03307370317032  0.47216239033903
 1  13.62185702120212 -0.71499445344534  1.20958053425343
 1  15.29045054245425  0.11853505330533 -1.31849849964996
 1  14.90503589858986 -2.14163244704470 -1.33717773827383
 1  16.54341107740774 -1.71071691119112 -0.84490588318832
 1  15.57459017661766 -1.98696831543154  0.62819552085209
 1  15.89001619321932  1.44702779147915  0.67297114071407
 1  16.21400772347235  0.14379818891889  1.67502949974998
 1  18.04221029832983 -0.68129660826083  0.01629694499450
 1  17.75397812321232  0.67829079217922 -1.04847215181518
 1  18.00552225812581  2.13360208790879  1.07266376137614
 1  18.80062307650765  0.68262709950995  1.90482173777378
 1  20.92851108090809  0.38533926762676  0.02694563166317
 1  19.84701739893989  3.03330546264626 -1.14980995519552
 1  21.04739325652565  1.89359496329633 -1.51975729912991
 1  19.50334857065707  1.56643668026803 -1.68776395759576
 1  21.17140215331533  1.53773332363236  2.25257918571857
 1  22.23301714341434  2.04491260786079  0.79018091789179
 1  20.59041670437044  2.97223689418942  1.39007161156116
 1 -6.98357213971397  1.69394366636664  0.32774603140314
 1 -7.42476384298430 -0.38500337593759 -0.24285760596060

