%nproc=4
%Mem=2GB
# td=(NStates=1) B3LYP/SVP 

TD

0 1
 6 -5.17725057555756 -1.90550035603560  0.39704832993299
 6 -4.85869202740274  2.81629185818582  1.44601127722772
 6 -9.37872711631163  3.30301649794980 -0.21051566776678
 6 -9.91539339043904 -1.44837643224322 -0.85853199859986
 7 -5.20640738873887  0.44779124022402  0.76012347034703
 6 -4.49483758135814 -0.74628361196120  0.64908099369937
 6 -3.08118987268727 -0.50976145964596  1.10882413181318
 6 -3.11469562196220  0.77671278887889  1.73589809520952
 6 -4.49502446054605  1.42302934833483  1.22449436083608
 6 -2.96784328222822  0.85415371637164  3.33074293229323
 6 -2.08389373217322 -0.61966698079808 -0.03420681298130
 6 -0.61829021712171 -0.51122997779778  0.37480524562456
 6  0.33837834373437 -0.76042295959596 -0.79022487968797
 8  0.01556129202920 -1.07424711461146 -1.91907436203620
 8  1.65081015621562 -0.56456287478748 -0.42510750275028
 7 -7.11386456745675  2.78667340924092  0.56391698569857
 6 -6.02761694269427  3.30618735123512  1.14441856725673
 6 -6.32262353485349  4.76535461926193  1.02637418911891
 6 -7.55554861936194  4.99335065806581  0.52273750385039
 6 -8.19794524492449  3.68928752765277  0.23164450075007
 6 -5.30256941334133  5.80127390979098  1.61382738663866
 6 -8.27742433063306  6.26884660236024  0.21310636493649
 6 -9.24474199699970  6.60215950655066 -0.61561017731773
 7 -9.30360375967597  0.83714218881888 -0.29560653605361
 6 -9.89835161256126  2.01617491919192 -0.40265907660766
 6 -11.43103934193419  1.79979361886189 -0.86519059035904
 6 -11.40902634313431  0.47016105750575 -0.98376843844384
 6 -10.22284899329933 -0.07964501390139 -0.72869635003500
 6 -12.49343354055406  2.77678024712471 -1.13116754585459
 6 -12.67648774617462 -0.24954405280528 -1.45750798579858
 6 -12.73168763836384 -0.65671031743174 -2.90058724312431
 7 -7.52435556125613 -1.25064937943794 -0.31153749884988
 6 -8.61764775027503 -2.05432204640464 -0.53902083048305
 6 -8.19253286048605 -3.44063866536654 -0.57590132863286
 6 -6.77833986218622 -3.44142002630263 -0.22537464276428
 6 -6.51592013161316 -2.05634743384338 -0.04350219611961
 6 -9.04487847294729 -4.63242664266427 -1.02716522332233
 6 -5.68171429292929 -4.35081030793079  0.06365903550355
 8 -5.65013686978698 -5.45812232093209  0.11428834923492
 6 -4.50172577717772 -3.25517262996300  0.36984223382338
 6 -3.82889530433043 -3.77022071727173  1.80351223652365
 8 -4.20187279897990 -3.36172712861286  2.83953441744174
 8 -2.88667118281828 -4.73521380268027  1.56531227422742
 6 -2.16151968226823 -5.20430133543354  2.66327279757976
 6  2.69489953335334 -0.75825451605161 -1.45625983128313
 6  4.03623773357336 -0.62877750115012 -0.69960657385739
 6  5.07255955615561  0.07533658125813 -1.20385579017902
 6  5.08840935113511  0.97562140384038 -2.45199773877388
 6  6.35417913001300  0.11326395469547 -0.43050451355136
 6  7.58758298549855 -0.52690202330233 -1.02325967936794
 6  8.83044652165217 -0.35319052595260 -0.07041192109211
 6  10.11918377307731 -0.84181866446645 -0.82293327322732
 6  10.05105889928993 -2.42486765256526 -1.02736685138514
 6  11.41487216181618 -0.41621129172917 -0.01137360536054
 6  12.79772835743574 -0.60644912331233 -0.54523240044004
 6  13.86124253145315 -0.12914561766177  0.28278464106411
 6  15.25095691679168 -0.25414845064506 -0.28254209000900
 6  15.57612494009401 -1.77600176207621 -0.57765750125013
 6  16.37954055125513  0.50762167336734  0.61296456085609
 6  17.77444428312831  0.73935966986699 -0.10594510231023
 6  18.67715756675667  1.47162578157816  0.74536322922292
 6  20.11795169106911  1.52631825712571  0.29874263466347
 6  20.24362529202920  2.19309874107411 -1.06361277027703
 6  21.06222668826883  2.24824856095610  1.19206560726073
 1 -3.98289645724573  3.48816520082008  1.79448168646865
 1 -10.01216880188019  4.25091452795280 -0.56585525942594
 1 -10.56382472237224 -2.20417642764277 -1.11781167506751
 1 -2.73250930243024 -1.29169953405341  1.75254704940494
 1 -2.38141870947095  1.46956690779078  1.26770626902690
 1 -2.05981349724972  0.34974239593959  3.68412513781378
 1 -2.86794009430943  1.74760940454045  3.80274937613761
 1 -3.85350592999300  0.29709041134113  3.78674752045205
 1 -2.06861631553155 -1.60887476517652 -0.76931378767877
 1 -2.37082302090209  0.23402087638764 -0.66324498519852
 1 -0.35073939733973  0.53227735363536  0.60675670617062
 1 -0.45133814671467 -1.07948712871287  1.20615773477348
 1 -4.32568722612261  5.68252639023902  0.94141727972797
 1 -5.71300251905190  6.75152027072707  1.48540413741374
 1 -5.08794057105711  5.51566141554155  2.67066812741274
 1 -7.80159025792579  7.03210024372437  1.00741204750475
 1 -9.77133252605261  6.02630061556156 -1.40713010901090
 1 -9.88855313451345  7.63111839713971 -0.56207591169117
 1 -12.71383593099310  3.35199569806981 -0.25133753235324
 1 -12.19066798909891  3.41217618231823 -1.82113933143314
 1 -13.33912131213121  2.12134775297530 -1.62072511941194
 1 -12.85969079497950 -1.31313143944394 -0.84963953775377
 1 -13.75765650795080  0.49940960236024 -1.17748142544254
 1 -12.69619413441344  0.21598861396140 -3.69876872027203
 1 -11.84592079977998 -1.21053044944494 -3.11269206590659
 1 -13.54653272647265 -1.46096345444544 -3.16156001470147
 1 -10.13413095989599 -4.47170926282628 -0.61437724162416
 1 -8.95772768296830 -4.54922193569357 -2.06761728232823
 1 -8.41054275977598 -5.54640542044204 -0.56168082158216
 1 -3.62047777507751 -3.65506285758576 -0.40029308910891
 1 -1.41848871687169 -5.88537514121412  2.24236994099410
 1 -1.70072664436444 -4.64134387338734  3.20163461376138
 1 -2.90778183358336 -5.59950695069507  3.28101962216222
 1  2.65201699349935 -1.72496923802380 -1.77327446074607
 1  2.34492633553355 -0.20129156715672 -2.35301292059206
 1  3.82862429832983 -0.97399547004700  0.18165721012101
 1  5.15682094659466  2.17974567236724 -2.41705429282928
 1  5.66773373717372  0.47486344154415 -2.98265133223322
 1  4.04090057525752  1.02604541044104 -2.78721407830783
 1  6.62233233033303  1.08515165906591 -0.22741794219422
 1  6.31884971077108 -0.36560214551455  0.53965365946595
 1  7.39404005710571 -1.69069311471147 -1.37521236733673
 1  7.99698945004500 -0.12037653305331 -1.91097995569557
 1  9.00252469406941  0.68329618111811  0.03648490699070
 1  8.69161189108911 -0.78677576457646  0.97391024392439
 1  10.13814067936794 -0.22269207090709 -1.75731645454545
 1  9.07685487308731 -2.71405006780678 -1.46757598309831
 1  10.85405226622662 -2.65029670607061 -1.72345809140914
 1  10.25757419921992 -2.79754163166317 -0.00741426292629
 1  11.24593878397840  0.69442706650665  0.13449691229123
 1  11.34661223062306 -0.98874736023602  0.96227674937494
 1  12.97801430943094 -1.76506038503850 -0.57219066186619
 1  12.92027234383438 -0.40279755265527 -1.60815413391339
 1  13.61212224772477  0.95880627642764  0.35073024712471
 1  13.88288312381238 -0.30093304730473  1.28749832603260
 1  15.22380387778778  0.23033623342334 -1.22276892669267
 1  15.05102049704971 -2.36195447924793 -1.25706972747275
 1  16.78611534783478 -1.72385822532253 -0.77468886148615
 1  15.72488520612061 -2.36982660126013  0.39186188748875
 1  15.85437262886289  1.46506959565957  0.87670151375138
 1  16.57343366606661  0.10780458955896  1.57601959875988
 1  17.81719779707971 -0.35776425502550 -0.38955364006401
 1  17.47551027642764  1.20667363046305 -0.86556386098610
 1  18.17843954985499  2.59905863356336  0.84904139913991
 1  18.46253926812681  1.01292012881288  1.71769302490249
 1  20.42288051785179  0.45211594529453  0.21641457855786
 1  19.87546024322432  3.19324145624562 -0.93407838203820
 1  21.24908342554255  2.11122672647265 -1.30099542294229
 1  19.77902613841384  1.73536357295730 -2.03978916011601
 1  21.11251626472647  1.79012856315632  2.33800772857286
 1  22.05738958065806  2.38052616921692  0.67418931873187
 1  20.79282694539454  3.22123179367937  1.14210681508151
 1 -7.19547332983298  1.92097636963696  0.32567582438244
 1 -7.55826719331933 -0.23709858545855  0.09459613941394

