%nproc=4
%Mem=2GB
# td=(NStates=1) B3LYP/SVP 

TD

0 1
 6 -5.07889073957396 -1.95037484348435  0.59404802990299
 6 -4.75937209540954  2.80677090609061  1.37442411851185
 6 -9.27506675027503  3.44930112641264 -0.33041765796580
 6 -9.85917776887689 -1.39906150075007 -0.72226837223722
 7 -5.20267701570157  0.50063652475248  0.83685114311431
 6 -4.54136223382338 -0.70030901450145  1.00637672327233
 6 -3.06186794049405 -0.55502598609861  1.36846009540954
 6 -3.13345749814982  0.92034715231523  1.91237574297430
 6 -4.41504646274627  1.42392943834383  1.30443235463546
 6 -3.26753325122512  0.90564886588659  3.39799965796580
 6 -2.06899224202420 -0.67905291939194  0.08769537723772
 6 -0.62387077517752 -0.63180203500350  0.51342910801080
 6  0.32000650655065 -0.98850576787679 -0.55214107130713
 8 -0.03232349644965 -1.43759344924492 -1.70430288488849
 8  1.58198327352735 -0.82368878737874 -0.20758575057506
 7 -7.10887406840684  2.84123886578658  0.48215880988099
 6 -5.89697387838784  3.39899663216322  0.93611773717372
 6 -6.18458973147315  4.86352443624362  0.95615716741674
 6 -7.46413947844785  5.05183650665067  0.42310754085409
 6 -8.02355780618062  3.77312591149115  0.07619895619562
 6 -5.22384154055406  5.87989177157716  1.45299130303030
 6 -8.06901348954895  6.30652036973697  0.20894594889489
 6 -8.91781930473047  6.77954724532453 -0.79030764706471
 7 -9.11279467876788  0.98179665426543 -0.54007098249825
 6 -9.81785356275627  2.18237153885389 -0.62759156985699
 6 -11.17330356835684  1.94359799929993 -0.99179325062506
 6 -11.35508094859486  0.61489553095310 -1.03602366396640
 6 -10.10312702110211  0.01608455905591 -0.75103858425843
 6 -12.22943714091409  2.96718928802880 -1.29174360346035
 6 -12.58396849424943 -0.28984808320832 -1.46689892489249
 6 -12.60699516911691 -0.54331897829783 -3.01612879727973
 7 -7.50877400310031 -1.19457377187719  0.02589624452445
 6 -8.56832281778178 -1.97676429062906 -0.45537246564656
 6 -8.21419502670267 -3.34642924442444 -0.53119685818582
 6 -6.85938796699670 -3.38191407570757 -0.25208731403140
 6 -6.55105364496450 -2.06136793589359  0.17345950005000
 6 -9.03009699479948 -4.58636203620362 -1.10089259605961
 6 -5.77692381388139 -4.32545777267727  0.00918358795880
 8 -5.69343119921992 -5.54895140384038 -0.22528560816082
 6 -4.52941854645464 -3.44910202290229  0.41973722332233
 6 -3.77312972777278 -3.93185688088809  1.70147203250325
 8 -4.12044465616562 -3.62558351425142  2.88470893489349
 8 -3.04306682238224 -4.94878515981598  1.41198694169417
 6 -2.45591912221222 -5.69070997629763  2.47129359965997
 6  2.75161520492049 -1.18128681928193 -1.18098230353035
 6  3.92638674847485 -0.75781040444044 -0.44933154635464
 6  4.94683698389839  0.02606165376538 -0.97410281488149
 6  4.95012552275228  0.69285312701270 -2.34040657965797
 6  6.35727944004400  0.02232486078608 -0.22814427752775
 6  7.43455768296830 -0.67738707180718 -0.89662701610161
 6  8.70788426542654 -0.61121632853285 -0.01791667156716
 6  10.10101195589559 -0.89538402100210 -0.83776475637564
 6  10.05488928232823 -2.38384355015502 -1.24572868756876
 6  11.30055072967297 -0.50229990059006  0.04179171117112
 6  12.70036862146215 -0.58816729512951 -0.70622850005001
 6  13.78511491869187 -0.04194689778978  0.26700306290629
 6  15.16158797989799 -0.05598863466347 -0.55967980378038
 6  15.59933726132613 -1.49507366926693 -0.96393612911291
 6  16.20225282248225  0.56631754295430  0.44951821622162
 6  17.60643748244824  0.86751248514851 -0.24315882368237
 6  18.66302615361536  1.50959957895790  0.79167786068607
 6  20.08403829972997  1.84803042834283  0.14729749014901
 6  20.10902183168317  2.87797722892289 -1.10882729172917
 6  21.01646211181118  2.25053878997900  1.40612701340134
 1 -3.76237440504050  3.36311269556956  1.55755799409941
 1 -9.95968355335533  4.38745818231823 -0.37504617851785
 1 -10.81078941884189 -2.12211822182218 -0.82943283718372
 1 -2.80580663216322 -1.18555891999200  2.20321211591159
 1 -2.30421098869887  1.39245919701970  1.49068856725673
 1 -2.44985250115012  0.45910333203320  3.94159088438844
 1 -3.41387468776878  1.76146078967897  4.01098019921992
 1 -4.11058163756376  0.25274597689769  3.57944679037904
 1 -2.26295574947495 -1.52520639833983 -0.53372022832283
 1 -2.25594153275327  0.14084155845585 -0.59316797749775
 1 -0.13953827722772  0.34961908780878  0.81206723722372
 1 -0.50565357825783 -1.47164634463446  1.28290540954095
 1 -4.02577723512351  5.48282642024202  1.04727786578658
 1 -5.49053027182718  7.05014013271327  1.16753235023502
 1 -5.16869864686469  5.78422827222722  2.55053611421142
 1 -7.70904100300030  6.97872490619062  0.88275958225823
 1 -9.19175456825683  6.09351733723372 -1.51435083108311
 1 -9.48400267946795  7.68770405570557 -0.91186089018902
 1 -12.61629617701770  3.65026552505251 -0.35400779937994
 1 -11.94895381768177  3.74852981768177 -2.04426164366437
 1 -13.14712211221122  2.51829744794479 -1.61984503140314
 1 -12.50806563246325 -1.17093722002200 -0.79801437523752
 1 -13.52468321062106  0.35517517891789 -1.12777645494549
 1 -12.53648816381638  0.47243425852585 -3.52790163356336
 1 -11.96459266696670 -1.27818721512151 -3.45098589528953
 1 -13.75442351555156 -0.99114647274727 -3.22024588328833
 1 -10.11016856365637 -4.77974006590659 -0.73840964486449
 1 -9.34392630283028 -4.34031104460446 -2.23293381398140
 1 -8.58117982348235 -5.55478625852585 -1.05724037753775
 1 -3.85997172447245 -3.40666801810181 -0.29445250505051
 1 -1.59828669666967 -6.20057666136614  2.12018772277228
 1 -1.69687625932593 -5.13030276927693  3.05714016431643
 1 -3.28412946834683 -5.89277627762776  3.17910943114311
 1  2.63306509830983 -2.30293703480348 -1.31046818011801
 1  2.39346118901890 -0.61046248424842 -2.21087870717072
 1  3.82793422932293 -1.22629069956996  0.41437048144815
 1  5.27308257275727  1.73392108990899 -2.18128071547155
 1  5.38953591739174 -0.06234027882788 -3.00070313741374
 1  4.02527901310131  0.84866767266727 -2.66873223012301
 1  6.57426752385238  1.10198334223422 -0.12021722212221
 1  6.12895072087209 -0.39036462176218  0.87419711381138
 1  7.16384703780378 -1.60940498589859 -1.00754560066006
 1  7.68655840694069 -0.45378987438744 -1.98857771547155
 1  8.78228266986699  0.36526437793779  0.18337959645965
 1  8.50375310521052 -1.12469955695570  0.96407926082608
 1  10.30739760506051 -0.21236103780378 -1.78211893479348
 1  9.25384257185719 -2.66822548534853 -1.91201042654265
 1  10.92625948694869 -2.50443211961196 -2.02519826542654
 1  10.21242968476848 -3.02016389388939 -0.21135465696570
 1  11.03575776587659  0.38697632143214  0.51011447404741
 1  11.33146071547155 -1.30977946344634  0.92664318601860
 1  12.88368487648765 -1.59919379837984 -1.08755219801980
 1  12.50513082968297  0.11487421452145 -1.41555487398740
 1  13.46372740824082  0.97213760956096  0.79934510861086
 1  14.12292712821282 -0.63392634663466  1.08493807000700
 1  15.00100159755976  0.62915611541154 -1.41615826562656
 1  14.89207460246025 -1.63889217301730 -1.80464448494849
 1  16.78199493579358 -1.55278111761176 -1.41620301290129
 1  15.59192190979098 -2.51695131373137 -0.05438273697370
 1  15.70778797039704  1.53052614131413  0.66857070067007
 1  16.35826214891489 -0.07255344624462  1.31673367016702
 1  18.07822389968997 -0.18038651725172 -0.56031071577158
 1  17.36491921732173  1.52824578767877 -1.12366967156716
 1  18.31913361926193  2.61478020572057  1.06412290729073
 1  18.56748976317632  1.13008184498450  1.70332158775878
 1  20.39464769456946  0.83946468016802 -0.09386644954495
 1  19.70934363156316  3.69208134023402 -0.95651062526253
 1  21.07117563476347  3.10965656945695 -1.39916523992399
 1  19.67722595839584  2.51142117871787 -2.08965414661466
 1  20.83695870897090  1.72439198949895  2.33509743754375
 1  21.98224206590659  2.22503061966197  0.96393829362936
 1  20.77727539023903  3.29543921442144  1.90800340474047
 1 -7.32186596909691  1.82632690469047  0.13909716651665
 1 -7.39960132673267 -0.27638251385139 -0.04783810401040

