%nproc=4
%Mem=2GB
# td=(NStates=1) B3LYP/SVP 

TD

0 1
 6 -5.14998784928493 -2.00052985898590  0.61775040014001
 6 -4.73029918811881  2.74372460146015  1.40249692579258
 6 -9.30936017961796  3.38147434373437 -0.23570818701870
 6 -9.72091394249425 -1.55970756535654 -1.05137128252825
 7 -5.12157890589059  0.37705416651665  0.93682114011401
 6 -4.46534463206321 -0.81332031563156  0.94808089368937
 6 -3.05867762146215 -0.63599408290829  1.31696494589459
 6 -3.00558471087109  0.88570368796880  1.92141664706471
 6 -4.41096605470547  1.37745479087909  1.42253416481648
 6 -2.98279477737774  0.78926722772277  3.49698955695570
 6 -2.03677902070207 -0.75143015711571  0.18474508220822
 6 -0.60013840194019 -0.64921377617762  0.58612637773777
 6  0.31359586548655 -0.96120303760376 -0.53538939613961
 8 -0.00584084818482 -1.29520921082108 -1.62073452805281
 8  1.59295437063706 -0.84600101860186 -0.23335832783278
 7 -7.02391557255726  2.81420616251625  0.56883747774777
 6 -5.91304548554855  3.36828356085609  0.95076920232023
 6 -6.16321759425943  4.87556564036404  1.02019357105711
 6 -7.43189625412541  4.96475779877988  0.47404263436344
 6 -7.90006545694570  3.69180777967797  0.17305864216422
 6 -5.24467362376238  5.91369515191519  1.50732673657366
 6 -8.10801738993899  6.28924864256426  0.28416347064706
 6 -9.27118464126413  6.58252754335434 -0.41680029632963
 7 -9.14096749604960  0.93012148674867 -0.54638161356136
 6 -9.74495627302730  2.14773807550755 -0.58950776147615
 6 -11.14586082408241  1.87915155465547 -1.04784885618562
 6 -11.31688712921292  0.50972501390139 -1.31006106770677
 6 -10.03514022242224 -0.06205325472547 -0.94941842224222
 6 -12.18643284048405  2.96806937603760 -1.31858628772877
 6 -12.54803490089009 -0.12945204360436 -1.82609484448445
 6 -12.49534400400040 -0.31824647104710 -3.36474365876588
 7 -7.50892401810181 -1.35693000750075 -0.23714005910591
 6 -8.50927691319132 -2.08854546874687 -0.72124905330533
 6 -8.06072968016802 -3.50500510201020 -0.74093783228323
 6 -6.74400642884288 -3.41775766006601 -0.25093719901990
 6 -6.41693023262326 -2.09070086918692  0.01745389948995
 6 -8.91807579267927 -4.63746714671467 -1.33678618541854
 6 -5.67593371487149 -4.36123135003500  0.09008167776778
 8 -5.72257411351135 -5.56742325102510  0.17327424782478
 6 -4.52512811741174 -3.39512662536254  0.55989123872387
 6 -4.05908832363236 -3.95277897309731  1.91805369066907
 8 -4.33081569326933 -3.57761871777178  3.02156262026203
 8 -3.28626114181418 -4.94896517781778  1.66207195019502
 6 -2.54672820312031 -5.60353125842584  2.76801327162716
 6  2.71035107850785 -1.06910560116012 -1.16294049934994
 6  4.00395450525053 -0.70907553095310 -0.50112672587259
 6  4.86983928412841  0.17767681528153 -0.90159556415642
 6  4.74966547674768  1.14487832953295 -2.15320785978598
 6  6.16006971907191  0.27430005830583 -0.20944240734073
 6  7.39531375857586 -0.26679601270127 -0.86808416181618
 6  8.69332280928093 -0.15983119001900 -0.12456733663366
 6  9.99114096879688 -0.69530401300130 -0.78181916181618
 6  9.92807660106011 -2.17291245704571 -1.13369748444844
 6  11.23865454005401 -0.19674934553455  0.06424395639564
 6  12.62489107370737 -0.42045052345235 -0.70749862706271
 6  13.76308271547155 -0.07257996109611  0.26978334093409
 6  15.10545236633663 -0.13735677147715 -0.46270010581058
 6  15.53728105570557 -1.57677183908391 -0.78933866936694
 6  16.23569616681668  0.63832474367437  0.39095235963596
 6  17.63803064176417  0.78275400930093 -0.29953446124612
 6  18.60207005800580  1.54317293629363  0.55828452135214
 6  20.10284017991799  1.50831645694570  0.08054081448145
 6  20.40134106360636  1.98226765796580 -1.37361377037704
 6  20.91176164176418  2.21262499859986  1.14817121782178
 1 -4.11179934753475  3.55918230253025  1.77565980428043
 1 -10.00576816181618  4.20957039353935 -0.28744741864186
 1 -10.62153049294930 -2.04878088808881 -1.36044593849385
 1 -2.86750280178018 -1.13292365646565  2.09405119981998
 1 -2.09092966056606  1.52962291339134  1.49414891329133
 1 -1.92258977487749  0.45377279897990  3.93123984928493
 1 -3.21977527782778  1.87853249684969  3.86525562676268
 1 -3.76644722412241  0.14564526682668  3.95424427012701
 1 -1.91743119701970 -1.64629850755075 -0.31620847714772
 1 -2.27248318691869  0.07538501280128 -0.57436609730973
 1 -0.00854517791779  0.35088921482148  0.95584161466147
 1 -0.33231624452445 -1.28462764276428  1.34930204920492
 1 -4.31037569496950  5.87158529612961  0.93517665566557
 1 -5.79619083788379  6.86465158385839  1.32759835683568
 1 -4.92133391039104  5.80137998739874  2.57545860646065
 1 -7.59353945284528  7.13655068876888  0.77602890919092
 1 -9.71260665346535  5.87562554805481 -1.09284868086809
 1 -9.52649692889289  7.76927221252125 -0.51554125822582
 1 -12.26496104350435  3.40174067256726 -0.35261766036604
 1 -11.77536645894590  3.70440540524052 -1.97511472897290
 1 -13.03008040804080  2.72217783598360 -1.85825887278728
 1 -12.80449527542754 -1.17885801210121 -1.37466204000400
 1 -13.37713845614561  0.47903756515652 -1.71327500480048
 1 -12.17286180118012  0.60113712881288 -3.73848269166917
 1 -11.78420462816282 -1.18306770317032 -3.54483528022802
 1 -13.37060513371337 -0.81913927202720 -3.91661552025202
 1 -9.84050159695970 -4.66291838373837 -0.73319912381238
 1 -8.97208911911191 -4.66323333683368 -2.47807832843284
 1 -8.37492919841984 -5.61772255215522 -1.16520117361736
 1 -3.72345807310731 -3.46831418271827 -0.20665372517252
 1 -1.98888575657566 -6.47590419411941  2.23217892189219
 1 -1.92430900260026 -4.75906564556456  3.11604605490549
 1 -3.31458251365137 -5.94179117911791  3.64811633183318
 1  2.67911970377038 -2.05518225932593 -1.65217235053505
 1  2.33834567746775 -0.35196663466347 -2.07913553285329
 1  4.50549198509851 -1.46765483598360  0.16592563696370
 1  4.55553081758176  2.24743244104410 -1.78573116051605
 1  5.59587655145515  1.03015897109711 -2.85250831793179
 1  3.83363984918492  1.11062386828683 -2.79045440234023
 1  6.36279637673767  1.40035317921792 -0.00590579097910
 1  6.04522234803480 -0.21527711301130  0.64797449154915
 1  7.18198885198520 -1.41503554895490 -1.00409525562556
 1  7.61992174327433  0.22140764536454 -1.90657951565157
 1  8.79490393199320  0.97197504900490  0.09685094359436
 1  8.30691342124213 -0.76023311031103  0.90022287518752
 1  9.99911677697770 -0.02853265496550 -1.73113383628363
 1  8.93709089668967 -2.47083574637464 -1.54199342484248
 1  10.75441230223022 -2.45718739513951 -1.78016376197620
 1  10.11336977877788 -2.89850172767277 -0.31422494399440
 1  11.21240543064306  0.72372999679968  0.22503596619662
 1  11.22001957135713 -0.80001848734874  1.10943146484648
 1  12.73042955095510 -1.60848472747275 -1.26223966676668
 1  12.63584390099010  0.28359108620862 -1.64526784528453
 1  13.58669970547055  0.91654205000500  0.75069024312431
 1  13.80611544704471 -0.73949690369037  1.12630220642064
 1  15.09494099149915  0.44909810961096 -1.58660531033103
 1  14.79213460846085 -2.12455073887389 -1.33401742224222
 1  16.40159689598960 -1.85651149064906 -1.05783717631763
 1  15.47466018361836 -2.21998161676168  0.14261696299630
 1  15.87939513111311  1.59576266496650  0.70397424102410
 1  16.39560588328833  0.05279908900890  1.43216521332133
 1  18.17053313061306 -0.20548902750275 -0.42463714841484
 1  17.37922064746475  1.23233619671967 -1.35895319991999
 1  18.32080378627863  2.67356608430843  0.48610510551055
 1  18.58763177737774  1.23744258105811  1.62447370297030
 1  20.36321455125513  0.38083881758176  0.10367330443044
 1  20.04733743094310  3.01318345044504 -1.75910088428843
 1  21.38610712791279  1.95393099689969 -1.85098042144214
 1  19.96116435223522  1.25227526412641 -1.97873305450545
 1  20.71939695279528  1.92831238153815  2.29381330913091
 1  22.10188403010301  1.86402451905190  0.93670557035704
 1  20.85353301600160  3.52425209570957  0.92445504990499
 1 -7.23606738923892  1.91752602460246  0.29674293109311
 1 -7.54204557115712 -0.34763963956396 -0.00033335353535

