%nproc=4
%Mem=2GB
# td=(NStates=1) B3LYP/SVP 

TD

0 1
 6 -5.09437228772877 -1.91163096909691  0.38854747984798
 6 -4.68028418661866  2.78547877687769  1.57075375147515
 6 -9.31983122672267  3.37111330763076 -0.25044966116612
 6 -9.82473432453245 -1.45232682728273 -1.00486663206321
 7 -5.13878062606261  0.45647210831083  0.81829928792879
 6 -4.49157725532553 -0.72215119871987  0.93491957755776
 6 -3.03415516921692 -0.57956844034403  1.40801405080508
 6 -3.15706985938594  0.84718983658366  2.00943544894489
 6 -4.43484844294429  1.37400444584458  1.46216812821282
 6 -3.07554405230523  0.84634293529353  3.56188604660466
 6 -1.99579492229223 -0.72677769186919  0.33915052275228
 6 -0.56272466056606 -0.57818667346735  0.66567433253325
 6  0.38788329422942 -1.03663058035804 -0.44736059325933
 8  0.05327506340634 -1.49669935983598 -1.39884233883388
 8  1.65243031823182 -0.72519893839384 -0.14347933993399
 7 -6.97890107110711  2.87374211611161  0.41475206920692
 6 -5.87417159815982  3.51348808130813  1.12482660806081
 6 -6.28760003250325  4.85424350815082  1.20005155685569
 6 -7.47180024452445  4.99596091909191  0.44240947104710
 6 -8.05518096849685  3.69150774967497  0.12929426572657
 6 -5.33968312471247  5.92953673607361  1.76070207410741
 6 -8.15637222542254  6.25346506420642  0.41391644594459
 6 -9.28283580638064  6.59895918651865 -0.29677829412941
 7 -9.13975737503750  0.86845532013201 -0.54792176757676
 6 -9.78314009140914  2.11276457815782 -0.56441525222522
 6 -11.13146938493849  1.90107374687469 -1.19015308660866
 6 -11.28833427392739  0.54947898929893 -1.34949501110111
 6 -10.06849355775578 -0.07160420982098 -0.91203468386839
 6 -12.15617981518152  3.09806237533753 -1.37698212731273
 6 -12.54040413781378  0.01530243184318 -1.93614584958496
 6 -12.58443291289129 -0.44860950735074 -3.49630681508151
 7 -7.46880000570057 -1.27780209470947 -0.30964730983098
 6 -8.60988697419742 -2.02927954215422 -0.67481440984098
 6 -8.13988759595960 -3.44502910441044 -0.67189092759276
 6 -6.87864989318932 -3.47785366966697 -0.28851095639564
 6 -6.40682922252225 -2.06370816991699 -0.00208805470547
 6 -9.13362734783478 -4.53585698569857 -1.08350085688569
 6 -5.72941906340634 -4.34302952985299 -0.00810814121412
 8 -5.64960681678168 -5.50802731143114 -0.07176025562556
 6 -4.53161876647665 -3.40709782248225  0.46316156575658
 6 -3.84066648144815 -3.75502919811981  1.77229911521152
 8 -4.07346995869587 -3.42722367826783  2.84940540454045
 8 -3.15473798949895 -4.94318459975998  1.53428917191719
 6 -2.67157068736874 -5.59367027232723  2.72851932223222
 6  2.72282232563256 -1.16779547014701 -1.04023822912291
 6  3.87928203800380 -0.77052167556756 -0.45264187738774
 6  4.93795609580958 -0.04953590599060 -1.01950735533553
 6  4.91441195139514  0.47124096579658 -2.46639917891789
 6  6.33483719581958  0.20658328662866 -0.36323778687869
 6  7.53983821102110 -0.55565489858986 -0.91885923932393
 6  8.77033051005101 -0.26318152505251 -0.19094397429743
 6  10.10512236693669 -0.77399188178818 -0.81678265816582
 6  10.05493928732873 -2.38561372717272 -0.92405652035204
 6  11.27834850945094 -0.30766043664366  0.01210874287429
 6  12.64630321492149 -0.65915439383938 -0.53014089128913
 6  13.84204061126113  0.04136143304330  0.13642000460046
 6  15.26266808790879 -0.14840787658766 -0.53835767156716
 6  15.68185551315131 -1.59795395729573 -0.68057779327933
 6  16.16811940914091  0.64960587178718  0.32693595799580
 6  17.55576241494149  0.79901563546355 -0.20547505530553
 6  18.54104395539554  1.72869148814881  0.54006269916992
 6  19.97759765566557  1.72426805210521  0.02680544094409
 6  20.22218314781478  2.16103553475348 -1.46010241924192
 6  20.76476694229423  2.48729246534653  1.14218061876188
 1 -4.07138530613061  3.18852523682368  2.21939417771777
 1 -10.04246183118312  4.05971540804080 -0.35292396629663
 1 -10.59022736263626 -2.22564857485749 -1.31591148504850
 1 -3.01950800230023 -1.26443680778078  2.27317911261126
 1 -2.25272584018402  1.50899085018502  1.43457295569557
 1 -2.13892140804080  0.33531095279528  3.88111483678368
 1 -3.37244054435443  1.88185282888289  3.98289739093909
 1 -3.87534811421142  0.06956765906591  3.77453629932993
 1 -2.05794524842484 -1.62940681838184 -0.06391324762476
 1 -2.30168610721072 -0.11242376807681 -0.49317797849785
 1 -0.15253957735774  0.52760688658866  0.87624365486549
 1 -0.25308832173217 -1.21297047704771  1.68677579657966
 1 -4.33978863626363  6.02845098269827  1.22549568756876
 1 -5.62389360816082  6.95343046174617  1.90211580858086
 1 -5.12288406540654  5.74454430383038  2.83376443704370
 1 -7.72413251215121  6.94160119381938  0.95623692999300
 1 -9.68798419121912  5.99748773427343 -1.14910430643064
 1 -9.79935421462146  7.60883616891689 -0.40620032413241
 1 -12.45234978237824  3.46492699119912 -0.28181057965797
 1 -11.60292921522152  4.09659462416242 -1.71426864436444
 1 -13.03948134813481  2.81412703090309 -1.97529057595760
 1 -12.77221204710471 -0.94806493279328 -1.40008458225822
 1 -13.36975771807181  0.66032569396940 -1.70541421872187
 1 -12.52222673767377  0.40779779487949 -4.03747259065907
 1 -11.62221842954295 -1.03785318171817 -3.59267006370637
 1 -13.60930900410041 -0.99822718081808 -3.70364422312231
 1 -9.94008155495550 -4.91398349024902 -0.32490829472947
 1 -9.69953186338634 -4.13679069256926 -1.97284780538054
 1 -8.69628133363336 -5.57961874177418 -1.29245389888989
 1 -3.75155088238824 -3.46716406770677 -0.38704176397640
 1 -2.28703557155716 -6.36014261796180  2.20479618361836
 1 -2.05103167486749 -5.00899063806381  3.46630108040804
 1 -3.50295135053505 -6.12192919291929  3.46793831403140
 1  2.63116490829083 -2.29872661376138 -1.29050618391839
 1  2.30823266616662 -0.61288272627263 -1.96654427372737
 1  4.23934537043704 -1.25897396789679  0.59250829522952
 1  5.29041430593059  1.49893759155916 -2.44310689808981
 1  5.47914487828783 -0.23602764756476 -3.12408547564756
 1  3.91481796699670  0.35668847474747 -2.73118847574758
 1  6.45545564266427  1.32676582048205 -0.09042424282428
 1  6.20239806560656 -0.32423800910091  0.73986368046805
 1  7.38578923202320 -1.70209425482548 -1.01586643274327
 1  7.55598534963496 -0.36839133453345 -2.19006786448645
 1  9.12988743034303  0.86786463796380 -0.33995273677368
 1  8.65584831473147 -0.36829391639164  0.92891574447445
 1  10.34213107840784 -0.28856865856586 -1.85993671657166
 1  9.10792798039804 -2.78330699349935 -1.30617984348435
 1  10.86337319831983 -2.76023770017002 -1.64348009360936
 1  10.11285972777278 -2.69987186468647  0.18941542004200
 1  11.29111330143014  0.78120574437444  0.15942940554055
 1  11.04793236263626 -0.63247173267327  0.97543806550655
 1  12.93257976597660 -1.76959083808381 -0.91814525732573
 1  12.69138945554555 -0.35667294019402 -1.54068738723872
 1  13.70731176667667  1.10595099089909  0.13054822892289
 1  14.00383521902190 -0.05769872387239  1.42028160436044
 1  15.37041853925393  0.35428862866287 -1.57291394119412
 1  15.14678007300730 -1.96910519431943 -1.58126214671467
 1  16.63645038133814 -1.86142198169817 -1.01105249784979
 1  15.48606132373237 -2.29511913051305  0.35851855315532
 1  15.71830902250225  1.84220730943094  0.76055989958996
 1  16.34510083278328 -0.13480967186719  1.23726572337234
 1  17.84459053635364 -0.28894737333733 -0.27215189988999
 1  17.59106183158316  1.17601056415642 -1.31960926552655
 1  18.16872857875788  2.72518124582458  0.50934742974297
 1  18.41382439663967  1.59439827662766  1.57083833943394
 1  20.10174840464046  0.58633936763676  0.24813775087509
 1  19.78706140334033  3.17462959505951 -1.56107108130813
 1  21.22701121832183  2.30224582838284 -1.62073739713971
 1  19.62141037683768  1.55596563316332 -2.09925510671067
 1  20.63891890499050  2.08908845914591  2.17046097389739
 1  22.00924476617662  2.81481959855986  1.08422032183218
 1  20.12596025872588  3.52255192569257  1.17724032843284
 1 -6.85908969146915  1.87280155215522  0.19253251005101
 1 -7.53711507810781 -0.15684055965597 -0.09127244744474

