%nproc=4
%Mem=2GB
# td=(NStates=1) B3LYP/SVP 

TD

0 1
 6 -5.14891774227423 -2.01084089008901  0.57599622472247
 6 -4.58065422362236  2.69225945494549  1.42659933603360
 6 -9.28226747034704  3.35052124842484  0.06639202300230
 6 -9.75913776487649 -1.42646424102410 -0.88562470787079
 7 -5.18936568456846  0.42371883298330  0.86354381238124
 6 -4.56814491209121 -0.80473945754575  1.03344943054305
 6 -3.12891464516452 -0.59065954945495  1.40554380378038
 6 -3.03426757915792  0.76759187678768  1.93166767216722
 6 -4.36179113721372  1.41509855525553  1.39229114051405
 6 -3.16712321022102  0.82619092009201  3.59666952495250
 6 -2.13543888668867 -0.64502951705171  0.10050665836584
 6 -0.70534892299230 -0.70842969776978  0.52851061616162
 6  0.29840434633463 -0.94884180148015 -0.66103196039604
 8  0.00388012391239 -1.30282997289729 -1.77627008160816
 8  1.57473254845485 -0.76973339183918 -0.26778177017702
 7 -6.98164134513451  2.77525226712671  0.57571816581658
 6 -5.83465764676468  3.34608134063406  0.99042316771677
 6 -6.10272154465447  4.72566064986499  0.97864941664166
 6 -7.37215027952795  4.99810113311331  0.51352658275828
 6 -7.92813826422642  3.68984758365837  0.19184052035204
 6 -5.04633378977898  5.76744052645264  1.45399140304030
 6 -8.09942653085309  6.32998271597160  0.20531558585859
 6 -8.86599412221222  6.61216050665067 -0.83236185248525
 7 -9.19625302460246  0.87827630223022 -0.50576755215522
 6 -9.85765754315432  2.18205150685068 -0.44555336603660
 6 -11.22165840384038  2.00118375787579 -0.95259933123312
 6 -11.31407684818482  0.65237927932793 -1.14378444004400
 6 -10.03679038743874 -0.05558260766077 -0.92693617401740
 6 -12.19549374657466  3.03582615171517 -1.22915734483448
 6 -12.56909700710071 -0.03016211461146 -1.69898213321332
 6 -12.48391286088609 -0.59899454585459 -3.17679486388639
 7 -7.50062318801880 -1.16934124862486 -0.31771811691169
 6 -8.52015800130013 -1.97523413761376 -0.69926685508551
 6 -8.15694930213021 -3.37230183168317 -0.70157389588959
 6 -6.80810283848385 -3.40532641694169 -0.30132223752375
 6 -6.41968050765077 -2.05738753785379 -0.04113195909591
 6 -9.10985497059706 -4.53052645264526 -0.92672517931793
 6 -5.70508663016302 -4.36873210011001  0.00487315691569
 8 -5.76545840194019 -5.52110861956196 -0.06216929652965
 6 -4.51928753335334 -3.44245135783578  0.39529477907791
 6 -4.00337275207521 -3.92162585778578  1.81180306560656
 8 -4.26835944764477 -3.47223817971797  2.87576804080408
 8 -3.17409992569257 -4.91001128242824  1.49471521452145
 6 -2.71037456775678 -5.69323022832283  2.59565603590359
 6  2.60985102850285 -1.13318200880088 -1.21314551985199
 6  3.94258836863686 -0.85529015241524 -0.58057467066707
 6  4.90363266346635 -0.02665361776178 -1.07506291089109
 6  4.87284779497950  0.62766660836084 -2.40614315331533
 6  6.14973868596860  0.01492412071207 -0.25069653275328
 6  7.54895912311231 -0.49661899499950 -0.90774812821282
 6  8.73041651865187 -0.32030723762376 -0.01904678457846
 6  10.00284213891389 -0.75763024562456 -0.67102808270827
 6  10.09238303170317 -2.17394256005601 -0.99080319501950
 6  11.23138381298130 -0.27058672927293  0.20121765376538
 6  12.64291287588759 -0.38132661106111 -0.57965584278428
 6  13.80696710391039  0.01831912881288  0.27181354395440
 6  15.19956177727773 -0.02170520632063 -0.54977881368137
 6  15.64927225482548 -1.45857001890189 -0.77129686518652
 6  16.20165276247625  0.67728864006401  0.32322558695870
 6  17.69468630733073  0.84390012391239 -0.31297580538054
 6  18.61854170517051  1.73793241224122  0.54848354125413
 6  20.05389528542854  1.62801842714271  0.19503226362636
 6  20.25592652215222  2.16243567476748 -1.19311572057206
 6  20.95411587718772  2.46749048514851  1.16381278197820
 1 -3.93410157775778  3.45626201050105  1.84561679998000
 1 -10.03696128112811  4.22867230373037 -0.02393106700670
 1 -10.64319265916592 -1.96437244724472 -1.10035992989299
 1 -2.82495854735473 -1.57405776987699  1.87796959165917
 1 -2.13275384298430  1.32553250435044  1.74746424482448
 1 -2.06153366926693  0.59390681238124  3.93303002830283
 1 -3.47060036033603  1.78511315491549  3.83570267146715
 1 -3.80725130453045 -0.10142944064406  4.02810165586559
 1 -2.42904235813581 -1.61458533623362 -0.20878773507351
 1 -2.42094803340334 -0.03878640434043 -0.74263292399240
 1 -0.38607293069307  0.17075120102010  1.19060509100910
 1 -0.72979599249925 -1.59156833683368  1.37062418141814
 1 -4.29227388478848  5.99373751135114  0.76677981598160
 1 -5.68191941074107  6.75438055675568  1.46904250125013
 1 -4.54255603260326  5.71074092349235  2.45867692829283
 1 -7.56374647354735  7.05181221492149  0.86154746104610
 1 -9.27113250605060  6.10437842334233 -1.79242863886389
 1 -9.19914419361936  7.60107539283928 -0.74796450055005
 1 -12.86264081148115  3.62381287978798 -0.24487688628863
 1 -11.65981490379038  3.85949091379138 -1.81789900740074
 1 -13.04878227822782  2.56833245144514 -1.80300334723472
 1 -12.61494632053205 -0.96303642994299 -0.86980155395540
 1 -13.53395413771377  0.60816047744774 -1.70946462376238
 1 -12.47451196619662  0.25218223332333 -3.75826466986699
 1 -11.49063527122712 -1.22778217461746 -3.29336013271327
 1 -13.30489856305631 -1.22259961806181 -3.43492735143514
 1 -9.82296984378438 -4.42778487038704 -0.10390619451945
 1 -9.66015792599260 -4.65050206370637 -1.94733525412541
 1 -8.68292999849985 -5.57104788468847 -1.04802945644564
 1 -3.72080780808081 -3.33982133343334 -0.38258131793179
 1 -2.05832270027003 -6.31847845154515  2.03418912291229
 1 -2.54859143084308 -5.03350308930893  3.50944539483948
 1 -3.63280433583358 -6.37968496849685  3.06811833203320
 1  2.40893268506851 -1.97952469356936 -1.70003713701370
 1  2.54910675357536 -0.49729116711671 -2.12698031733173
 1  4.08633006890689 -1.36974504500450  0.27083612801280
 1  5.62623788828883  1.53124082188219 -2.55334792219222
 1  5.36382334613461 -0.03469751455146 -3.06186925402540
 1  3.90048653385339  0.97863066896690 -2.91896725362536
 1  6.37431752885289  1.05319846374637  0.02995779537954
 1  5.99485731153115 -0.62971855715572  0.71710140424042
 1  7.33623427652765 -1.60253429882988 -1.03476832293229
 1  7.69508926002600 -0.08021251665167 -1.83281213891389
 1  8.67056149774977  0.75867371887189  0.31124238273827
 1  8.65464819471947 -1.00629771677168  0.85491834473447
 1  9.94557142244224 -0.21513131483148 -1.53403412631263
 1  9.30696788438844 -2.43010167296730 -1.78936816231623
 1  11.08186504750475 -2.49371104750475 -1.42006775237524
 1  10.01354979677968 -2.91831370887089 -0.12007552905291
 1  11.12540673077308  0.69919754355436  0.54253771637164
 1  11.37632520192019 -0.82284076957696  1.04441496319632
 1  12.72267877587759 -1.53142702170217 -0.85802924572457
 1  12.49299961656165 -0.02312958585859 -1.69322264076408
 1  13.52041307680768  1.03157355315532  0.50080525462546
 1  13.83471830733073 -0.61297425142514  1.28222779897990
 1  15.06167766516652  0.52773597339734 -1.50272692249225
 1  14.92284767976798 -2.06753503730373 -1.36729074957496
 1  16.67116385268527 -1.72953879337934 -1.29630102270227
 1  15.82841555915592 -1.94873449204920  0.02510521182118
 1  15.92760995259526  1.76225931463146  0.66472031563156
 1  16.41645796849685  0.14711852095209  1.26342833963396
 1  18.23335941324132 -0.26385486408641 -0.52369705440544
 1  17.51834455985599  1.21062402550255 -1.44834213881388
 1  18.27678938483848  2.81595032273227  0.59729622462246
 1  18.58987200140014  1.20357919471947  1.60434168976898
 1  20.31595982578258  0.44182491619162  0.22877581468147
 1  19.86075877307731  3.17192932503250 -0.99060403460346
 1  21.41782029922992  2.07811341514151 -1.45715103850385
 1  19.58881711751175  1.67345738233823 -1.88973415461546
 1  20.80598561166117  2.28915846614661  2.22278620642064
 1  21.97596143784378  2.43265138173817  0.90650255005501
 1  20.56496415911591  3.51508117861786  1.27674027842784
 1 -7.22900668316832  1.68341261326133  0.75104836163616
 1 -7.55990735733573 -0.36624149974998  0.08760544034403

