%nproc=4
%Mem=2GB
# td=(NStates=1) B3LYP/SVP 

TD

0 1
 6 -5.07909075957596 -2.03403320932093  0.39452807790779
 6 -4.78340449864986  2.69778000700070  1.57467414351435
 6 -9.31054029762976  3.37699389568957 -0.29561417761776
 6 -9.74130598169817 -1.41267286188619 -1.08434457985799
 7 -5.17784453245325  0.40081654275428  0.91509896789679
 6 -4.51266936453645 -0.80101908550855  0.91018710431043
 6 -3.04289604330433 -0.57591807530753  1.25830908030803
 6 -3.08751290369037  0.80186530413041  1.90435494089409
 6 -4.38372333043304  1.42813985938594  1.55059697109711
 6 -2.90576707460746  0.91915021602160  3.52371222922292
 6 -2.14227957075708 -0.72793780788079  0.04717132483248
 6 -0.61008939703970 -0.69816867166717  0.41597936303630
 6  0.38688319421942 -0.99792670997100 -0.63967982518252
 8  0.11944168006801 -1.67893758365837 -1.63528598319832
 8  1.60842591779178 -0.67740415891589 -0.27912290429043
 7 -6.96757993899390  2.80998574047405  0.59912050605060
 6 -5.92785696669667  3.45239197169717  1.14217834323432
 6 -6.26402767526753  4.89318740254025  1.03814536623662
 6 -7.48148121262126  5.02493381638164  0.46501173127313
 6 -8.00240569096910  3.69274787368737  0.21152248854885
 6 -5.30205936233623  5.98596237863786  1.54058006190619
 6 -8.07910449864986  6.27297701540154  0.23700875517552
 6 -9.27995551835184  6.50652994359436 -0.48499711601160
 7 -9.20434383368337  0.90504897949795 -0.49978695409541
 6 -9.78158993639364  2.10571387308731 -0.66048485918592
 6 -11.15726196419642  1.89874351385139 -0.96426049734974
 6 -11.38061350185018  0.58293233463346 -1.38378844044404
 6 -10.04367107550755 -0.03106015541554 -0.94677815821582
 6 -12.31298549574957  2.93238580768077 -1.08189261836184
 6 -12.53326342374237 -0.18024712311231 -1.77652988798880
 6 -12.61298576817682 -0.42955760216022 -3.26813399779978
 7 -7.42228535423542 -1.28584289878988 -0.24159050415041
 6 -8.52541852735273 -1.93207982218222 -0.56002293069307
 6 -8.21350495769577 -3.36851145264526 -0.68144188268827
 6 -6.84680670887089 -3.48137402170217 -0.29011111641164
 6 -6.34781332093209 -2.11632343144314 -0.01185903180318
 6 -9.02303628872887 -4.58149154915492 -1.00995350215022
 6 -5.76967308880888 -4.33709893679368  0.00104277387739
 8 -5.62385424152415 -5.55111161986199  0.02677959835984
 6 -4.52319792439244 -3.43536064876488  0.50100535013501
 6 -3.88890130493049 -3.76300999619962  1.81486337163716
 8 -4.14207681938194 -3.34406536243624  2.86158662266227
 8 -3.07538005370537 -4.83950423172317  1.54153989698970
 6 -2.60711424172417 -5.61268217351735  2.66880335063506
 6  2.63637368076808 -0.93439212981298 -1.23482768806881
 6  3.99417352715272 -0.65766038943894 -0.50764737793779
 6  5.00737303750375  0.14303335093509 -1.03753915851585
 6  4.88810932113211  0.92713655535554 -2.34959749874987
 6  6.29327303940394  0.26897952625263 -0.19646110921092
 6  7.41404563176318 -0.52385171827183 -0.79962731613161
 6  8.71285476247625 -0.35993120002000 -0.05922080198020
 6  9.94605646034604 -0.76089057165717 -0.81623260316032
 6  10.00926471987199 -2.27192235803580 -1.15755987068707
 6  11.33703437803780 -0.39373904450445  0.10100763276328
 6  12.60891947654765 -0.59037751615162 -0.60818869606961
 6  13.84446085328533 -0.06414911801180  0.20225658825883
 6  15.15065688678868 -0.22200523632363 -0.41686552235224
 6  15.71759908750875 -1.65476963886389 -0.52320205570557
 6  16.19415201240124  0.47916882808281  0.41221448584858
 6  17.60835767446745  0.66323205710571 -0.22649715751575
 6  18.46167601860186  1.58668728772877  0.58967766066607
 6  20.02757265316531  1.67015264056406  0.09677243764376
 6  20.17935886538654  2.33084251545155 -1.36860326932693
 6  20.98203866946695  2.46477021312131  1.10974737543754
 1 -4.00609877747775  3.46368275257526  2.13095533383338
 1 -9.97525511051105  4.18964840134013 -0.35170384428443
 1 -10.73685202510251 -1.99261527152715 -1.14061395529553
 1 -2.85936198769877 -1.41998236233623  2.04760655535554
 1 -2.32143271087109  1.46340629172917  1.48679817821782
 1 -1.89958747464747  0.44288170987099  3.76668339363936
 1 -2.62588588888889  1.91269591319132  3.97389649084909
 1 -3.80839141854185  0.33540424272427  3.72627147284728
 1 -2.45633508740874 -1.69590346804680 -0.17298415471547
 1 -2.37660359895990 -0.18165069076908 -0.75838449914992
 1 -0.23268759215922  0.43853797969797  0.68740477097710
 1 -0.52798581148115 -1.35942512251225  1.18319543854385
 1 -4.31148580598060  5.90150828842884  0.91610474847485
 1 -5.62357357615762  7.03077819651965  1.46754235123512
 1 -4.59970174717472  5.62001185058506  2.43074413501350
 1 -7.62289238813881  7.13530056375637  0.88520982728273
 1 -9.50033542634263  5.78615660116011 -1.40810020602060
 1 -9.57911219041904  7.59901518681868 -0.56430613471347
 1 -12.54633918131813  3.29979047754775 -0.18676107470747
 1 -11.77809673197320  3.70711567626763 -1.86673389088909
 1 -13.37424482448245  2.42291790999100 -1.28896194309431
 1 -12.47988281418142 -1.08240836713671 -1.17568214201420
 1 -13.37535827812781  0.54406406780678 -1.54799847714772
 1 -12.89080359535954  0.32766978207821 -3.99682852625263
 1 -11.75343155085509 -0.90142953935394 -3.75459625632563
 1 -13.48175624882488 -1.10231758985899 -3.68566242494249
 1 -9.71680922772277 -4.90290238213821 -0.23768957285729
 1 -9.40558246844684 -4.78209522302230 -1.87213773437344
 1 -8.33307501300130 -5.44374515441544 -0.78768342184218
 1 -3.86596232353235 -3.35884323562356 -0.43697675747575
 1 -1.92852972097210 -6.30171677537754  2.12942864686469
 1 -2.18588516021602 -4.83581332033203  3.57048149844984
 1 -3.40430148554856 -6.23871087108711  3.12251377157716
 1  2.49131092289229 -1.98161490259026 -1.63999113241324
 1  2.48941078397840 -0.38827026502650 -1.99020663996400
 1  3.98303973987399 -0.98242631313131  0.59397844224422
 1  5.22099736423642  1.91986968476848 -2.10948353575358
 1  5.46321328512851  0.58358431363136 -3.21870493759376
 1  3.82981946714671  0.97255006090609 -2.78786414331433
 1  6.45204530163016  1.35605874977498 -0.25587078747875
 1  6.05495332113211 -0.09015460076008  0.85555524962496
 1  7.14378503160316 -1.49723376877688 -0.85299014511451
 1  7.67385713681368 -0.07115161056106 -1.60501935963596
 1  8.68925336693669  0.81494934643464  0.15334659315932
 1  8.55997872777278 -0.93130021702170  0.73103595649565
 1  10.24675154045404 -0.19433923562356 -1.54486520942094
 1  9.18384557215722 -2.73615227802780 -2.12511173667367
 1  11.01667852885289 -2.61760343674367 -1.47484322992299
 1  9.61048949074907 -2.80631250875088 -0.30858437993799
 1  10.97810200030003  0.60584820862086  0.31188465106511
 1  11.26423399279928 -0.93457194269427  1.12602312401240
 1  12.75711221922192 -1.69000287928793 -0.88235167796780
 1  12.45979629622962 -0.06190346324632 -1.75473879237924
 1  13.86182721822182  1.03671406720672  0.25713088718872
 1  13.60726556205621 -0.49213216721672  1.19179875607561
 1  15.17492899029903  0.05896909670967 -1.44226087588759
 1  14.92588798379838 -2.20667895169517 -1.19894391489149
 1  16.61788852515252 -1.70961680118012 -1.03191458405841
 1  15.84222694029403 -2.33573319191919  0.35284798609861
 1  16.04245143674367  1.54018710741074  0.75888973257326
 1  16.31739806250625 -0.01153734463446  1.50231222802280
 1  18.19398547584759 -0.22344082268227 -0.14141882658266
 1  17.69808253365337  0.93687665076508 -1.21174847944794
 1  17.92510421632163  2.61444017171717  0.49766626162616
 1  18.58563157735774  1.13073190999100  1.66295755135514
 1  20.19995822562256  0.75622635633563  0.08254119121912
 1  19.92900559775978  3.56189832193219 -1.40914588878888
 1  21.19355787298730  2.30056566036604 -1.59581490489049
 1  19.59662789858986  1.73133316991699 -1.99195437663766
 1  21.03716872997300  1.92810236053605  2.13629755755576
 1  22.07678151985198  2.50330844744474  0.69812171197120
 1  20.63151081378138  3.44929459996000  1.35396800120012
 1 -7.22156593909391  1.90554482648265  0.54749800660066
 1 -7.37341870847085 -0.28307318291829 -0.25871919211921

