%nproc=4
%Mem=2GB
# td=(NStates=1) B3LYP/SVP 

TD

0 1
 6 -5.07515036553655 -1.94717452345235  0.48524714981498
 6 -4.76672283048305  2.77278750775078  1.48327500360036
 6 -9.24957420102010  3.33553975027503 -0.30204482068207
 6 -9.73462531363136 -1.48365996059606 -1.06220236563656
 7 -5.18502525052505  0.38375483658366  0.96654411241124
 6 -4.51671976957696 -0.75563454705471  0.88220430603060
 6 -3.09214096779678 -0.62832331583158  1.38548179757976
 6 -3.02428658105811  0.84177929552955  1.91227573297330
 6 -4.42578753685368  1.36959400480048  1.50041195259526
 6 -2.93702019991999  0.88889719071907  3.46278613661366
 6 -2.04236957975798 -0.75693070717072  0.27822443014301
 6 -0.51713010111011 -0.68148700350035  0.65361312641264
 6  0.41060556645665 -0.94998191549155 -0.48085394259426
 8  0.09894963086309 -1.31514120402040 -1.55036749134913
 8  1.64193926912691 -0.68710512901290 -0.09836482848285
 7 -7.00623380438044  2.69290403230323  0.56997759175918
 6 -5.96569075007501  3.32706943944394  1.13710783618362
 6 -6.26920819331933  4.73657174097410  1.14934648634864
 6 -7.58602166666667  4.93165448844884  0.54819004910491
 6 -7.98394384478448  3.63359195809581  0.25978731503150
 6 -5.30323948034803  5.82634641704170  1.75422142604260
 6 -8.16991357955795  6.23771348904890  0.35430048434843
 6 -9.13848137093709  6.57941723232323 -0.52283089938994
 7 -9.15973937323732  0.85735421002100 -0.62131910731073
 6 -9.77227900530053  2.05932923462346 -0.60265907660766
 6 -11.12796903490349  1.93213685318532 -1.13592766406641
 6 -11.33529897039704  0.52483652505251 -1.32987304890489
 6 -10.06199290769077 -0.09381643104310 -1.04861834223422
 6 -12.31726592379238  2.87099966906691 -1.24286871597160
 6 -12.48181827922792 -0.26466556495650 -1.97641987698770
 6 -12.53496796639664 -0.37942258865887 -3.50104728912891
 7 -7.43232635833583 -1.31174548904891 -0.27133347844784
 6 -8.50745673117312 -2.08729534373437 -0.72918984738474
 6 -8.16268987618762 -3.37917251875188 -0.74985872437244
 6 -6.81617364556456 -3.47406329062906 -0.15887799309931
 6 -6.40015855545555 -2.09919171827183 -0.03836168206821
 6 -9.10189417451745 -4.55770917091709 -1.02156466326633
 6 -5.65085120662066 -4.33100832773277  0.06988965856586
 8 -5.52546440254025 -5.52187869656966 -0.05336841644164
 6 -4.45061066566657 -3.32426953965397  0.41991724132413
 6 -3.95449786458646 -3.83898759395940  1.77831971727173
 8 -4.26406901860186 -3.46951790769077  2.85299576357636
 8 -3.01613412911291 -4.80260054135414  1.62295803880388
 6 -2.45873940424042 -5.41667257255726  2.76850332063206
 6  2.63257330073007 -0.82451114171417 -1.23055726102610
 6  3.94549865966597 -0.47829245264526 -0.62742935613561
 6  4.95274757495750  0.19298834643464 -1.07592299689969
 6  4.81310182038204  1.06589043074307 -2.30974351335133
 6  6.27981169326933  0.34738736703670 -0.30255171827183
 6  7.50187441464146 -0.20275960906091 -1.03119047244724
 6  8.75802927992799 -0.02360756765677 -0.13420830073007
 6  9.99662151685169 -0.65767024962496 -0.74897587748775
 6  9.89098289168917 -2.15903106890689 -0.86972108680868
 6  11.21759243384338 -0.28206787738774  0.10921845384538
 6  12.53558214281428 -0.54817329572957 -0.58648652585259
 6  13.83083949114912 -0.03415611871187  0.17721408400840
 6  15.07282910401040 -0.29599263506351 -0.41486532233223
 6  15.44744207180718 -1.79730389228923 -0.30616035153515
 6  16.23574617181718  0.56430734193419  0.27990125452545
 6  17.61373821252125  0.52533826772677 -0.22776728452845
 6  18.50365021602160  1.49612823182318  0.50105879877988
 6  20.02431232713271  1.46536216151615  0.04382714311431
 6  20.19941087058706  1.78070750195020 -1.50836724572457
 6  20.86129659525953  2.43151688778878  0.91770817151715
 1 -4.07139530713071  3.53135952025203  1.89074131243124
 1 -10.03658124312431  4.08226766326633 -0.59171784568457
 1 -10.56720506040604 -2.37480349034904 -1.39899979387939
 1 -2.91864791629163 -1.41561192529253  2.15726752145215
 1 -2.16665723332333  1.38636858795880  1.56973647204721
 1 -1.86350386628663  0.45315273697370  3.63777050235024
 1 -2.93197649794980  1.94973961756176  3.95783488468847
 1 -3.68269884928493  0.29655035733573  4.04293313901390
 1 -2.17283673757376 -1.65669954765477 -0.13181003730373
 1 -2.25015095369537  0.00315779007901 -0.56584524522452
 1 -0.28576289968997  0.20695482138214  1.19017504800480
 1 -0.26487950085008 -1.48234741474147  1.28679579857986
 1 -4.29383404080408  5.54270240784078  1.43796693469347
 1 -5.58888010681068  6.81952707140714  1.60723632063206
 1 -5.11848362536254  5.77583743314331  2.96601766236624
 1 -7.77800789968997  7.02458949264926  1.14613591989199
 1 -9.57110250305031  5.92352033753375 -1.19017841384138
 1 -9.66471075027503  7.62117740304030 -0.39145884998500
 1 -12.33015756315632  3.69539003750375 -0.41765416401640
 1 -12.24109303160316  3.36524148884888 -2.27530474797480
 1 -13.18915631563156  2.10837645584558 -1.36826987388739
 1 -12.71945677157716 -1.38854898119812 -1.45425999979998
 1 -13.30959170147015  0.22318197959796 -1.57778145544554
 1 -12.56553106810681  0.58044505960596 -3.94708355175518
 1 -11.53923013071307 -0.92695209160916 -3.87967876457646
 1 -13.36297437063707 -0.77492485058506 -3.78976283498350
 1 -9.83672121892189 -4.92366445834583 -0.09713551745175
 1 -9.93157506770677 -4.13940095359536 -1.79551007160716
 1 -8.50498220372037 -5.57477825772577 -1.08066271977198
 1 -3.48249397669767 -3.54339169046905 -0.07237029682968
 1 -1.92131899989999 -6.31144774847485  2.40850655465547
 1 -1.71150772247225 -4.56287602660266  3.09394384468447
 1 -3.34303535893589 -5.60779777977798  3.40368188838884
 1  2.81689348114811 -1.86956369746975 -1.67923505680568
 1  2.24760660356036 -0.19845128312831 -1.92957057635764
 1  4.23069450535054 -0.97516558705871  0.25983502790279
 1  5.03420868536854  2.07267496529653 -2.00728331573157
 1  5.38379534333433  0.72342829802980 -3.09273234033403
 1  3.65863234843484  1.21442424832483 -2.67894325122512
 1  6.26591668876888  1.46041918581858 -0.19356455685569
 1  6.31643946974697 -0.10291587688769  0.77564725882588
 1  7.39562021512151 -1.28144218961896 -1.19784463056306
 1  7.47634738583858  0.22743824842484 -2.10852971067107
 1  8.87192163376338  1.12584043554355 -0.13465220672067
 1  8.59776250615062 -0.26313340034003  0.71429428232823
 1  10.10464733003300 -0.12748254995500 -1.78942966586659
 1  9.02002919051905 -2.19941860466047 -1.75384460996100
 1  10.53867072807281 -2.84817649404940 -1.47617336293629
 1  9.59595803760376 -2.66266814431443  0.06879335783578
 1  11.12657684778478  0.83604122792279  0.45829929252925
 1  11.31899946934693 -0.92367085258526  1.14343486518652
 1  12.68921542954295 -1.64487836683668 -0.70914435723572
 1  12.67116743334333 -0.09180645354535 -1.61378469696970
 1  13.48680971647165  1.19277967376738  0.27289246334634
 1  13.80113494899490 -0.36839979397940  1.01653122932293
 1  15.32777427482748  0.11893509330933 -1.41997864766477
 1  15.00953634863486 -2.34302258605861 -1.04749877037704
 1  16.56387312361236 -2.04677051655166 -0.35435682828283
 1  15.23047576517652 -2.12775239383938  0.68282098339834
 1  15.84599179077908  1.51594468316832  0.30430427402740
 1  16.33165948864887 -0.02770896179618  1.48134013081308
 1  18.12835891319132 -0.38010648924892 -0.15688037273727
 1  17.53474620002000  0.87339030213021 -1.31548885348535
 1  18.11474318021802  2.61207993569357  0.60356685168517
 1  18.50174318851885  1.26032486928693  1.53169442504250
 1  20.38858708850885  0.44793552725273  0.28648158525853
 1  19.84165686288629  2.72726485858586 -1.68439341354135
 1  21.30605912311231  1.64816041984198 -1.82100742414241
 1  19.66848508430843  1.07570760736074 -2.06065124632463
 1  20.66136114921492  2.36081563186319  2.12046597439744
 1  22.10088393009301  2.17064518111811  0.89522142194219
 1  20.72587024972497  3.60745041554155  0.39588219261926
 1 -7.22900668316832  1.65674994699470  0.54638789558956
 1 -7.43820518711871 -0.27126200180018 -0.09041236143614

