%nproc=4
%Mem=2GB
# td=(NStates=1) B3LYP/SVP 

TD

0 1
 6 -5.07594044454445 -1.92472227822782  0.34662328742874
 6 -4.82768892709271  2.76332656165617  1.55385206130613
 6 -9.36266551015101  3.45039123542354 -0.24087870407041
 6 -9.85111696279628 -1.47864945954595 -0.86789293469347
 7 -5.20082683068307  0.41162762386239  0.86413387138714
 6 -4.49219731733173 -0.74029301290129  0.82396848244824
 6 -3.14680643434343 -0.59038952245225  1.21940518991899
 6 -3.06815096749675  0.83621873947395  1.88900340574057
 6 -4.45401035913591  1.44921196659666  1.48686059745975
 6 -2.91460795869587  0.58827712871287  3.45623548154815
 6 -2.11867721052105 -0.75252026612661  0.11392800050005
 6 -0.67101548964896 -0.74530338513851  0.61153891899190
 6  0.36785129102910 -1.01841875917592 -0.39508536573657
 8  0.00765050095009 -1.44373406330633 -1.56239869446945
 8  1.65099017421742 -0.73953037153715 -0.07979297129713
 7 -7.13843702470247  2.79871461336134  0.58332892689269
 6 -6.01209539053905  3.31849858235824  1.20277440284028
 6 -6.25263653615361  4.75018310211021  1.13477502920292
 6 -7.46683974847485  4.99021034403440  0.51715694579458
 6 -8.05158060846085  3.68008660756076  0.26947828412841
 6 -5.15089424582458  5.74357814021402  1.58513451735174
 6 -7.99050563876388  6.34261397909791  0.09542459675968
 6 -8.92800032283228  6.64867415801580 -0.78461707800780
 7 -9.17492089138914  0.84252272687269 -0.57486446184618
 6 -9.85200697809781  2.11507480918092 -0.57217602830283
 6 -11.22759899789979  1.86142978247825 -0.94976904820482
 6 -11.39477491799180  0.53620766216622 -1.15561562316232
 6 -10.08312502090209 -0.07623467286729 -0.83433691409141
 6 -12.24675887308731  2.99136170527053 -1.13688811791179
 6 -12.59175927332733 -0.14874397279728 -1.60494272927293
 6 -12.73560803040304 -0.27957260366037 -3.14716190059006
 7 -7.44172729842984 -1.28463277777778 -0.30935728082808
 6 -8.58769475497550 -2.03219983418342 -0.73621054945495
 6 -8.14017762496250 -3.38148274977498 -0.74485822432243
 6 -6.79970199839984 -3.46389227352735 -0.34091619691969
 6 -6.34787332693269 -2.07164896399640 -0.05244309020902
 6 -8.93158714381438 -4.70504390439044 -1.17063957075708
 6 -5.68496461796180 -4.24400962786279 -0.04676200660066
 8 -5.58648050415042 -5.50962747144714  0.01618853925393
 6 -4.48541414601460 -3.32083919661966  0.34270952055206
 6 -3.94774718951895 -3.84230792599260  1.66152803810381
 8 -4.10004261596160 -3.23646460236024  2.78010847484748
 8 -3.08402091779178 -4.82275255655566  1.47325306830683
 6 -2.59624315461546 -5.55755666096610  2.68943541384138
 6  2.65835587898790 -1.08055674627463 -1.08151235653565
 6  3.95654976477648 -0.65588021142114 -0.47318393159316
 6  4.96930923112311  0.06967601520152 -1.03814921952195
 6  4.77359786998700  0.94327816951695 -2.26862940194019
 6  6.29378309040904  0.21779440774077 -0.40235169826983
 6  7.44661888908891 -0.49654898799880 -0.87219457285729
 6  8.74759823682368 -0.25509071597160 -0.07826270617062
 6  10.03159501420142 -0.83221770437044 -0.70331131103110
 6  10.02618641204120 -2.43933909970997 -0.98513262796280
 6  11.24482515711571 -0.42899256985699  0.08165569756976
 6  12.70297888248825 -0.52420089848985 -0.64093197039704
 6  13.77253366056606 -0.08753145624562  0.31110747334733
 6  15.19800162126213 -0.16669970577058 -0.33843767956796
 6  15.66807413501350 -1.65698986088609 -0.44963469896990
 6  16.22435503270327  0.68858977017702  0.42831609600960
 6  17.73519035773577  0.68849458335834 -0.19179368716872
 6  18.58990884188419  1.67160577957796  0.66631532443244
 6  20.02770266616661  1.72873849914992  0.03803656405641
 6  20.18572950245025  2.10377980918092 -1.49962637163716
 6  20.92252271787179  2.52934667076708  0.92636903760376
 1 -4.06616478407841  3.41532791709171  2.00450268856886
 1 -9.98475606060606  4.42518195469547 -0.47653632753275
 1 -10.83464180408041 -2.12504851485149 -1.14313420732073
 1 -2.72473852535253 -1.26417678177818  2.01084287898790
 1 -2.19641020862086  1.61533148424842  1.59424892329233
 1 -1.92782029792979 -0.06623920222022  3.74574129942994
 1 -2.92562586288629  1.56848149174917  4.05319442064206
 1 -3.70219079847985  0.10633133543354  3.89011785748575
 1 -2.41530098399840 -1.57110098779878 -0.46511336763676
 1 -2.52573851245125 -0.00737326302630 -0.54358301900190
 1 -0.35096942034203  0.15744987088709  1.26384241474147
 1 -0.62938595149515 -1.68110729072907  1.21705882488249
 1 -4.26484114151415  5.62425056265627  0.83118625662566
 1 -5.42584380318032  6.86557167586759  1.58367396439644
 1 -4.80953273027303  5.49533938333833  2.58601966256626
 1 -7.54865496439644  7.08815584928493  0.77730903720372
 1 -9.23154854765476  5.91153913941394 -1.54207360336034
 1 -9.19445372457246  7.62311759705971 -1.16816652075207
 1 -12.50478502590259  3.48854935343534 -0.24794719331933
 1 -11.92227114941494  4.00542550725072 -1.84489170667067
 1 -13.33964136413641  2.57930354855486 -1.33015606250625
 1 -12.74741956785679 -1.24032415871587 -1.30451502530253
 1 -13.43053379567957  0.57995765716572 -1.46869054635464
 1 -12.54035855085509  0.61742875797580 -3.79944878827883
 1 -12.04143035073507 -0.93313270967097 -3.55706650335034
 1 -13.80287836103610 -0.53036039413941 -3.56325018371837
 1 -9.91851939873987 -4.79966205810581 -0.60190599449945
 1 -9.11049295949595 -4.68786580008001 -2.32723324392439
 1 -8.33905561106111 -5.66984776467647 -1.03454810831083
 1 -3.72152788008801 -3.38746609790979 -0.44568762856286
 1 -2.02728959695970 -6.36048265196520  2.47995369936994
 1 -2.00924749644965 -4.80690042904290  3.30342479277928
 1 -3.40364141954195 -5.97904490449045  3.24632615281528
 1  2.34895668746875 -2.04820156125613 -1.18444557785779
 1  2.24241608450845 -0.58698013601360 -2.13807142644264
 1  4.09225066096610 -1.16951502200220  0.57160620502050
 1  5.03042830733073  1.82307000480048 -2.25238782618262
 1  5.61706867066707  0.59925588078808 -2.92980604770477
 1  3.71842832803280  0.76299910581058 -2.57487284418442
 1  6.77054715181518  1.38612175607561 -0.41611681208121
 1  6.30520834663466 -0.23130871617162  0.70188988308831
 1  7.15777643074307 -1.43878792419242 -1.19421426752675
 1  7.54287403850385 -0.11348584398440 -2.01733059075908
 1  8.85632007360736  0.86087393889389 -0.01990073157316
 1  8.41189391929193 -0.44079116611661  0.99450230313031
 1  10.01917878317832 -0.45863566526653 -1.81942266516652
 1  9.50497768536854 -2.68724738753875 -2.04789401490149
 1  10.96322318331833 -2.75083676007601 -1.41660740634063
 1  9.39617805960596 -2.76975885338534 -0.09061258275828
 1  11.30989517961796  0.66543416721672  0.27414087668767
 1  11.25941351075108 -0.95436392189219  1.09531005270527
 1  12.93926043404340 -1.55686956595660 -0.69257270007001
 1  12.56360667726773 -0.06632390529053 -1.49137245574557
 1  13.81420245574557  1.06931732753275  0.76811198529853
 1  13.78910374587459 -0.85164811881188  1.04703427962796
 1  15.17709920732073  0.22456565636564 -1.50869751955195
 1  14.91194658965897 -2.20368865266527 -1.00504452495249
 1  16.73798053435344 -1.77261310081008 -0.99877126972697
 1  15.98742145974597 -1.91194081268127  0.66913961526153
 1  15.72307949954996  1.72573566226623  0.35280912451245
 1  16.25204152685269  0.46509031813181  1.46832882968297
 1  18.08807488478848 -0.32969144774477 -0.37905258995900
 1  17.49241196659666  0.98961192429243 -1.15311261586159
 1  18.29706141204121  2.73232195989599  0.24260075507551
 1  18.59081209540954  1.26914575137514  1.64354561016102
 1  20.21176940674068  0.60406113981398  0.30297323442344
 1  20.28550124732473  3.18700083218322 -1.66864183838384
 1  21.19192770997099  1.79510511431143 -1.93707903130313
 1  19.37353558935894  1.68602863946395 -2.09985516671667
 1  20.71488650175018  2.42200175047505  1.93228715651565
 1  21.91271511321132  2.44220233683368  0.63096499629963
 1  20.57943560626063  3.55418508900890  0.83801640604060
 1 -7.33732751525152  1.80368464046405  0.60892414921492
 1 -7.41643300990099 -0.38455333093309 -0.15800912111211

