%nproc=4
%Mem=2GB
# td=(NStates=1) B3LYP/SVP 

TD

0 1
 6 -5.17462031253125 -1.89223902990299  0.49571819691969
 6 -4.84898105630563  2.81112134113411  1.37093376947695
 6 -9.38124736833683  3.24067026332633 -0.30397501370137
 6 -9.86308815991599 -1.59351094569457 -0.77767391279128
 7 -5.14539128712871  0.42443890499050  0.79300675867587
 6 -4.49793789138914 -0.65937492109211  0.73312939853985
 6 -3.06455820952095 -0.48253873737374  1.30669391879188
 6 -3.09321347374737  0.98073319091909  1.89157366276628
 6 -4.36231118921892  1.52429947534753  1.25790770217022
 6 -3.10656715461546  0.97776607760776  3.41315117311731
 6 -1.97590293309331 -0.68372338643864  0.14586119381938
 6 -0.50734912301230 -0.69991884668467  0.57347511261126
 6  0.41252575847585 -0.89368628592859 -0.59500535773577
 8  0.12555229112911 -1.36303599349935 -1.59346180078008
 8  1.76651172637264 -0.51488790729073 -0.16774176617662
 7 -7.03819700070007  2.81088583048305  0.45085567956796
 6 -6.05823000400040  3.40540727322732  1.01003512891289
 6 -6.36597787028703  4.83005108890889  1.05451700340034
 6 -7.64524758925893  4.97700902390239  0.58178340844084
 6 -8.10845629602960  3.66666526542654  0.23837517381738
 6 -5.43750290669067  5.76477025942594  1.56239224312431
 6 -8.38547513571357  6.26590630833083  0.37979303360336
 6 -9.43047056985699  6.65202449304930 -0.53923253955396
 7 -9.29007240654065  0.85388386298630 -0.41929890529053
 6 -9.96888866626663  2.03910721242124 -0.45303411411141
 6 -11.30227646564656  1.78044168366837 -0.81197526882688
 6 -11.51085652615262  0.41364540594059 -0.98799886148615
 6 -10.10631734013401 -0.15035208460846 -0.76662014241424
 6 -12.36004020122012  2.95786835593559 -1.07128155725573
 6 -12.64460455785579 -0.32530162856286 -1.62507474247425
 6 -12.52104657425743 -0.64091873827383 -3.18826601100110
 7 -7.50174330003000 -1.24794910941094 -0.21539788488849
 6 -8.60758674417442 -2.10426704090409 -0.57726465486549
 6 -8.18821242844284 -3.36569117061706 -0.56149988848885
 6 -6.83949597779778 -3.35086097039704 -0.22288439373937
 6 -6.39284782438244 -2.05127692679268 -0.02891073697370
 6 -8.94287827292729 -4.61536493649365 -0.99411191799180
 6 -5.66246236773677 -4.20435566246625 -0.06871420182018
 8 -5.56464832093209 -5.43123963266327 -0.16372945254525
 6 -4.49788539313931 -3.26501361406141  0.51755700530053
 6 -3.92482489728973 -3.81223491869187  1.73946583188319
 8 -4.27319993169317 -3.43496445234523  2.85331579557956
 8 -3.23229574527453 -4.83800408170817  1.47076281928193
 6 -2.46313984428443 -5.51590249554955  2.56701317161716
 6  2.67800784418442 -0.83554224482448 -1.17796200150015
 6  4.00225433523352 -0.40319494289429 -0.62011862506251
 6  5.03438573877388  0.15667471507151 -1.23586899149915
 6  4.97179768996900  0.61243508520852 -2.79901244024402
 6  6.33746745884589  0.52823545184518 -0.57030849394940
 6  7.60425465266527 -0.35668500160016 -1.11466882028203
 6  8.95694917191719 -0.07144235113511 -0.41300618051805
 6  10.23452530723072 -0.84872935553555 -0.91727270717072
 6  10.01241503490349 -2.31296646244624 -0.74529864456446
 6  11.46080675527553 -0.23505317591759 -0.17193966196620
 6  12.79420800540054 -0.78656713511351 -0.68424630183018
 6  13.90135654285429 -0.23932663576358  0.12591895449545
 6  15.29526134723472 -0.30531356715672 -0.34755859165917
 6  15.62715004260426 -1.85036919881988 -0.41832156765677
 6  16.21139373657366  0.47451836303630  0.50385364976498
 6  17.63833067176718  0.67701343524352 -0.18629313711371
 6  18.64542439343934  1.44637325632563  0.80543923682368
 6  20.11043093899390  1.55823144844484  0.24654741514151
 6  20.29627055655566  2.15829526072607 -1.16498290729073
 6  21.01430189578958  2.28083181928193  1.31852825352535
 1 -3.93310147774777  3.50439682398240  1.69480171847185
 1 -10.17973555855585  4.10662009850985 -0.25698437233723
 1 -10.62413075297530 -2.19904591459146 -1.01750164406441
 1 -2.83243929542954 -1.24429479357936  2.08819061376138
 1 -2.15907647524752  1.46833678477848  1.63554305270527
 1 -2.12615013091309  0.51872929462946  3.73591031633163
 1 -3.11608490879088  1.99270391399140  3.79684878607861
 1 -4.06662724212421  0.36021672397240  3.62140098579858
 1 -2.35590504440444 -1.73695757345735 -0.44060091639164
 1 -2.13303924252425  0.02543001730173 -0.70568922962296
 1 -0.23720804420442  0.19084321022102  1.33563959445945
 1 -0.32711572447245 -1.81310049004900  1.34547166616662
 1 -4.47914257165717  5.68292643024302  0.82313545154515
 1 -5.67492871167117  6.85322044074407  1.56735233223322
 1 -5.21875365236524  5.69036888628863  2.47266832743274
 1 -7.91135123402340  7.05752278597860  1.08827013331333
 1 -9.59922531533153  5.93651163666367 -1.35330472647265
 1 -9.54035831503150  7.78500378567857 -0.51692139623962
 1 -12.35280982838284  3.62172267076708 -0.16316871547155
 1 -11.85107402970297  3.43886885158516 -1.94133135063506
 1 -13.32947034703470  2.63056867506751 -1.33601664856486
 1 -12.57110193609361 -1.29803993029303 -1.09948452225223
 1 -13.54032477477748  0.19829949134914 -1.50248392569257
 1 -12.76380089508951  0.33547056215622 -3.65852469586959
 1 -11.52917912561256 -0.99065846224622 -3.44254505120512
 1 -13.44749282248225 -1.36081343944394 -3.45752961166117
 1 -9.83964151095110 -5.01443353525353 -0.19922572647265
 1 -9.52383429362936 -4.47887490099010 -1.90945146574657
 1 -8.08098980448045 -5.42078285818582 -1.60807546104610
 1 -3.73665939323932 -3.37630498179818 -0.43686674647465
 1 -1.45732260026003 -6.00540714441444  2.14479018301830
 1 -2.31728830053005 -4.55711545054505  3.35443989428943
 1 -3.21348240364036 -6.41481848184818  3.05227674787479
 1  2.47222901470147 -1.70684742584258 -1.49527666096610
 1  2.38953079597960 -0.03265470347035 -1.98856647594759
 1  4.22069350525053 -0.88124619511951  0.54714375877588
 1  5.12023728822882  1.71330902870287 -2.89273186058606
 1  5.72209917371737 -0.00172421722172 -3.25198826592659
 1  3.98470495569557  0.32549535543554 -3.39459481638164
 1  6.50013011011101  1.50719386328633 -0.68257345774577
 1  6.16299412521252  0.29122353705371  0.38550824492449
 1  7.14504515761576 -1.49484352975298 -0.91389623572357
 1  7.72407215831583 -0.10615511091109 -2.08606746444644
 1  9.14335877747775  1.16408425992599 -0.36605534703470
 1  8.77045977587759 -0.21039812681268  0.58544139703970
 1  10.57756462176217 -0.54180398209821 -1.89892061496150
 1  9.08397558515852 -2.82777143994399 -1.25888511401140
 1  10.88682554355436 -2.76212788918892 -1.44569031463146
 1  10.06322476427643 -2.76749862736274  0.30174665316532
 1  11.34850904100410  0.86043366716672 -0.21637817521752
 1  11.33571114051405 -0.42329081458146  1.07250777247725
 1  12.67806431443144 -1.96079995899590 -0.59797324012401
 1  12.91422173877388 -0.38020529342934 -1.73896721522152
 1  13.65193622912291  0.94881527732773  0.24855002910291
 1  14.04331916741674 -0.52068502250225  1.14208378457846
 1  15.31587308470847 -0.06487328752875 -1.36262291209121
 1  14.91537693269327 -2.58841712551255 -0.65630965146515
 1  16.49275601190119 -1.86528236773677 -1.09598099069907
 1  16.21342406000600 -2.10391000960096  0.64587728902890
 1  15.75466265786579  1.63019610831083  0.78350219381938
 1  16.13152947564756 -0.15683187408741  1.42841483828383
 1  18.09155523282328 -0.33935241384138 -0.41403608830883
 1  17.56092881828183  1.05635859895990 -1.20167747234723
 1  18.45402710861086  2.52861158885889  0.95501199619962
 1  18.50106312051205  0.99014785158516  1.87716897249725
 1  20.49037726752675  0.51428216191619  0.28793173027303
 1  20.10129282648265  3.25127725982598 -1.09366434063406
 1  21.31614013121312  2.14598020182018 -1.51778710211021
 1  19.65957419321932  1.53321335793579 -1.93315849704971
 1  21.25594060716072  1.63404295459546  2.28525245304530
 1  22.21816565826582  2.37601571817182  0.86621852165217
 1  20.67219488218822  3.22001167166717  1.67589019341934
 1 -7.16492027452745  1.85589986198620  0.32355561236124
 1 -7.58818018461846 -0.16851172677268 -0.14884820502050

