%nproc=4
%Mem=2GB
# td=(NStates=1) B3LYP/SVP 

TD

0 1
 6 -5.14285713621362 -1.99533933993399  0.37018564366437
 6 -4.68418457665767  2.61140136913691  1.41872854895490
 6 -9.26600584418442  3.32152834913491 -0.19680429662966
 6 -9.91545339643964 -1.38163975857586 -0.79052519791979
 7 -5.12197894589459  0.39573603470347  0.53369082708271
 6 -4.41809990759076 -0.79083806740674  0.67315340094009
 6 -3.05707746144614 -0.62579306280628  1.11625487488749
 6 -3.04155830823082  0.83224834243424  1.64569907530753
 6 -4.29363432153215  1.31427847324732  1.06936884828483
 6 -3.00530702860286  0.82716101710171  3.22793265126513
 6 -2.05252059485949 -0.91036605070507  0.00767737543754
 6 -0.60070845894589 -0.79830868566857  0.38746651175118
 6  0.43528803470347 -1.04319123642364 -0.68763462066207
 8  0.15825556145615 -1.12645233513351 -1.90390284488449
 8  1.71923699889989 -1.00472689118912 -0.15218021002100
 7 -7.01007418841884  2.79222396429643  0.54573516751675
 6 -5.82724690569057  3.34179091159116  1.03102722812281
 6 -6.14629590209021  4.73285136893689  1.00510206190619
 6 -7.45946901140114  5.02721404440444  0.54491972207221
 6 -7.92875832623262  3.73079167806781  0.23904524082408
 6 -5.07134629102910  5.80350413281328  1.45149115301530
 6 -8.07062365056506  6.30330004770477  0.44347940224022
 6 -8.93465098789879  6.75569486008601 -0.46479509580958
 7 -9.21812521182118  0.90006848144814 -0.38654562996300
 6 -9.76781855925593  2.11623492519252 -0.40366917761776
 6 -11.25452169016902  1.86589022852285 -0.84888896019602
 6 -11.41314675517552  0.63420746214621 -1.11209127072707
 6 -10.14909161756176 -0.05165221462146 -0.73193667406741
 6 -12.10115431263126  3.12368493759376 -1.05853028212821
 6 -12.63651374877488 -0.15729482788279 -1.65499773477348
 6 -12.49978444804480 -0.53035768216822 -2.99467665206521
 7 -7.57712083778378 -1.28631294579458 -0.22993933903390
 6 -8.73383936943694 -1.99041565576558 -0.62020894929493
 6 -8.34603821102110 -3.43197779927993 -0.64990872937294
 6 -7.04704673287329 -3.44210009430943 -0.15018712401240
 6 -6.52697123672367 -2.06863866296630  0.08690084418442
 6 -9.28330231533153 -4.52979637963796 -0.94122662946295
 6 -5.86883300480048 -4.40737596449645  0.14314698429843
 8 -5.84885674177418 -5.59905641434143  0.11170809120912
 6 -4.60248585318532 -3.36732384508451  0.32799804940494
 6 -4.07544995979598 -3.89176287148715  1.63857574287429
 8 -4.50406301800180 -3.47829878577858  2.78625908990899
 8 -3.01789430513051 -4.75002528382838  1.44573031603160
 6 -2.55863939423942 -5.37005791109111  2.63833030333033
 6  2.67912795619562 -1.14878356895690 -1.19771397669767
 6  3.96345045484548 -0.79757438083808 -0.59503611681168
 6  4.93527582778278  0.00237928552855 -1.15479088368837
 6  4.85815632583258  0.63270711241124 -2.46165870487049
 6  6.26944065616562  0.26650927922792 -0.27252871597160
 6  7.55841006820682 -0.43329266236624 -0.85654300770077
 6  8.86129960696070 -0.08120332723272 -0.08403328322832
 6  10.10688254295430 -0.70941542414241 -0.81297227712771
 6  10.04888868226823 -2.28194336013601 -0.92810692539254
 6  11.25808648324832 -0.16496616721672  0.09095662766277
 6  12.62058064266427 -0.55152363076308 -0.46490436763676
 6  13.76840324752475  0.08623592049205  0.36742310491049
 6  15.19344116521652 -0.15533856965697 -0.20554439023902
 6  15.53289061666167 -1.71642580448045 -0.29379911541154
 6  16.37927052425243  0.57160807200720  0.61297456185619
 6  17.66007284598460  0.67308304220422 -0.17940244804480
 6  18.63999385038504  1.60192881188119  0.52284097699770
 6  20.10332022792279  1.74301992729273  0.01517427782778
 6  20.17506843634364  2.45972540374037 -1.31120752975298
 6  21.05582604820482  2.50208394449445  1.00269667036704
 1 -3.81316948454845  3.16140252455246  1.64710694899490
 1 -9.95405299029903  4.20849028552855 -0.33660233413341
 1 -10.74382272217222 -2.02446845684568 -1.09511940584058
 1 -2.89214526602660 -1.51286165026503  1.85379717441744
 1 -2.26050661826183  1.32195214631463  1.30245974437444
 1 -2.03794131003100  0.14167158885889  3.54463118841884
 1 -2.82648594889489  1.96414105770577  3.71078017921792
 1 -3.91703228262826  0.41398210051005  3.61797064276428
 1 -2.11398085198520 -1.92863674137414 -0.58216507280728
 1 -2.15101103970397 -0.23932645834583 -0.82581124182418
 1 -0.46276059945995 -0.00528640274027  1.01221725222522
 1 -0.15890890379038 -1.58521770177018  1.10002712171217
 1 -4.14696935433543  5.61868000560056  0.87752089008901
 1 -5.50337155595560  6.89512463116312  1.39417501450145
 1 -4.80395217221722  5.56754660406041  2.43843490409041
 1 -7.80909100800080  6.95235226892689  1.23449475577558
 1 -9.23175856865686  6.04713269876988 -1.23410280628063
 1 -9.49023330253025  7.66933221852185 -0.62956266036604
 1 -12.04151869926993  3.86560705920592 -0.22006440504050
 1 -11.95219414171417  3.76808177287729 -1.98274549204921
 1 -13.25154255425543  2.93008862706271 -0.88921196809681
 1 -12.44475930183018 -1.18232835913591 -0.84698927272727
 1 -13.54559530183018  0.48015767716772 -1.43030670797080
 1 -12.66578109310931  0.40945796089609 -3.61154999839984
 1 -11.55105131283128 -1.11916131253125 -3.25213601030103
 1 -13.21538961216122 -1.30079743784378 -3.42782664136414
 1 -10.20354790159016 -4.70900299219922 -0.41391719561956
 1 -9.36595850605060 -4.66121313481348 -2.05420594119412
 1 -8.72830453595360 -5.43890467036704 -0.65330998449845
 1 -4.03433916121612 -3.62137948924893 -0.57259031883188
 1 -1.93968083608361 -6.23712031573157  2.19940564456446
 1 -1.85519209090909 -4.71400113911391  3.30633508380838
 1 -3.41673272867287 -5.57704470447045  3.30032155235524
 1  2.86863865566557 -2.25797253835384 -1.72608974227423
 1  2.43522536543654 -0.41956339433943 -2.10153777307731
 1  4.13307474337434 -1.33014108460846  0.38940798519852
 1  5.04661992649265  1.79809750755076 -2.33360594799480
 1  5.57939490329033  0.29422537773777 -3.11476454355435
 1  4.04973145834583  0.60722352825282 -3.34487984488449
 1  6.36028612571257  1.54496764066407 -0.04677987838784
 1  6.05861368716872 -0.00283586888689  0.81370106420642
 1  7.23629428252825 -1.54741878727873 -0.75947079317932
 1  7.66463621472147 -0.13945844124412 -1.90546940464046
 1  8.86174061566157  0.93944179567957  0.05126638513851
 1  8.62635536543655 -0.36340342734273  0.93665651855185
 1  10.24895176047605 -0.34692449414941 -1.85794651755175
 1  9.24414160176018 -2.56420508330833 -1.67341656715672
 1  10.98044490549055 -2.51351302770277 -1.40268601420142
 1  10.01197963976398 -2.62527440494049  0.14882136063606
 1  11.12206639673967  0.98228585238524  0.39107256985699
 1  11.08289585898590 -0.87371585708571  1.17727824952495
 1  12.75068157615762 -1.65780965996600 -0.48892233503350
 1  12.63810412701270 -0.30877815071507 -1.59565288378838
 1  13.65146618211821  1.02091248704870  0.51144631873187
 1  13.87544237973798 -0.52125507950795  1.37739731593159
 1  15.22411390879088  0.17648084788479 -1.21472812261226
 1  14.76297169216922 -2.39944822862286 -0.63095711621162
 1  16.52737947424743 -2.11472731223122 -0.72727412001200
 1  15.55605832343234 -2.17405702430243  0.68730143144314
 1  15.90734792639264  1.77081016971697  0.43818766236624
 1  16.53881020372037  0.33375718481848  1.59298129492949
 1  18.16710278757876 -0.23830230883088 -0.24720940564056
 1  17.58368109350935  0.92435539863986 -1.16836414101410
 1  18.07051875777578  2.69690841854185  0.52547904290429
 1  18.78210122432243  1.40087892469247  1.56158741434143
 1  20.69133736353636  0.69718045174517  0.07237017411741
 1  19.66267896509651  3.37565969806981 -1.02238721292129
 1  21.14705322252225  2.53124872867287 -1.72026735013501
 1  19.66764500030003  1.68235827242724 -1.98476365756576
 1  21.01287630073007  1.99164871517152  1.95336926472647
 1  21.90856469816982  2.61432954955496  0.66042794259426
 1  20.75982364506451  3.52949261976198  1.11654425882588
 1 -6.98219200170017  1.68478275027503  0.32401565836584
 1 -7.45189655625563 -0.17317219281928 -0.27748106830683

