%nproc=4
%Mem=2GB
# td=(NStates=1) B3LYP/SVP 

TD

0 1
 6 -5.12272512301230 -1.88998880488049  0.39196782188219
 6 -4.73286944514451  2.76650687968797  1.32433911001100
 6 -9.40921016461646  3.24563075937594 -0.00369498569857
 6 -9.85625747684768 -1.51798339293929 -0.91917806320632
 7 -5.24874162216222  0.55529199029903  0.83042050005001
 6 -4.55532362996300 -0.63030201380138  0.74401048664866
 6 -3.08349010271027 -0.57029751325133  1.18372162156216
 6 -3.03503765616562  0.95623074067407  1.81419592499250
 6 -4.41454641274127  1.44626167156716  1.33056496789679
 6 -2.94799129702970  0.87527582858286  3.38015787378738
 6 -2.11967731053105 -0.64672968706871  0.01690829852985
 6 -0.69039742784278 -0.69575843064306  0.52280004510451
 6  0.28368287418742 -1.00235715301530 -0.64729058625863
 8  0.05587532343234 -1.37499718961896 -1.71403385798580
 8  1.56943201840184 -0.63890030853085 -0.21837682968297
 7 -7.11047422842284  2.82368711061106  0.58557915191519
 6 -5.90433461446145  3.43600033253325  0.98941306670667
 6 -6.21138241074107  4.82642072587259  0.94027557925793
 6 -7.50297336183618  4.97127845084508  0.46578180828083
 6 -8.08358380878088  3.68158675757576  0.23137447374737
 6 -5.33296245264526  5.82272605500550  1.37576358025803
 6 -8.34191077927793  6.16860657835783  0.33836889118912
 6 -9.22971049384939  6.56611590219022 -0.56416503280328
 7 -9.20821422072207  0.81864033863386 -0.50033700910091
 6 -9.87946972437244  1.94772807450745 -0.40211902260226
 6 -11.35820205820582  1.77291093059306 -0.86549062036204
 6 -11.50932637313731  0.44735877727773 -1.03047310891089
 6 -10.17750445884588 -0.11436848624862 -0.84874835523552
 6 -12.30731492869287  2.94101667076708 -0.99354378347835
 6 -12.69583968136814 -0.34932403080308 -1.45061729672967
 6 -12.79914438403840 -0.64340898729873 -3.00063724812481
 7 -7.47029015471547 -1.28419273377338 -0.34689103420342
 6 -8.54857084258426 -2.09134574877488 -0.59826675507551
 6 -8.13624723192319 -3.40966556805681 -0.61414515301530
 6 -6.75803783198320 -3.34838072237224 -0.26043814911491
 6 -6.42174071367137 -2.03918571767177 -0.01881972787279
 6 -8.98963294839484 -4.76262966296630 -0.99267177397740
 6 -5.62726884838484 -4.20111533843384 -0.06276360676068
 8 -5.54294615071507 -5.40639714841484 -0.05098817841784
 6 -4.49836544114411 -3.24920203290329  0.27560280988099
 6 -3.68090050485049 -3.70850454565457  1.62969485478548
 8 -3.97771038273827 -3.19871082698270  2.69076954095410
 8 -2.91153366906691 -4.68850913221322  1.45246098909891
 6 -2.41252478277828 -5.36119702500250  2.71359783008301
 6  2.54124416781678 -0.87476616721672 -1.21976618191819
 6  3.91381549134914 -0.61462608600860 -0.54981159435944
 6  4.85376767696770  0.04098314591459 -1.02723812841284
 6  4.93641415161516  0.77900174187419 -2.35790832983298
 6  6.23690740284028  0.22231485978598 -0.39860132323232
 6  7.49995422262226 -0.32964229732973 -1.03856120952095
 6  8.81422489948995 -0.21736694359436 -0.22276715661566
 6  10.13770562526253 -0.70249473207321 -0.85793677357736
 6  9.99314310771077 -2.31128629442944 -1.05184929962996
 6  11.36496717131713 -0.41221089168917  0.08752628462846
 6  12.68866745134513 -0.34913339173917 -0.68813669086909
 6  13.85622202940294 -0.05289799289929  0.17053341594159
 6  15.21922374347435 -0.23564660046005 -0.42439627542754
 6  15.75725305290529 -1.75861002290229 -0.62590232573257
 6  16.24850744794480  0.55187609880988  0.41276454085409
 6  17.68793563226323  0.57756349024902 -0.07501200900090
 6  18.50484033503350  1.57999661866187  0.63354204710471
 6  20.06492638853885  1.48535416071607  0.32132489288929
 6  20.50049097859786  2.02632206340634 -1.13743015201520
 6  20.94543500910091  2.13181691779178  1.41032743344334
 1 -3.82085025262526  3.42976936123612  1.47318955725573
 1 -10.13439102410241  3.98872830933093  0.00414174027403
 1 -10.73950229012901 -2.14697070707071 -0.98448834273427
 1 -2.79182523402340 -1.38920928502850  1.89737153185318
 1 -2.25035560316032  1.41042099319932  1.26371586998700
 1 -1.90724824072407  0.51777919961996  3.74428115341534
 1 -3.06785008530853  1.73861850545055  3.69156825802580
 1 -3.69408998839884  0.26764746704670  3.74149299499950
 1 -2.44906436033603 -1.57528140584058 -0.67478433473347
 1 -2.17038297689769  0.13502097639764 -0.65144380508051
 1 -0.48112243564356  0.32720684658466  0.98887491799180
 1 -0.39469248214821 -1.44338351835184  1.36438355735574
 1 -4.17547220462046  5.58070620822082  1.27983112111211
 1 -5.63480469926993  6.92850796949695  1.01417701470147
 1 -5.38466024302430  5.77030688008801  2.53596465706571
 1 -7.82940303920392  7.00301733543354  0.95919722602260
 1 -9.60756614941494  5.91806979247925 -1.48667806380638
 1 -9.64159843904391  7.56332161746175 -0.46991669576958
 1 -12.74186873427343  3.18656915541554 -0.03535593419342
 1 -11.92195111741174  3.66965192989299 -1.76213343084308
 1 -13.39150655065507  2.53308892709271 -1.50179322622262
 1 -12.69871469736974 -1.33386351265127 -1.03154772857286
 1 -13.56054679697970  0.25481514291429 -1.17922159945995
 1 -12.86132064706471  0.33789080418042 -3.52687153055306
 1 -11.80145635333533 -0.97477687408741 -3.10195099179918
 1 -13.55455352855286 -1.47052441054105 -3.45520937963796
 1 -9.91452899969997 -4.74909700160016 -0.47863366726673
 1 -9.28721063126313 -4.75217223072307 -1.94520504110411
 1 -8.34691639713972 -5.65132591249125 -0.67652230573057
 1 -3.71558728602860 -3.24220157145715 -0.40898395819582
 1 -1.51519838783878 -5.97292389608961  2.56325202920292
 1 -2.27414398609861 -4.39380911991199  3.54872932323232
 1 -3.41628268366837 -5.85847284728473  3.17607912811281
 1  2.65362715451545 -1.96611335243524 -1.40431756505651
 1  2.28964080698070 -0.50004144214421 -2.18983660296030
 1  3.97147858375838 -1.14284235473547  0.47263630803080
 1  5.15122038653865  1.92359005680568 -2.31124371177118
 1  5.52863982778278  0.39243519871987 -3.11775484258426
 1  4.12680916611661  0.74039684558456 -3.03023838073807
 1  6.41702179927993  1.30654379827983 -0.34824002440244
 1  6.18326615241524 -0.03838942424242  0.71733142724272
 1  7.07818847194720 -1.37980202560256 -1.25184003010301
 1  7.64317406850685  0.05700120472047 -2.00954981268127
 1  8.92820726232623  0.83168101960196  0.05135639413941
 1  8.64154688458846 -0.71888897589759  0.75692854575458
 1  10.14035090039004 -0.27564736643664 -1.92518324122412
 1  9.00032722032203 -2.63001166396640 -1.49836906240624
 1  10.79465632663266 -2.69184086048605 -1.44503024862486
 1  10.12507094889489 -2.87035891339134 -0.06980050155016
 1  11.13137732783278  0.62879050285029  0.65594905750575
 1  11.51809937933793 -1.21925041054105  0.98557907960796
 1  12.87673418141814 -1.35509938893889 -1.43808725152515
 1  12.86188650525052  0.53664639173917 -1.45449876837684
 1  14.06276731223122  1.06363675947595  0.57357253135314
 1  13.88887372287229 -0.60379333333333  1.09211878807881
 1  15.28058955635564  0.07638083788379 -1.38242489228923
 1  14.83941933693369 -2.16331461526153 -1.12897691819182
 1  16.56842357865787 -1.94056989648965 -1.35836722932293
 1  15.80722343994399 -2.38748836743674  0.24314701600160
 1  15.77281447304730  1.57467055575558  0.63298714231423
 1  16.23967028972897  0.12310611971197  1.43716571337134
 1  18.23529960726073 -0.29881836043604  0.30783609890989
 1  17.63286601200120  0.71757472057206 -1.21722902750275
 1  18.26607831373137  2.74709343704370  0.59004549954995
 1  18.38074108830883  1.60238907570757  1.82197345294529
 1  20.32616084588459  0.43653438713871  0.41536447354735
 1  20.06807950515051  2.90361249334933 -1.26780175437544
 1  21.58826734393439  1.88450405420542 -1.21848717211721
 1  20.16867510331033  1.37040707730773 -1.98716389758976
 1  20.89369438253825  1.58952850315032  2.28930285808581
 1  21.98510235193519  2.28302641924192  1.07806970677068
 1  20.69097676037604  3.19564923542354  1.74450705510551
 1 -7.36983076557656  1.77599187118712  0.52497575437544
 1 -7.60781214781478 -0.23504838043804 -0.39496281648165

