%nproc=4
%Mem=2GB
# td=(NStates=1) B3LYP/SVP 

TD

0 1
 6 -5.06955980648065 -1.89332913891389  0.36992561766177
 6 -4.79593575177518  2.71056128512851  1.51367804390439
 6 -9.28367761136114  3.34296049234923 -0.30290490669067
 6 -9.85746759785979 -1.43903549814982 -1.00798694409441
 7 -5.34495124312431  0.32233869496950  1.07023448144814
 6 -4.54328242584258 -0.71480046364636  0.79978606420642
 6 -3.07931968566857 -0.52742322582258  1.21457470687069
 6 -3.15341949434943  0.88533365096510  1.96954145954595
 6 -4.44940989908991  1.35677272267227  1.42457436883688
 6 -3.23439993789379  0.81207950895090  3.48356821482148
 6 -2.08406374917492 -0.60048506260626  0.14757136483648
 6 -0.59385777387739 -0.65255411021102  0.67205497059706
 6  0.31703620952095 -0.92590950825082 -0.49178503570357
 8  0.01654139003900 -1.18272796269627 -1.62176463106311
 8  1.60716579177918 -0.81496791529153 -0.11454644664466
 7 -7.07971115211521  2.70688543044304  0.56330692469247
 6 -5.99206338733873  3.36510324282428  1.16265039043904
 6 -6.32988426092609  4.77081516531653  1.17111866356636
 6 -7.54417748224822  4.95872719571957  0.54200943104310
 6 -8.04865031543154  3.58832743164316  0.17513885018502
 6 -5.27660681708171  5.84862864526453  1.52878888278828
 6 -8.24032062026203  6.26427614531453  0.24707976227623
 6 -9.07804532733273  6.40614990559056 -0.70935955225523
 7 -9.18057145644564  0.79887836243624 -0.59164614001400
 6 -9.90520229762976  2.04942824452445 -0.54586339703970
 6 -11.20444668266827  1.96061970147015 -1.05109918121812
 6 -11.37019245974597  0.51736577797780 -1.19848991059106
 6 -10.06362307070707 -0.05475252465247 -0.92655613601360
 6 -12.19773397059706  2.92402497159716 -1.10690511961196
 6 -12.46115621302130 -0.20599969836984 -1.75561779677968
 6 -12.72486695629563 -0.53965861226123 -3.22621980638064
 7 -7.47876100180018 -1.25932024652465 -0.35150149524952
 6 -8.66567255275528 -2.02549916411641 -0.60245717411741
 6 -8.17936154335434 -3.35828042954295 -0.51800553905391
 6 -6.87283931213121 -3.33406929122912 -0.16464857015702
 6 -6.43042158175818 -1.99230102920292 -0.12244008990899
 6 -9.08524250935093 -4.52138553855386 -0.96966947374737
 6 -5.84693081458146 -4.26370159705971  0.06346901650165
 8 -5.71849370547055 -5.45173168186819 -0.08337141674167
 6 -4.52438804340434 -3.40760787348735  0.41195644524452
 6 -3.92983539833983 -3.82028572377238  1.72545443074307
 8 -4.14749736143614 -3.38902985888589  2.83207367136714
 8 -3.19923243894389 -4.93193347464747  1.49541528452845
 6 -2.60238376867687 -5.68795970127013  2.55671214151415
 6  2.68544858825883 -1.02493118371837 -1.04057826312631
 6  4.02298640844084 -0.63074769816982 -0.45427204040404
 6  4.91487378757876  0.14078312591259 -1.08747415201520
 6  4.79890040024002  0.78330217191719 -2.50310284928493
 6  6.29180289238924  0.43668629692969 -0.31229269236924
 6  7.51338556575658 -0.30567990109011 -0.98082543594359
 6  8.82403588058806 -0.20224543144314 -0.19653453335334
 6  10.17550940564056 -0.70684516711671 -0.80045102500250
 6  10.06153994739474 -2.18945411121112 -1.16120023472347
 6  11.40119079367937 -0.36931660226023 -0.00176264426443
 6  12.79720830543054 -0.53395187358736 -0.67593547074707
 6  13.94570097729773 -0.04304700780078  0.36010237283728
 6  15.29410123122312 -0.16160919671967 -0.32509634543454
 6  15.67448477607761 -1.69290345224522 -0.39347908340834
 6  16.35069766696670  0.65699661086109  0.41233449784978
 6  17.76945378407841  0.66261199509951 -0.17405191299130
 6  18.71555140614061  1.65432405140514  0.60308900180018
 6  20.18242813871387  1.54051967726773  0.09534229462946
 6  20.36778770827083  2.01205063626363 -1.34450085908591
 6  21.25557602320232  2.25093882998300  0.94940134083408
 1 -4.05164333193319  3.37557394169417  1.87754999329933
 1 -9.96172375737574  4.08176761326133 -0.38314698859886
 1 -10.83360170007001 -2.17841385138514 -1.32092198609861
 1 -2.91009706120612 -1.46856722082208  1.94742653735374
 1 -2.51133170077008  1.57898784988499  1.62081157955796
 1 -2.15504302020202  0.51667908960896  4.12729945524552
 1 -3.70033333363336  1.89388403200320  3.88862796399640
 1 -3.99676025542554 -0.04627392509251  3.89645849154916
 1 -2.19858931283128 -1.62854673237324 -0.49842669896990
 1 -2.44152009060906  0.18910638493849 -0.74073273397340
 1 -0.36147047044704  0.34667879377938  1.08920495099510
 1 -0.55900891379138 -1.46517569756976  1.63394051305130
 1 -4.52474713211321  6.09802794039404  0.62405554355436
 1 -5.96350756955696  6.67819293799380  1.80638623562356
 1 -4.88697047404740  5.49806965636564  2.65228628922892
 1 -7.75027512641264  7.03539057275728  0.86796810311031
 1 -9.43899929272927  5.74864284978498 -1.47760715671567
 1 -9.43551783098310  7.52965825112511 -1.03937364146415
 1 -12.17752229962996  3.48994949344934 -0.23925632423242
 1 -12.07041596389639  3.67883284798480 -1.95903312081208
 1 -13.23217061706171  2.50929654785479 -1.31938498539854
 1 -12.84982980888089 -1.10654078037804 -1.21635620942094
 1 -13.49794053635364  0.37602726412641 -1.66621029832983
 1 -12.79535405040504  0.44923193829383 -3.62702154555456
 1 -11.92907911561156 -1.22717211361136 -3.65919671637164
 1 -13.95588366156616 -0.83127048514851 -3.34038789748975
 1 -10.06924447124713 -4.51226331823182 -0.22973877777778
 1 -9.26274818501850 -4.58180519401940 -2.01672219281928
 1 -8.56732843834384 -5.39170995089509 -0.82623727722772
 1 -3.91344707200720 -3.33575092639264 -0.50593365316532
 1 -2.06827369536954 -6.62910951465147  2.17016272027203
 1 -2.13198977067707 -4.94610434943494  3.42306675697570
 1 -3.54061511691169 -6.04045104510451  3.05344686488649
 1  2.71590338213821 -2.05573231433143 -1.29007614091409
 1  2.50407225012501 -0.48747018501850 -1.80253787308731
 1  4.02228366426643 -0.90312838333833  0.52664170857086
 1  4.82385765026503  1.84212190999100 -2.34855744314431
 1  5.53625058885889  0.52292824802480 -3.15848891599160
 1  3.79646613181318  0.46924973087309 -2.85692104900490
 1  6.37252734983498  1.51184432833283 -0.33379858025803
 1  6.09969779557956  0.05861027572757  0.82410210431043
 1  7.13649430253025 -1.45668971437144 -0.77998284438444
 1  7.57118686978698 -0.09108360376038 -2.09500835853585
 1  8.91572601420142  0.91022887438744  0.03125438393839
 1  8.79027175707571 -0.63549063606361  0.78719157205721
 1  10.25919278457846 -0.09169897159716 -1.83204392729273
 1  9.32276946454646 -2.41378004080408 -2.04802402790279
 1  10.81433829482948 -2.47567924432443 -1.84227997359736
 1  9.80036847864787 -2.77107898539854 -0.19024254575458
 1  11.22152634273427  0.68111573537354  0.22623608620862
 1  11.47837540694069 -0.97695618111811  0.88600912261226
 1  13.02429893789379 -1.72433631263126 -0.90729417221722
 1  12.67556787338734 -0.07119439233923 -1.54287760626063
 1  13.70905194069407  1.03374377017702  0.60246542064206
 1  13.99623445894590 -0.56594954895490  1.27248682488249
 1  15.24415591299130  0.20523372317232 -1.62925957575758
 1  14.71984737973797 -2.30570885468547 -0.58070209070907
 1  16.61951868816882 -1.85805164466447 -1.08918031063106
 1  15.79745246284629 -1.91379099769977  0.66134883618362
 1  16.08351554315431  1.71828491719172  0.66450029362936
 1  16.52687901060106  0.18965277437744  1.49582157895790
 1  18.36846292359236 -0.30667914651465 -0.09678436313631
 1  17.56727945334534  0.92241520462046 -1.29412671727173
 1  18.29756146204621  2.63048177587759  0.50066656165617
 1  18.69376239043904  1.35157399419942  1.77314857045705
 1  20.80002823262326  0.57767850155016 -0.24069113201320
 1  20.10114281148115  3.08983111521152 -1.32695766996700
 1  21.51864038123812  1.90628623242324 -1.94249957335734
 1  19.70978921472147  1.33358339493949 -1.96696187738774
 1  21.24018903200320  2.24114366466647  2.05521944974497
 1  22.23713755545554  2.06838495509551  0.67589948974897
 1  21.10521818451845  3.38595826632663  0.82187479187919
 1 -7.21362514501450  1.71151542354235  0.47505076187619
 1 -7.59419078567857 -0.18417329292929 -0.26939025922592

