%nproc=4
%Mem=2GB
# td=(NStates=1) B3LYP/SVP 

TD

0 1
 6 -5.11634448494850 -2.08288809480948  0.56943556865687
 6 -4.66315247344734  2.61600182918292  1.31424810091009
 6 -9.23971321492149  3.46947314361436 -0.19078369456946
 6 -9.77639949104910 -1.33078467306731 -0.90716686208621
 7 -5.20471721972197  0.33011947304730  0.75880333833383
 6 -4.49328742634263 -0.87394637823782  0.90532661826183
 6 -3.07345909960996 -0.77902838633863  1.36477972737274
 6 -3.07349150155016  0.68434355195520  1.89108361376138
 6 -4.29521447954795  1.32440948634863  1.19276118751875
 6 -3.09873637153715  0.79440774177418  3.34643450145014
 6 -2.12113745654565 -0.95527054115412  0.14947155485549
 6 -0.61904029212921 -1.00389924472447  0.67369513461346
 6  0.35676018191819 -1.10673759105911 -0.48789464666467
 8  0.06763649954995 -1.41033072297230 -1.58996145074507
 8  1.63551862706271 -0.91378779727973 -0.04064905690569
 7 -6.95735891689169  2.64117885978598  0.53549414341434
 6 -5.86146032703270  3.39260599309931  0.99016314171417
 6 -6.00539181168117  4.69569765356536  1.08199975167517
 6 -7.29667273177318  4.99187051005101  0.50961619171917
 6 -7.89143459385939  3.70174877377738  0.25714705100510
 6 -4.94216337273727  5.75368915131513  1.36192219611961
 6 -7.90480706890689  6.30909062676268  0.29997505180518
 6 -8.68058558135814  6.69238852945295 -0.68531714801480
 7 -9.21690508980898  1.04700317491749 -0.38659563496350
 6 -9.86840861826183  2.26488979067907 -0.47282609330933
 6 -11.25567180518052  2.09572321182118 -0.98084215551555
 6 -11.34420986148615  0.67473151455146 -1.16467652925293
 6 -10.01258796719672  0.07946089668967 -0.84814829522952
 6 -12.22959715691569  3.15774834393439 -1.30769519861986
 6 -12.46536663406341 -0.12352145054505 -1.89529176417642
 6 -12.34146861646165 -0.24006865326533 -3.40162734713471
 7 -7.50004313001300 -1.21992630713071 -0.14463080818082
 6 -8.64534051955195 -2.01995861006101 -0.57078400680068
 6 -8.24789839703970 -3.35080968246825 -0.70038377687769
 6 -6.92566459465947 -3.42632851715172 -0.22717482278228
 6 -6.43592213181318 -2.01756355545555  0.05714786888689
 6 -9.06840082518252 -4.52497589758976 -1.20567307410741
 6 -5.88299442094209 -4.29427465436544  0.07577024662466
 8 -5.83766562266227 -5.49425593429343  0.03769068946895
 6 -4.55203080768077 -3.51145825852585  0.56166141574157
 6 -4.04035645044504 -4.03045674087409  1.81387327262726
 8 -4.37950056175618 -3.56563751965196  2.88215867986799
 8 -3.33664618031803 -5.11724200550055  1.72643838683868
 6 -2.86861039133913 -5.76545745104510  2.98784525482548
 6  2.66164620802080 -1.20988967956796 -1.04093829912991
 6  4.00862497229723 -0.92362698609861 -0.48292490569057
 6  4.88492079227923  0.01650069766977 -0.98313371797180
 6  4.69775028522852  0.73592743444344 -2.32291483048305
 6  6.21110482258226  0.28483111141114 -0.29863132623262
 6  7.46140036723672 -0.37323665676568 -1.12175952935294
 6  8.73073655065507 -0.10435564246425 -0.31270615051505
 6  10.05515737043704 -0.57652213481348 -0.93272425232523
 6  10.06701049444944 -2.12586775257526 -1.07004111881188
 6  11.22729340394039 -0.15359503010301 -0.08995146314631
 6  12.68087667226723 -0.38853733213321 -0.65088296549655
 6  13.79946635383538  0.25080237713771  0.07046340894089
 6  15.22634445554555 -0.07077011281128 -0.55263909970997
 6  15.57350467806781 -1.54546870877088 -0.61263099859986
 6  16.19563216041604  0.70614152535254  0.38592185658566
 6  17.68293513221322  0.71760749464946 -0.12712722052205
 6  18.59242909390939  1.59591821082108  0.66784547744774
 6  20.06707660356036  1.69423504880488  0.05518827922792
 6  20.18135906540654  2.48908834003400 -1.25411182018202
 6  20.86101656725673  2.43077681378138  1.23089949064906
 1 -3.84008217581758  3.43647003130313  1.77999023732373
 1 -9.69582716771677  4.48301773827383 -0.46576525042504
 1 -10.64317265716572 -1.96394240424042 -1.32976287018702
 1 -2.86179223072307 -1.60858122222222  2.06536833153315
 1 -2.06146671427143  1.02407235833583  1.70815031343134
 1 -2.11255877177718  0.29638706040604  3.89151587688769
 1 -3.06535983628363  1.77325196879688  3.75295439663966
 1 -3.65848642804280  0.11189189148915  3.69296814251425
 1 -2.39013846774677 -1.94922880058006 -0.09989684598460
 1 -2.21356729532953 -0.19882240794079 -0.68701736243624
 1 -0.35757008040804 -0.14252012611261  1.08520455095510
 1 -0.32711572447245 -1.89097827782778  1.33899101810181
 1 -4.07913257065707  5.76151428902890  0.79522266026603
 1 -5.34908612741274  6.75204032273227  1.50231582858286
 1 -4.83335511251125  5.41336118551855  2.38884994559456
 1 -7.51822192109211  7.01330836453645  1.12204351065107
 1 -9.24805019781978  6.09094708020802 -1.54564396039604
 1 -9.20348462766277  7.66867215251525 -0.61482118621862
 1 -12.27170171757176  3.74078457695770 -0.40056245484548
 1 -11.67878680098010  3.79623458815882 -2.09187640514051
 1 -13.20729812981298  2.93669928812881 -1.72100514741474
 1 -12.53212803870387 -1.16781690799080 -1.32636721052105
 1 -13.57564830713071  0.30110977237724 -1.86269994729473
 1 -12.26290080508051  0.59117613271327 -3.81439028242824
 1 -11.53940014771477 -1.02434183058306 -3.53169396609661
 1 -13.11667974117412 -0.90411776987699 -3.97623148184818
 1 -10.09740728752875 -4.52323441534153 -0.85773157705771
 1 -9.11579348954895 -4.65541255475548 -2.37228774937494
 1 -8.76917862336234 -5.48214899479948 -0.99229388288829
 1 -3.95584131143114 -3.67322467376738 -0.28733179297930
 1 -2.33080994899490 -6.61511811551155  2.57976368036804
 1 -2.23340991269127 -5.08472821182118  3.41698614891489
 1 -3.73055411081108 -6.27654465446545  3.36113763396340
 1  2.41614340614061 -2.21304804590459 -1.31257839113911
 1  2.38230007290729 -0.54723616161616 -1.89250686998700
 1  4.40535197109711 -1.56898496899690  0.34907395179518
 1  4.90851611611161  1.80380807860786 -2.07195978337834
 1  5.37864482828283  0.27993394859486 -3.12838590569057
 1  3.66055254045405  0.81702450835083 -2.54335969286929
 1  6.52284238133813  1.21678482238224 -0.09615481588159
 1  6.18022584838484 -0.17623320862086  0.73341303540354
 1  7.29534018711871 -1.34949899529953 -1.58545339143914
 1  7.64409416051605  0.45839134373437 -1.82408126582658
 1  8.70423486508651  1.01895974747475 -0.35486422792279
 1  8.62349507940794 -0.48528561556156  0.69590244314431
 1  10.10466733203320 -0.24500430213021 -1.97524824772477
 1  9.20845803340334 -2.47092575537554 -1.78820804630463
 1  10.98553541454145 -2.46458813521352 -1.33275902150215
 1  9.89608805060506 -2.51128300580058 -0.05782930443044
 1  11.06854104420442  0.99286691049105  0.19870333293329
 1  11.04794236363636 -0.78744723022302  0.80996151785179
 1  12.87263377137714 -1.54148802780278 -0.32671611441144
 1  12.46591690829083 -0.27484475737574 -1.71885520402040
 1  13.81340237573757  1.28628902470247 -0.05184000990099
 1  14.01683651915192 -0.02121507550755  1.03179275547555
 1  15.39947144454445  0.33638683848385 -1.63126977677768
 1  14.80811620662066 -2.14105238903890 -1.21366538703870
 1  16.58194493079308 -1.67072291179118 -1.03548494109411
 1  15.57274999259926 -2.07115673427343  0.48850155145515
 1  15.80709790139014  1.63410649934994  0.48619246284628
 1  16.26892321502150  0.19397320642064  1.48642063886389
 1  18.05725180248025 -0.26716519511951 -0.36883156785679
 1  17.58242096749675  1.11203416651665 -1.21718902350235
 1  17.96815852175218  2.54086281398140  0.73585008000800
 1  18.52779579377938  1.20085892269227  1.62821407700770
 1  20.42351058085809  0.62494322802280 -0.05884294719472
 1  19.69231192839284  3.54311644374437 -1.26096107030703
 1  21.33867238443844  2.64001960576058 -1.27230255365537
 1  19.71913014881488  1.79778981558156 -2.17441262246225
 1  20.68517353045305  1.91920147044704  2.27788171597160
 1  21.98755259695969  2.02873098969897  1.14913681348135
 1  20.93028069076908  3.51620129062906  1.11328393279328
 1 -7.05420920342034  1.72080635263526  0.50445370217022
 1 -7.39489085568557 -0.19890476607661 -0.21556487668767

