%nproc=4
%Mem=2GB
# td=(NStates=1) B3LYP/SVP 

TD

0 1
 6 -5.20908375887589 -1.94953475947595  0.53449207430743
 6 -4.69955611381138  2.79210943994399  1.43704038013801
 6 -9.22121136473647  3.42793899019902 -0.18154277047705
 6 -9.88076992809281 -1.34590618521852 -1.07189333473347
 7 -5.21943869186919  0.46826328742874  0.87986544454445
 6 -4.53690178777878 -0.67916690029003  0.91577766336634
 6 -3.06550830453045 -0.54872535603560  1.20466371577158
 6 -3.05178933133313  0.88055317291729  1.87080158555856
 6 -4.33297825592559  1.39395644104410  1.34826673807381
 6 -3.19306580448045  0.69775807680768  3.34979483748375
 6 -2.10198554135414 -0.73679869396940  0.02162877057706
 6 -0.57678606670667 -0.94326318111811  0.57901566666667
 6  0.33639814571457 -1.21763868116812 -0.56693255045505
 8  0.02712244814481 -1.73952364226423 -1.67678013261326
 8  1.53092816801680 -0.88544496299630 -0.20582557455746
 7 -6.98079126012601  2.77446218811881  0.42925351935194
 6 -5.89378355935594  3.40955768826883  0.95078920432043
 6 -6.15356662916292  4.74692277607761  1.08494004570457
 6 -7.40060312481248  5.04105542854285  0.64625985608561
 6 -7.98145359575958  3.70545914481448  0.19496083238324
 6 -5.03604276067607  5.85148893129313  1.42211821572157
 6 -8.09423601180118  6.31336105380538  0.53530858515852
 6 -9.07122464526453  6.69938922952295 -0.36544516081608
 7 -9.12224562386239  1.03951242584258 -0.46509348474848
 6 -9.82192396979698  2.20834413611361 -0.51040985168517
 6 -11.23176941494149  2.00936457595760 -0.89574364566457
 6 -11.35113055355536  0.64595863726373 -1.12920298189819
 6 -10.00393710211021  0.02879583018302 -0.98655213561356
 6 -12.19990418761876  3.06570914001400 -0.88518294739474
 6 -12.56831692909291 -0.04142324072407 -1.69230146514651
 6 -12.73362783238324 -0.37348199459946 -3.35316250065007
 7 -7.58485161086109 -1.20308462296230 -0.33120946604660
 6 -8.64830081558156 -1.97023363756376 -0.72202913131313
 6 -8.18203181038104 -3.40142474397440 -0.72067580608061
 6 -6.87016904510451 -3.43234911921192 -0.25236734203420
 6 -6.54970350995099 -2.02270406950695  0.07686984108411
 6 -9.10072405750575 -4.48776217621762 -1.08644115091509
 6 -5.72256837833783 -4.25962118901890  0.02568523812381
 8 -5.69712156825683 -5.55003151185119 -0.12292537213721
 6 -4.50793639823982 -3.37033414611461  0.52010726032603
 6 -3.90987340214021 -3.80746444164416  1.82847473277328
 8 -4.16926953865387 -3.42464342024202  2.82271273527353
 8 -2.94661717741774 -4.78809909120912  1.50222596559656
 6 -2.50327385768577 -5.63391429672967  2.66636310661066
 6  2.51419146254625 -1.22434112471247 -1.18360256555656
 6  3.85719982978298 -0.87717234063406 -0.65189180238024
 6  4.92754505470547 -0.25022597499750 -1.22156756135614
 6  4.95614612481248  0.30937477917792 -2.50731327032703
 6  6.22108582068207 -0.01714908660866 -0.47709917301730
 6  7.46209043624362 -0.70880021312131 -1.03908126152615
 6  8.74429790679068 -0.32562776967697 -0.22669754965497
 6  10.08424027872787 -0.82663714631463 -0.76696767666767
 6  10.08494228762876 -2.37734290009001 -0.84818893359336
 6  11.26650732533253 -0.33605327592759  0.06217374937494
 6  12.65899448404840 -0.64172265066507 -0.46999487668767
 6  13.74717112431243  0.09442673957396  0.30793715631563
 6  15.20556237733773 -0.02965600140014 -0.22935677147715
 6  15.75699302690269 -1.49578374027403 -0.17887762326233
 6  16.23746634383438  1.05514642584258  0.28263152755276
 6  17.67097393609361  0.94329006290629 -0.13232774057406
 6  18.52402225322532  1.89758837783778  0.49618831173117
 6  20.01111100700070  1.76893251855186  0.03362612301230
 6  20.37811874137414  2.24500393159316 -1.37042345134513
 6  20.93484394999500  2.58088182428243  1.14698109880988
 1 -3.92451061866187  3.27684406870687  1.96385862416242
 1 -9.80804838983898  4.48657809430943 -0.24002267616762
 1 -10.57119545944595 -1.96907291729173 -1.75227512141214
 1 -3.04297034853485 -1.38597896199620  1.87364915961596
 1 -2.27788835643564  1.49685963706371  1.61504100250025
 1 -2.44449196509651  0.29316673837384  3.97250397569757
 1 -3.37799109940994  1.82924756835684  3.59568867006701
 1 -4.03951453085309  0.28939964226423  3.64254310001000
 1 -2.37434688858886 -1.69688356605661 -0.55953280958096
 1 -2.10174611321132  0.27046452075208 -0.58676733743374
 1 -0.27965228862886 -0.16276215031503  1.29583561406141
 1 -0.55627864076408 -1.85226440644064  1.19171629062906
 1 -4.06523118051805  5.76311444904490  0.73874701270127
 1 -5.37021824062406  6.86430154885489  1.07838343534353
 1 -4.87295907290729  5.68933878327833  2.55901696229623
 1 -7.88950904980498  7.15317235093509  1.20618192449245
 1 -9.71550694349435  6.04157214271427 -1.24275367136714
 1 -9.40012429162916  7.65048033333333 -0.16879658375838
 1 -12.43488803620362  3.55845634413441  0.06136373777378
 1 -12.01166008830883  3.77495245994599 -1.67329454695470
 1 -13.24634203420342  2.56391200940094 -1.18299134603460
 1 -12.91389621552155 -0.99071919821982 -1.24139871367137
 1 -13.46520726302630  0.51838149954996 -1.42171584888489
 1 -12.61447596259626  0.57119413451345 -3.92563140654065
 1 -11.95443165086509 -1.12746214261426 -3.47816861356136
 1 -13.66912498569857 -0.91033839193919 -3.40430428912891
 1 -9.77600514731473 -4.87292938483848 -0.27977378127813
 1 -9.50480239043904 -4.14496150965097 -1.96519704030403
 1 -8.38466017151715 -5.35780656055606 -1.40864551805181
 1 -3.71624735203520 -3.47001435273527 -0.45429848964896
 1 -1.69756662466247 -6.41198780248025  2.52958866286629
 1 -2.02481905360536 -4.96881662066207  3.37234168446845
 1 -3.47128818421842 -5.97421442144214  3.19612113231323
 1  2.24751654345435 -2.37853459455946 -1.49090622392239
 1  2.48495033793379 -0.60559199719972 -2.02414003330333
 1  3.94535597149715 -1.46541461196120  0.24995403980398
 1  5.56814207870787  1.24617231503150 -2.72820540794079
 1  5.53840080388039 -0.27521156595660 -3.18330139723972
 1  4.03490997619762  0.39245205110511 -3.08344370127013
 1  6.35040513761376  0.99651279517952 -0.17576277667767
 1  6.26389421522152 -0.66524210951095  0.62596229032903
 1  7.34536518961896 -1.84234828022802 -1.21214606070607
 1  7.78784853595360 -0.27635213061306 -2.14284314201420
 1  8.77512195379538  0.75609346084608  0.11428268676868
 1  8.57756048594860 -0.94594168116812  0.87300015291529
 1  10.33792065736574 -0.62073187488749 -1.86515723862386
 1  9.43282046964697 -2.75534419721972 -1.60322954845485
 1  11.27022388338834 -2.48710038643864 -1.29837558315832
 1  9.95122356415641 -2.89460133763376  0.16234271277128
 1  11.25644983508351  0.68415603940394  0.30842430503050
 1  11.26207377677768 -0.83192167766777  1.03965448714871
 1  12.84408091609161 -1.71235511451145 -0.74301774457446
 1  12.77634795139514 -0.41020829372937 -1.62739605810581
 1  13.38466950245024  1.33935433123312  0.40888606270627
 1  13.72996783228323 -0.34871782578258  1.24646422262226
 1  15.11059255665567  0.16106930673067 -1.45225187498750
 1  15.17747314231423 -2.35412369616962 -0.73265728622862
 1  16.68889562586259 -1.37313315281528 -0.67015840844084
 1  16.03436615421542 -1.84218383698370  0.98212091339134
 1  15.73051024262426  2.00873396209621  0.14867871147115
 1  16.27803412611261  0.88768257735774  1.31439343614361
 1  18.22410848814881 -0.02412089068907 -0.07267195189519
 1  17.80737346274628  0.92946590969097 -1.32422972757276
 1  18.12923462936294  2.86898562626263  0.31349784478448
 1  18.59202221642164  1.76952578937894  1.61055231083108
 1  20.27001523132313  0.59207994169417  0.22130506760676
 1  20.09119181638164  3.31691382348235 -1.49125409960996
 1  21.46211472867287  1.94261986578658 -1.74387971137114
 1  19.63542177797780  1.67114715131513 -2.24661984318432
 1  20.64598961206121  2.15260481078108  2.19474340214021
 1  22.05820966266626  2.67270538713871  0.81272317211721
 1  20.75579324202420  3.70309998049805  1.08568117251725
 1 -7.19284306680668  1.83346761876188  0.30729398619862
 1 -7.55407677427743 -0.25324019961996 -0.27298061826183

