%nproc=4
%Mem=2GB
# td=(NStates=1) B3LYP/SVP 

TD

0 1
 6 -5.09873272377238 -1.96776658265827  0.40243886898690
 6 -4.76633279147915  2.70662089108911  1.42914959105911
 6 -9.28635787938794  3.41358755505551 -0.19333394959496
 6 -9.89137098819882 -1.41062265686569 -0.99153529892989
 7 -5.17194394239424  0.42484894599460  0.75309276727673
 6 -4.52379047664766 -0.71030001360136  0.72383846944694
 6 -3.16927868156816 -0.63687417091709  1.29030227962796
 6 -3.01786593899390  0.93090820842084  1.79938444384438
 6 -4.40372533063306  1.41083812921292  1.30028193959396
 6 -2.80600709860986  0.93441174217422  3.33475333333333
 6 -2.19648499129913 -0.85712072617262  0.05088169586959
 6 -0.66669505760576 -0.69320817561756  0.43024078917892
 6  0.27947245314531 -1.10608752605261 -0.70246610381038
 8 -0.04584484858486 -1.53151284118412 -1.83856631123112
 8  1.54453952915292 -0.74382080058006 -0.27009200120012
 7 -7.02164534553455  2.79463420532053  0.59232982698270
 6 -5.82070625162516  3.47180391289129  1.04977910331033
 6 -6.15863713621362  4.87171525532553  1.06133768546855
 6 -7.50997406190619  5.01555287828783  0.66799202930293
 6 -8.06647209760976  3.70178877777778  0.27085842214221
 6 -5.10205936233623  5.89622340474047  1.47300330423042
 6 -8.22444903310331  6.29955967366737  0.45217027132713
 6 -8.98399592239224  6.72105139573957 -0.47741635793579
 7 -9.19240263956396  0.92164063866387 -0.56229320472047
 6 -9.81001277867787  2.08885218691869 -0.48739755045505
 6 -11.29046528452845  1.97960159965997 -0.86472054335434
 6 -11.45580102060206  0.64700874227423 -1.12963302490249
 6 -10.17481418981898 -0.07845489488949 -0.75673915431543
 6 -12.25699989718972  3.01851442054205 -0.96487091619162
 6 -12.71907200460046 -0.13418251665167 -1.57126936193619
 6 -12.76052052165217 -0.61861650805081 -3.04668185258526
 7 -7.52123524922492 -1.22328664316432 -0.21664800990099
 6 -8.66218220372037 -1.97245385958596 -0.63283021142114
 6 -8.27022062926293 -3.42511711321132 -0.62720645914591
 6 -6.86649867806781 -3.34825070937094 -0.30319242454245
 6 -6.44124266386639 -2.05796759585959  0.05700785488549
 6 -9.07919190429043 -4.59380278027803 -0.88443094989499
 6 -5.77880400190019 -4.23979920682068  0.01811448104810
 8 -5.77021887798780 -5.47893440214021 -0.04449752935294
 6 -4.57022262686269 -3.38882599529953  0.36907215681568
 6 -3.81130354515452 -3.80740443564356  1.69277116241624
 8 -4.24046665836584 -3.45304626052605  2.75527599159916
 8 -3.00449296499650 -4.85512579387939  1.41936767976798
 6 -2.45256878717872 -5.67001790709071  2.52128859915992
 6  2.55943598699870 -1.14922361296130 -1.30128433373337
 6  3.90645475527553 -0.81460608400840 -0.71756837003700
 6  5.03016531673167 -0.17590854325433 -1.25599100370037
 6  4.95246575677568  0.45053889558956 -2.65136767576758
 6  6.27954166626663  0.10427305560556 -0.51779324242424
 6  7.53852808000800 -0.66838617171717 -1.09192654605461
 6  8.81484496149615 -0.29034424132413 -0.18614349424943
 6  10.13501535623562 -0.77250173277328 -0.67504848474848
 6  10.27267106050605 -2.28035320112011 -0.80357447214721
 6  11.34593526812681 -0.18142781338134  0.01242877487749
 6  12.80293887848785 -0.64152263066307 -0.37755563276328
 6  13.89012541974197  0.19153645054505  0.35635199779978
 6  15.22237405850585 -0.00479351515152 -0.22744658045805
 6  15.61362869046905 -1.52827698959896 -0.25412514801480
 6  16.22950554775478  0.90752166336634  0.46680994539454
 6  17.61518835753575  0.77634336823682 -0.06575108290829
 6  18.67935778677868  1.77336595559556  0.59266795969597
 6  20.09334923082308  1.62069769506951  0.21900466086609
 6  20.35054598409841  1.84924435563556 -1.32901931093109
 6  20.94533499909991  2.62298603470347  1.16655305600560
 1 -4.09371753935394  3.35165154945495  1.97925016331633
 1 -10.06598418341834  4.37248668516852 -0.15828450235024
 1 -10.69885822572257 -2.03946995699570 -1.42446234013401
 1 -2.96943299479948 -1.41914227832783  2.14623641834183
 1 -2.08230879847985  1.40478042914291  1.18237773617362
 1 -1.87685520142014  0.57815523722372  3.48221494679468
 1 -2.83150645094510  1.87485212881288  3.75237433863386
 1 -3.63105368476848  0.40108081038104  3.68047689338934
 1 -2.44230368426843 -1.85439931763176 -0.31340819711971
 1 -2.50941688028803 -0.09387191289129 -0.69032769346935
 1 -0.55329965336534  0.30401452735273  0.84384041454145
 1 -0.41143415631563 -1.24211339133913  1.32174929392939
 1 -4.42428708610861  6.15290342794279  0.50291342934293
 1 -5.66118733753375  6.84761988068807  1.77014261126113
 1 -4.59307108410841  5.37879772917292  2.31342240284028
 1 -7.93162326122612  6.83825085878588  1.29629093539354
 1 -9.40774616741674  5.99970795629563 -1.18369776577658
 1 -9.35079935913591  7.75426071137114 -0.30220992509251
 1 -12.80652519991999  3.35871637013701  0.03829143054305
 1 -11.96282520482048  3.91395636033603 -1.35568278577858
 1 -13.11306870687069  2.67424304250425 -1.67428047494750
 1 -12.74054888078808 -1.07416754305431 -0.78796337013701
 1 -13.68041878417842  0.16940660206021 -1.33912759005901
 1 -12.58558307330733  0.43003001810181 -3.67205604900490
 1 -11.91230743844384 -1.43261265766577 -3.41110190689069
 1 -13.85631370457046 -0.91696905500550 -3.34091795049505
 1 -10.01295884268427 -4.56744883678368 -0.29489529342934
 1 -9.36650856105611 -4.52885989948995 -1.86773729432943
 1 -8.48874057955796 -5.46190697059706 -0.52538719221922
 1 -4.08862458975898 -3.38868621992199 -0.64511757155716
 1 -1.98312518051805 -6.61840844454445  2.04534023802380
 1 -1.79725629732973 -4.95731547054706  3.18923337363736
 1 -3.43705476087609 -5.95714271427143  3.23297481768177
 1  2.36288808060806 -2.29970671177118 -1.41208834213421
 1  2.12783462636264 -0.44462590059006 -2.18645626492649
 1  4.15006644254426 -1.21499957045705  0.26368541294129
 1  5.39793505800580  1.55308300610061 -2.89561214861486
 1  5.74806176997700 -0.19391343614361 -3.11440450755076
 1  3.97840432563256  0.34859766566657 -3.28858421532153
 1  6.48413851095109  1.22845598949895 -0.58886408680868
 1  5.94265209100910 -0.29293487878788  0.56377607170717
 1  7.42758341144114 -1.71377542294229 -1.25005985208521
 1  7.98122787388739 -0.23142763816382 -2.00147900560056
 1  8.78442288388839  0.88690654215422 -0.42635137663766
 1  8.61205393529353 -0.46018310531053  0.87603045594559
 1  10.24315118041804 -0.28220802250225 -1.70299102200220
 1  9.45683287088709 -2.73825248804881 -1.29769899539954
 1  11.19250611161116 -2.78544022042204 -1.16096184178418
 1  10.08363680548055 -2.66972885038504  0.22857933643364
 1  11.24173836393639  0.78798642244224 -0.03958049544954
 1  11.06678424782478 -0.46861534703470  1.04903542524252
 1  12.84910141814181 -1.62377625662566 -0.30017346014601
 1  12.74722503910391 -0.48140541344134 -1.47553087158716
 1  13.53359439493949  1.29062945874587  0.13975915001500
 1  14.10546538203820 -0.32629558355836  1.47485706190619
 1  15.29856135353535  0.49765296509651 -1.36587323712371
 1  14.84789018401840 -2.12230051385139 -1.13048706920692
 1  16.65805254155416 -1.80943678317832 -0.69713110571057
 1  15.58361107870787 -2.00779039763976  0.68220092139214
 1  15.83887107870787  2.08435152385239  0.41248509210921
 1  16.14042036473647  0.59585339443944  1.54221621842184
 1  17.82893897119712 -0.26980545914591 -0.01733641834183
 1  17.57675040044004  0.89093205630563 -1.15612291689169
 1  18.47829953585359  2.88677740544054  0.50228672367237
 1  18.57005001920192  1.49061789858986  1.71076233183318
 1  20.61812004180418  0.59686041974197  0.65953889098910
 1  19.92601529872987  2.88567069916992 -1.60449542374237
 1  21.51808032523252  1.77247285108511 -1.41333665706571
 1  19.95950418621862  1.15228526512651 -1.98350353155316
 1  20.86227124022402  2.37945749604960  2.05664959275928
 1  22.05567940964096  2.46677479407941  0.85321722152215
 1  20.49631729442945  3.63811348184819  0.91068367276728
 1 -7.01924570707071  1.87338161016102  0.36016927372737
 1 -7.77087845444544 -0.15412028762876 -0.18588190839084

