%nproc=4
%Mem=2GB
# td=(NStates=1) B3LYP/SVP 

TD

0 1
 6 -5.10854370487049 -1.86934674067407  0.48736736183618
 6 -4.65045120332033  2.90570079907991  1.54609128522852
 6 -9.23501274487449  3.31360755705571 -0.26972158835884
 6 -9.78357020812081 -1.44269586418642 -1.17125327072707
 7 -5.11462821082108  0.45974243534353  0.89393685168517
 6 -4.50822892049205 -0.69961894549455  0.90840692629263
 6 -3.09255100880088 -0.53107359085909  1.34812806220622
 6 -3.03164731713171  0.96271138873887  1.91202570797080
 6 -4.29781473957396  1.55723276867687  1.43582549394939
 6 -3.16078257615762  0.98715701670167  3.34769462746275
 6 -2.12832817561756 -0.72144715881588  0.20520712841284
 6 -0.57916630473047 -0.79249810461046  0.65080284538454
 6  0.39639414531453 -1.15786270357036 -0.48933479067907
 8  0.10406014191419 -1.64887457735774 -1.58949140374037
 8  1.59731480668067 -0.90759717821782 -0.08815380738074
 7 -6.97082026302630  2.78540328222822  0.59494008800880
 6 -5.93351753275328  3.46126285878588  1.08061218661866
 6 -6.35341661416142  4.86530461426143  1.07049860156016
 6 -7.52407547204720  4.95236655965597  0.39825505560556
 6 -7.95691114151415  3.63042164106411  0.06576791309131
 6 -5.39373853025303  5.86565034743474  1.61373737763776
 6 -8.28706529472947  6.28056777447745  0.29304435873587
 6 -9.17975549834983  6.59695898649865 -0.62998161446145
 7 -9.23110650995100  0.87645612021202 -0.61598857425743
 6 -9.77613939133913  2.01007430913091 -0.55025383608361
 6 -11.22399863786379  1.92359599909991 -0.93307737903790
 6 -11.44365980648065  0.57031107250725 -1.14688475007501
 6 -10.09805651405141 -0.03505055445545 -0.92716619701970
 6 -12.23964816201620  3.03930649974998 -1.01065549464947
 6 -12.72003210061006 -0.15334443284328 -1.58461069606961
 6 -12.70404487408741 -0.45675032143214 -3.11989917431743
 7 -7.50404353005301 -1.24930924542454 -0.23098944404440
 6 -8.58289427492749 -2.03875048924892 -0.68479540794079
 6 -8.12775638283828 -3.35785038653865 -0.77547128562856
 6 -6.77337936613661 -3.43777966226623 -0.31658376367637
 6 -6.44671321092109 -2.07096889598960  0.10593274737474
 6 -9.00463444854485 -4.57044044404440 -1.09394190099010
 6 -5.66676279777978 -4.22622784968497  0.07570023962396
 8 -5.59287114321432 -5.45799230793079 -0.04840792039204
 6 -4.39755536013601 -3.30310742344234  0.42377762736274
 6 -3.86143855865587 -3.70337403260326  1.71526341164116
 8 -3.93510612231223 -3.17467842374237  2.78779924392439
 8 -3.11428394409441 -4.87798808010801  1.51461720472047
 6 -2.43340687098710 -5.42310321562156  2.58901537183718
 6  2.65201524492449 -1.21013970457046 -1.09284348964897
 6  3.94949905970597 -0.99866448984898 -0.51741835503550
 6  4.80650295049505 -0.08932988538854 -1.13130853545355
 6  4.71594210441044  0.54974881658166 -2.47516005500550
 6  6.16863057515752  0.12791541984198 -0.46432789588959
 6  7.45707993519352 -0.47662699579958 -1.13192054545455
 6  8.72881635863586 -0.27079228612861 -0.33401828172817
 6  10.11951380608061 -0.83079756235624 -1.00723170307031
 6  10.00262405580558 -2.38527369316932 -1.02449656435644
 6  11.23254392899290 -0.40409007960796 -0.12317478547855
 6  12.65452403700370 -0.51408988738874 -0.77139501670167
 6  13.86588299549955 -0.12079478257826  0.25967232983298
 6  15.27783960506050 -0.22656569236924 -0.42018585438544
 6  15.62747007460746 -1.68830299219922 -0.85753548904890
 6  16.36116871407141  0.42525343654365  0.49910317471747
 6  17.64270110881088  0.76352208610861 -0.17609211701170
 6  18.69098894989499  1.46951557055706  0.88517721062106
 6  20.14463435933593  1.76461208650865  0.25910867126713
 6  20.04665559505951  2.60601003220322 -1.05474188318832
 6  20.91986245184518  2.52974671077108  1.34652105280528
 1 -3.93532169976998  3.40063644794479  2.06762900120012
 1 -9.92060964596460  4.17322675917592 -0.40579925382538
 1 -10.48931727162716 -2.07832384238424 -1.27444733863386
 1 -3.01784783628363 -1.38478884298430  2.30502229692969
 1 -2.07355792339234  1.55972592369237  1.47156665506551
 1 -2.29495701160116  0.61795921762176  3.71410813611361
 1 -3.24789809010901  2.12908755235524  3.64741384258426
 1 -3.99021960136014  0.50641134343434  3.88622746844685
 1 -2.36420587448745 -1.51260513821382 -0.67833468976898
 1 -1.89440537913791  0.15477295159516 -0.41830049074908
 1 -0.18630295369537  0.00790491639164  0.95864189468947
 1 -0.34871788468847 -1.47574675467547  1.40951807080708
 1 -4.34022868026803  5.79223736133613  1.12628576657666
 1 -5.73975519431943  6.98210332903290  1.41871746874687
 1 -5.39238101510151  5.86011586098610  2.72456351695170
 1 -8.05936603550355  6.94287132083208  1.06079738603860
 1 -9.45904129692969  6.19900788628863 -1.49078847484748
 1 -9.48545282448245  7.56682196749675 -0.35606531063106
 1 -12.32664721212121  3.34342484098410  0.11562916431643
 1 -11.77328625092509  3.84368933363336 -1.59788700620062
 1 -13.18587598759876  2.81043666186619 -1.46608965586559
 1 -12.54866969286929 -1.09646977327733 -0.86538111191119
 1 -13.67885862816282  0.34157381878188 -1.25943962126213
 1 -13.13022753775378  0.48939595469547 -3.69270811421142
 1 -11.61120732843284 -0.77946734313431 -3.29020981768177
 1 -13.34756282948295 -1.46846420452045 -3.21495535423542
 1 -9.64941248804881 -4.83712580448045 -0.44856065996600
 1 -9.45283719391939 -4.27241425492549 -2.13961448204820
 1 -8.42049375487549 -5.43292407230723 -1.06475112861286
 1 -3.80607633493349 -3.41953930523052 -0.54660772057206
 1 -1.95811267926793 -6.29690629432943  2.11878758275828
 1 -1.81047761946195 -4.58012775177518  3.06218066836684
 1 -3.13392444784478 -5.70570757075708  3.42714423462346
 1  2.61489328112811 -2.23054979607961 -1.30604773807381
 1  2.46911875477548 -0.49948138613861 -2.11842946224622
 1  4.24102553845384 -1.41123919441944  0.43567261166117
 1  4.92953821832183  1.64809250705071 -2.25929851725172
 1  5.51751871567157  0.07711366656666 -3.10940400750075
 1  3.68777526272627  0.39592239813981 -3.09701505840584
 1  6.30004010111011  1.24991813571357 -0.24266946734673
 1  6.04054187998800 -0.11848743404340  0.51707140124013
 1  7.02076272937294 -1.68461250665067 -1.25009985608561
 1  7.59500925202520 -0.09628412381238 -2.21881073877388
 1  8.73774821642164  0.85491334283428  0.00148140664066
 1  8.59649237913792 -0.63903099009901  0.56403925682568
 1  10.10671753705370 -0.49155895759576 -2.09421014391439
 1  9.20567775537554 -2.69750841364136 -1.79845907140714
 1  10.99877673867387 -2.94554623102310 -1.34500024562456
 1  9.62459090089009 -2.81482335983598 -0.03405692719272
 1  11.21617580768077  0.78702632643264  0.13801726432643
 1  11.10509807920792 -0.99986847234723  0.93143366506651
 1  12.75450195819582 -1.69571345034503 -1.18860230303030
 1  12.68514883148315  0.13404613171317 -1.79153247174718
 1  13.90592162766277  0.92864326012601  0.88712388648865
 1  13.95661049654966 -0.93195614961496  1.17613718991899
 1  15.05502700010001  0.47614081388139 -1.45397204700470
 1  15.00074546954695 -2.32155043884388 -1.71198521902190
 1  16.57083381968197 -1.66323216271627 -1.41512290489049
 1  15.85991870947095 -2.28182780138014 -0.05238253695370
 1  15.95274246584658  1.26227931663166  1.08324216781678
 1  16.43189951265127 -0.44436062696270  1.33419541634163
 1  18.29275535283529 -0.20996947554755 -0.61899658435844
 1  17.57297002240224  1.64503746684668 -1.06675397999800
 1  18.19656136203621  2.52423115081508  0.96679317431743
 1  18.74193720792080  0.99944878167817  1.72101335693569
 1  20.69221745154515  0.80471120482048  0.04335727282728
 1  19.49112180938094  3.66583871597160 -0.75797077127713
 1  21.02680119731973  2.78842444624462 -1.62164748814882
 1  19.54331256705671  1.90169020562056 -1.70414559575958
 1  20.78067308040804  2.26780633093309  2.24684861266127
 1  22.04702854455445  2.56321443804380  1.05749764956496
 1  20.53008067076708  3.58240791129113  1.44099670407041
 1 -7.02451623412341  1.92914718671867  0.36206946374637
 1 -7.53682504910491 -0.26749162476248 -0.07158047824782

