%nproc=4
%Mem=2GB
# td=(NStates=1) B3LYP/SVP 

TD

0 1
 6 -4.96217906840684 -1.87820762676268  0.37489611471147
 6 -4.77465362356236  2.87093732273227  1.33620029612961
 6 -9.54579382298230  3.29206540284028 -0.15811042724272
 6 -9.70749260036004 -1.56311790639064 -0.89310545594559
 7 -5.22074882288229  0.57848430953095  0.72947040504050
 6 -4.48188628622862 -0.60138912251225  0.83998008360836
 6 -3.01362311601160 -0.38531901540154  1.23973722312231
 6 -3.04081823422342  1.11686680428043  1.75027953335334
 6 -4.36890184828483  1.53985103050305  1.27004891629163
 6 -2.79230572847285  1.23773207420742  3.34743460146015
 6 -2.06090143294329 -0.61104611871187  0.08544515221522
 6 -0.53427181528153 -0.44875373017302  0.39946771187119
 6  0.34954946084608 -0.82420933823382 -0.82363822102210
 8  0.06956669256926 -1.06901659155916 -1.91801425602560
 8  1.66847192239224 -0.77163358185819 -0.31601659365937
 7 -7.06001918291829  2.77104184608461  0.39170976497650
 6 -5.96780096109611  3.40273700620062  0.90089421482148
 6 -6.38247952045205  4.84098218201820  0.92124367606761
 6 -7.76663972847285  4.99718104110411  0.53180841094109
 6 -8.22222767316732  3.61241984088409  0.18132946924692
 6 -5.39692884928493  5.90479426182618  1.40322632653265
 6 -8.40209679787979  6.27444716241624  0.40887594189419
 6 -9.49710723352335  6.63981327192719 -0.41629024532453
 7 -9.29275267456746  0.74500297489749 -0.39919689508951
 6 -10.04333611101110  1.97402070377038 -0.37975678637864
 6 -11.37616385438544  1.67587122662266 -0.73991806310631
 6 -11.39839528002800  0.31850589198920 -0.97112717431743
 6 -10.07087379577958 -0.19294634403440 -0.80192367276728
 6 -12.56015021222122  2.78216078517852 -0.89415384448445
 6 -12.59177927532753 -0.48938803720372 -1.45459769476948
 6 -12.62919738933893 -0.79430407680768 -2.94456164056406
 7 -7.36106923262326 -1.32826714121412 -0.24505085018502
 6 -8.46763274877488 -2.15424203840384 -0.77220414881488
 6 -7.99474308150815 -3.43823842534253 -0.75242898139814
 6 -6.65112714091409 -3.35924180848085 -0.30183228852885
 6 -6.36513505310531 -2.03863566266627 -0.05585343124312
 6 -8.91203518861886 -4.67641104110411 -0.94747725452545
 6 -5.56083220472047 -4.26693192009201 -0.13656098649865
 8 -5.44558641474147 -5.42993950265026 -0.19448252785279
 6 -4.32637824242424 -3.20367748044804  0.40704595419542
 6 -3.86605902070207 -3.63749744494449  1.79783166846685
 8 -4.10071268296830 -3.14281523742374  2.90947141114111
 8 -3.07920043574357 -4.82381266256626  1.65085082808281
 6 -2.57267079737974 -5.42775368066807  2.83458992929293
 6  2.60193023642364 -1.02944163476348 -1.42168637393739
 6  3.98720283008301 -0.88421304470447 -0.70000661386139
 6  4.89335163536354  0.14010305790579 -1.09215462006201
 6  4.84926543674367  1.06896073777378 -2.40823336233623
 6  6.14589830193019  0.25187781608161 -0.23415487858786
 6  7.48383261046105 -0.28345767886789 -0.96433378677868
 6  8.78382185918592 -0.23066827372737 -0.11650653055306
 6  10.06832868756876 -0.77273175577558 -0.94853583348335
 6  9.98872266566657 -2.19778494429443 -1.36626074077408
 6  11.20486116071607 -0.28363803440344 -0.02696516451645
 6  12.61370995559556 -0.67798627702770 -0.55925380258026
 6  13.84386079327933 -0.00791349444945  0.21458782138214
 6  15.31156297739774 -0.24722775857586 -0.35634947074707
 6  15.48566589418942 -1.82005616751675 -0.48032776827683
 6  16.35754835203521  0.42099301050105  0.62418568296830
 6  17.73887072577257  0.64227996189619 -0.18546305410541
 6  18.75551540254025  1.34000261926193  0.71471016391639
 6  20.11895179107911  1.29105473077308  0.25183794419442
 6  20.18923985348535  2.25045447664767 -0.97092350135014
 6  21.19143960956096  1.87371110721072  1.40539694039404
 1 -4.02794096169617  3.50271665596560  1.72321455975598
 1 -10.16019360436044  4.08438787528753  0.06435776187619
 1 -10.50081842174217 -2.34579058905891 -1.14869476337634
 1 -2.72318837033703 -1.10015037913791  2.01032282698270
 1 -2.19184975257526  1.66076602770277  1.22353185158516
 1 -1.97002451835184  0.52434985668567  3.54726145144514
 1 -2.58832213251325  2.32702734633463  3.61695079627963
 1 -3.62337291669167  0.64302500480048  3.68239708540854
 1 -2.26873632753275 -1.47460133783378 -0.39240609690969
 1 -2.25338127672767  0.10401787608761 -0.64145280598060
 1 -0.35340966436644  0.78487261316132  0.68814484498450
 1 -0.32295530843084 -1.00925010501050  1.11054817381738
 1 -4.26210086748675  5.61725986358636  0.95507864586459
 1 -5.76114733353335  6.97384250295030  1.02717831483148
 1 -5.29912168916892  5.93067291669167  2.66456751735174
 1 -8.05746584548455  6.89998703240324  1.13061436773677
 1 -9.70757615041504  5.82830081558156 -1.24200359635964
 1 -9.63834811401140  7.65575086038604 -0.42664236833683
 1 -12.65772031943194  3.22243274177418 -0.02276467506751
 1 -12.25715463776378  3.27266223092309 -1.66420363786379
 1 -13.50672807280728  2.22684830303030 -1.09371241814181
 1 -12.61203602950295 -1.48293842014201 -0.99519409320932
 1 -13.52813355565556  0.08489815121512 -1.09972364966497
 1 -12.70112462746275  0.21531854695469 -3.51530037343734
 1 -11.54259046674668 -1.08656805320532 -3.09651044774477
 1 -13.46826489968997 -1.47630498859886 -3.16398025672567
 1 -9.35138268506851 -4.73483557545755  0.02186638273827
 1 -9.84102601280128 -4.58122513601360 -1.68840936153615
 1 -8.29853155865587 -5.67582836273627 -1.01437609110911
 1 -3.70606633393339 -3.41400875217522 -0.48211127092709
 1 -1.78196506450645 -6.12736934063406  2.48728443244324
 1 -2.28375494719472 -4.70186992599260  3.66089053935394
 1 -3.39404045944594 -6.10662766276628  3.27449897009701
 1  2.50892268406841 -2.10676741784178 -1.77030416371637
 1  2.29163100600060 -0.33203464146415 -2.22245986528653
 1  4.17269870577058 -1.39897796829683  0.03712275667567
 1  4.84569983448345  2.25801349914991 -1.83401598899890
 1  5.80598756255626  0.87501345654565 -3.10525359245925
 1  3.97682416761676  1.10673347924793 -3.02219757665767
 1  6.37221731883188  1.40868401230123 -0.07317251765177
 1  6.07089491529153 -0.36803238853885  0.83982367646765
 1  7.40732138523852 -1.30659470487049 -1.29682452855286
 1  7.60587033813381  0.38949445404540 -2.01504036173617
 1  8.85672011361136  0.62329018051805  0.30565182368237
 1  8.69799252915292 -0.88636572357236  0.70513336623662
 1  10.22977984328433 -0.34326412811281 -1.96647737063706
 1  9.16142332993299 -2.47657632043204 -2.02495172067207
 1  11.00736759775978 -2.62719439583958 -1.86994273987399
 1  10.02388082988299 -2.76800867836784 -0.44326784828483
 1  11.02585677577758  0.81119874367437  0.09815327792779
 1  11.04200176957696 -0.87989647514752  0.94442496419642
 1  12.74050055805581 -1.79729360836084 -0.60771421422142
 1  12.55952626922692 -0.40927820072007 -1.47463078157816
 1  13.67297833333333  1.11404179998000  0.33286846094609
 1  13.86561139663966 -0.27894084808481  1.26258583478348
 1  15.57462896029603  0.24551775157516 -1.35773242304230
 1  14.84666006100610 -2.50060834463446 -0.95307932843284
 1  16.47681441774177 -2.19885572507251 -0.91335272787279
 1  15.51354407200720 -2.40117973657366  0.56978968026803
 1  15.92271946354635  1.54259734843484  0.82022586618662
 1  16.54665098779878  0.06954076317632  1.52176417321732
 1  18.03858993629363 -0.54415289388939 -0.53183786848685
 1  17.53476620202020  1.48934189728973 -1.08664596919692
 1  18.42835454135414  2.50608933663366  1.05163165816582
 1  18.70813382758276  1.01737057385739  1.89450070567057
 1  20.41355958575858  0.24518525222522  0.01542447954795
 1  19.96732943014301  3.44089622172217 -0.86822179637964
 1  21.16091460866086  2.35111071487149 -1.34590991439144
 1  19.77485572137214  1.78117815441544 -2.02193737493749
 1  20.98504351745175  1.14054360466047  2.30558448624862
 1  22.14890873257325  1.79127724432443  0.97827972777278
 1  20.91568923162317  2.99840951145114  1.64144674907491
 1 -7.39893367586759  1.81021529352935  0.45840909770977
 1 -7.50056142274227 -0.38833370897090 -0.32507582778278

