%nproc=4
%Mem=2GB
# td=(NStates=1) B3LYP/SVP 

TD

0 1
 6 -5.19383223372337 -1.93259306530653  0.41697032213221
 6 -4.65664182238224  2.79538976797680  1.46135281138114
 6 -9.37600684428443  3.37412360866087 -0.13882849904991
 6 -9.81616346744674 -1.40972256685669 -0.98791493689369
 7 -5.18119486748675  0.49299576067607  0.71514897289729
 6 -4.58573667126713 -0.70027901150115  0.69239532513251
 6 -3.06594834853485 -0.61950243374337  1.18685193459346
 6 -3.01183533593359  0.81116623422342  1.74042854825483
 6 -4.32479743784378  1.43473051845184  1.36058797019702
 6 -2.81606810471047  1.02049035003500  3.21609146714671
 6 -2.14820016281628 -0.82753776787679 -0.06836022832283
 6 -0.73790217831783 -0.93388224302430  0.47476524162416
 6  0.37260176607661 -1.05850276757676 -0.60154601180118
 8  0.16690642654265 -1.17434712461246 -1.81757421202120
 8  1.63464854005401 -0.95376179467947 -0.08359335133513
 7 -7.00958413941394  2.81353609550955  0.53321391539154
 6 -5.84653883488349  3.41865859835984  0.98648277367737
 6 -6.21138241074107  4.87462554635464  1.03327487918792
 6 -7.46803986848685  4.93839516251625  0.53156838693869
 6 -8.01324677507751  3.67013561246125  0.19086042234223
 6 -5.16676583298330  5.88286206860686  1.38216422032203
 6 -8.07592418061806  6.34384410211021  0.27502255655566
 6 -9.15412293509351  6.52109139973997 -0.44767338363836
 7 -9.15982938223822  0.87870634523452 -0.45461243664366
 6 -9.82332410981098  2.06639994169417 -0.51716052675268
 6 -11.30927716571657  1.89612325182518 -0.87418148944894
 6 -11.41395683618362  0.51777581898190 -1.11681174277428
 6 -10.16443315171517 -0.03700074947495 -0.84197767816782
 6 -12.30172436963696  2.95978854795480 -1.04501893099310
 6 -12.65010510791079 -0.20104920332033 -1.60033226822682
 6 -12.53037750735074 -0.48599324572457 -3.18821600600060
 7 -7.53695682138214 -1.23543785828583 -0.18403474857486
 6 -8.57604358985899 -1.99959657385739 -0.66812374077408
 6 -8.21168477567757 -3.45160976247625 -0.66406014451445
 6 -6.85906793499350 -3.38046393069307 -0.25687779307931
 6 -6.50144868446845 -2.05133693279328 -0.03685153105311
 6 -8.97480146524652 -4.62883628362836 -1.03907641444144
 6 -5.69494561606161 -4.34749997689769 -0.08791612201220
 8 -5.66659851595160 -5.52315882458246 -0.13729680928093
 6 -4.49847545214521 -3.38837595029503  0.33119836943694
 6 -4.07654006880688 -3.87944163936394  1.69726161146115
 8 -4.38467107880788 -3.41617257315732  2.77123758775878
 8 -3.17494000970097 -4.80894117541754  1.61288703170317
 6 -2.68885241554155 -5.40235114041404  2.86460293059306
 6  2.70458050145014 -1.04139282988299 -1.11243544884488
 6  3.99501361116112 -0.74495911931193 -0.32563917711771
 6  5.00639293949395 -0.04032498489849 -0.94098950355036
 6  4.89481999219922  0.69436327802780 -2.23550608960896
 6  6.24128784088409  0.18574120242024 -0.14333579667967
 6  7.56131035823582 -0.31729106220622 -0.78957631103110
 6  8.87210068706871 -0.32080728762876  0.00264538463846
 6  10.08050990569057 -0.76710119271927 -0.72817379727973
 6  9.95858965236524 -2.18386355215522 -1.03332744744474
 6  11.30876155075508 -0.34441411201120  0.13918145014501
 6  12.59276786138614 -0.59026750515052 -0.56588446564656
 6  13.83910031723172 -0.15072777587759  0.29405576817682
 6  15.21223304440444 -0.17909094489449 -0.44333816961696
 6  15.73964129172917 -1.65218938083808 -0.80602033753375
 6  16.21778437563757  0.51552246344634  0.45691895629563
 6  17.63374021272127  0.74380011391139 -0.18006251405140
 6  18.69791964296429  1.56758537753775  0.70142883578358
 6  20.08310820672067  1.77318294359436 -0.02772001160116
 6  19.96804773427343  2.52014144534453 -1.32630903990399
 6  21.08631909750975  2.40236397249725  1.00816721742174
 1 -3.83585175277528  3.43509989428943  1.66884912321232
 1 -10.10016760176018  4.13414285078508 -0.19347802170217
 1 -10.65614395429543 -1.92680869086909 -1.37578747264726
 1 -2.63126917841784 -1.47695805990599  1.93253504820482
 1 -2.18666923452345  1.36217616871687  1.23940343874387
 1 -1.75005252115212  0.70572799449945  3.50530725602560
 1 -3.08869216951695  2.08604324792479  3.47191629282928
 1 -3.32827340674067  0.26271697399740  3.81682052775278
 1 -2.38373782768277 -1.82328620632063 -0.59236609290929
 1 -2.32992893149315  0.05807328162816 -0.80080874157416
 1 -0.21995631903190 -0.11710758485849  1.15381141164116
 1 -0.75563857675768 -1.95869504950495  1.11172829182918
 1 -4.15514017141714  5.87188532613261  0.89366250425043
 1 -5.58235945474548  7.03491861056106  1.17988358535854
 1 -4.91576335333533  5.68113796319632  2.41399245984599
 1 -7.57567766666667  7.27959499319932  0.69315062136214
 1 -9.80635602840284  5.78612659815982 -1.00352974897490
 1 -9.49004328352835  7.54293957925793 -0.41040074417442
 1 -12.63220776817682  3.18567906640664 -0.00640303890389
 1 -11.68935785808581  3.89416438113811 -1.47698491599160
 1 -13.07001440144015  2.69040465866587 -1.96471951885189
 1 -12.64858968486849 -1.01544167046705 -0.96426099989999
 1 -13.63188393069307  0.30878053945395 -1.42068574587459
 1 -12.47833234823482  0.38599561466147 -3.81508035143514
 1 -11.59155536323632 -1.05220461686169 -3.26818761546155
 1 -13.29376744994500 -1.17319467756776 -3.46568042674267
 1 -9.77121466826683 -4.89144123602360 -0.06028183208321
 1 -9.53106501670167 -4.50147716121612 -2.00554107470747
 1 -8.35867757325733 -5.49164994489449 -1.25256991049105
 1 -3.74657038433843 -3.44528187948795 -0.69522258205821
 1 -1.85264213221322 -6.15913251695170  2.55336104010401
 1 -2.25774234593459 -5.02477221622162  3.58047249754975
 1 -3.57686874227423 -6.19942694269427  3.22351387158716
 1  2.61311310311031 -2.03256999809981 -1.48177531083108
 1  2.57481932483248 -0.37255869386939 -1.84580219951995
 1  4.10866230213021 -1.16029409990999  0.71640068446845
 1  5.05424068856886  1.67779547734773 -2.06660924832483
 1  5.69499646344634  0.11819777497750 -2.97041010811081
 1  3.88510499569957  0.46552935883588 -2.69613497039704
 1  6.27689778687869  1.25649879377938  0.02648744834483
 1  6.09845767156716 -0.20893647894789  0.91322101620162
 1  7.33969462256226 -1.59472351775178 -0.96211105720572
 1  7.87330708180818  0.24292979757976 -1.84480333803380
 1  9.05555999759976  0.56072392389239  0.33936519501950
 1  8.85139786968697 -0.90285737273727  1.07106995989599
 1  10.22408927422742 -0.06835663736374 -1.69293001590159
 1  9.31407859545955 -2.54662332513251 -1.89885911141114
 1  10.84759162016202 -2.68358003440344 -1.46273201880188
 1  9.70886932873287 -2.97314919241924 -0.05945946744674
 1  11.14682887298730  0.65460308410841  0.35480894349435
 1  11.21065863526353 -0.77293577907791  1.24594511621162
 1  12.90095660366037 -1.74390826982698 -0.73803724652465
 1  12.51088140474047 -0.01418869176918 -1.50178349684969
 1  13.72564359985999  0.85915631143114  0.56381155525553
 1  13.74209904540454 -0.72896585058506  1.42197177337734
 1  15.10178167556756  0.44438763856386 -1.49458610841084
 1  15.24091948694869 -2.34762304610461 -1.37724174467447
 1  16.84346108240824 -1.67632347184718 -1.07015840844084
 1  15.64084680228023 -2.01524114271427  0.17709041034103
 1  15.92581977357736  1.63494658335834  0.77570141374137
 1  16.24964128682868 -0.12331852275228  1.26463846064606
 1  18.38341441874188 -0.36924540314031 -0.27985266996700
 1  17.50384310971097  1.28421138423842 -1.22764006860686
 1  18.18417012291229  2.49046777447745  0.83382987798780
 1  18.81406442064207  1.15343418021802  1.78610986658666
 1  20.37683591339134  0.95527626132613 -0.30241730463046
 1  19.38640133733373  3.41925405750575 -1.52431740594059
 1  20.85217373457346  2.66479208300830 -1.94562988638864
 1  19.38504674047405  1.77998803540354 -1.97500268146815
 1  21.24435944904491  1.74819436973697  1.98727265506551
 1  22.18801264296430  2.30254837143714  0.61062296209621
 1  20.64965262796280  3.47744741524152  1.28436104050405
 1 -7.04547833033303  1.84614888688869  0.54928818561856
 1 -7.58624999159916 -0.16343121872187 -0.15270859105911

