%nproc=4
%Mem=2GB
# td=(NStates=1) B3LYP/SVP 

TD

0 1
 6 -5.21226407690769 -1.98502830883088  0.44834345944594
 6 -4.59985614381438  2.64910513951395  1.40723739983998
 6 -9.19666891049105  3.33047924422442 -0.24888950515051
 6 -10.00136198729873 -1.50233182778278 -0.74117026242624
 7 -5.12654940294029  0.41436789788979  0.71085854385439
 6 -4.53516161376138 -0.74947393099310  0.80954704030403
 6 -2.98302005570557 -0.72421290479048  1.28253150255025
 6 -2.97946209860986  0.69223434103410  1.94343884928493
 6 -4.31234619271927  1.35225227062706  1.26451836323632
 6 -3.11036753465347  0.61558985998600  3.46678653665367
 6 -1.97603294609461 -0.86119113321332  0.08444505220522
 6 -0.53051143924392 -0.76626548134813  0.53687145224522
 6  0.36946145204520 -1.02291920922092 -0.64028988618862
 8  0.09886962286229 -1.39539922982298 -1.74166662126213
 8  1.60845592079208 -0.75032145064506 -0.26822181418142
 7 -6.92652583358336  2.64294903680368  0.57797839183918
 6 -5.84408858985899  3.20559729222922  1.03336746214621
 6 -6.10580185268527  4.66375445924592  1.09564111581158
 6 -7.36849991449145  4.95396671967197  0.51963719381938
 6 -7.89223467386739  3.60093869276928  0.24343567986799
 6 -5.05650480688069  5.74348813121312  1.55841184508451
 6 -7.87608419661966  6.27037675537554  0.35603065736574
 6 -8.73366088888889  6.66144543514351 -0.64706332263226
 7 -9.19686308560856  0.84843331793179 -0.46722369776978
 6 -9.76854863226323  2.08905220692069 -0.57504631533153
 6 -11.17684392239224  1.97597123662366 -1.06784085538554
 6 -11.33093853435344  0.62228627002700 -1.22888294989499
 6 -10.15717242564257 -0.03243029242924 -0.86891037143714
 6 -12.00600479767977  3.11407397649765 -1.45796022512251
 6 -12.59255935333533 -0.05154425282528 -1.72733496849685
 6 -12.55136960656066 -0.52512715911591 -3.13301048544854
 7 -7.61047417311731 -1.26172048654865 -0.29315566066607
 6 -8.61560754625463 -2.00251686588659 -0.62122905130513
 6 -8.29920352755275 -3.48768336983698 -0.55578931743174
 6 -7.05274730293029 -3.41216710101010 -0.25125723102310
 6 -6.56378491809181 -2.02429422852285 -0.00393823972397
 6 -9.12310629572957 -4.59817321732173 -0.86396890369037
 6 -5.94442056355636 -4.34615984288429  0.13648631823182
 8 -5.92836469256926 -5.60086659535954  0.16994391479148
 6 -4.70841644624462 -3.41130824352435  0.59217446704670
 6 -4.16039845464546 -3.81324501970197  1.90305219051905
 8 -4.24081669336934 -3.34801575747575  2.98704916891689
 8 -3.38452096779678 -4.94697497879788  1.72780852385239
 6 -2.94007753805381 -5.59893079837984  2.86676314661466
 6  2.69072911631163 -0.97457614821482 -1.28587279257926
 6  4.04432854265427 -0.73111773517352 -0.62763937713771
 6  4.94818711891189  0.18631767936794 -1.06907231183118
 6  4.87956846704670  1.12222606430643 -2.25052759175918
 6  6.31618533063306  0.27216984528453 -0.32948441154115
 6  7.48995322252225 -0.28424775787579 -1.16585393879388
 6  8.80611408840884 -0.08964417131713 -0.27255213511351
 6  9.96556841154115 -0.55616009860986 -1.02699367926793
 6  9.94709850325033 -2.08298346414641 -1.34055817051705
 6  11.25682635723572 -0.12841251185118 -0.19430189818982
 6  12.62884146874688 -0.58960743914391 -0.85934381158116
 6  13.85115152235223 -0.15669837293729  0.18090445304530
 6  15.28568038913891 -0.25730876667667 -0.47338117391739
 6  15.73875120272027 -1.71485564746475 -0.62665240074007
 6  16.22912550975098  0.64047495869587  0.37715097949795
 6  17.71150798949895  0.78519425332533 -0.17831233903390
 6  18.62546239723972  1.60715933493349  0.87546623952395
 6  20.08508840474047  1.67427305260526  0.24438719911991
 6  20.28655958545855  2.35353478467847 -1.05102151115112
 6  20.97344781038104  2.42038577467747  1.40022642334233
 1 -3.93879204680468  3.28220460476048  2.21868410671067
 1 -9.94214179917992  4.25487492399240 -0.29111778567857
 1 -10.71643998389839 -2.11648765876588 -0.94909480338034
 1 -2.88221427292729 -1.72216258035804  2.09275106980698
 1 -2.02595316291629  1.05687563866387  1.46257575597560
 1 -2.04665218111811  0.36641406310631  3.80375710101010
 1 -3.47693099339934  1.70269491309131  4.00117921912191
 1 -3.87496807620762 -0.24520381808181  3.92888173387339
 1 -2.13330278417842 -1.70668454615461 -0.38731558785879
 1 -2.14624056265627 -0.11047357305731 -0.72895155585559
 1 -0.21715603900390  0.25375950185018  1.02229826032603
 1 -0.29278229112911 -1.51933111311131  1.34639175817582
 1 -4.15997065446545  5.18481661926192  0.92495563356336
 1 -5.26912813161316  6.73724884358436  1.26334193119312
 1 -4.75179695669567  5.64246409580958  2.62937399799980
 1 -7.40061015991599  7.08364539823982  1.06231753805381
 1 -9.13933932673267  5.95650363586359 -1.14904430043004
 1 -9.17912219141914  7.73717900320032 -0.79958966306631
 1 -12.36624117151715  3.81443194169417 -0.58132053065307
 1 -11.69833875617562  3.50917588228823 -2.50730794829483
 1 -12.96011341134114  3.13847946614661 -1.95792883978398
 1 -12.76508133403340 -0.77654778107811 -0.97656223002300
 1 -13.41873261556156  0.48506816821682 -1.42549622692269
 1 -12.31373588858886  0.53339035413541 -4.00678952235224
 1 -11.64540074777478 -1.28884828122812 -3.31305210191019
 1 -13.47716578977898 -1.19962732083208 -3.40677453615362
 1 -10.39650719751975 -4.26640873277328 -0.63031883578358
 1 -9.01682359255926 -4.89979699319932 -2.00605112571257
 1 -8.75849755525553 -5.66399717961796 -0.06873152665267
 1 -3.98280400770077 -3.32475982728273 -0.07873093289329
 1 -2.23887075507551 -6.36209281298130  2.61726743074307
 1 -2.45473204490449 -4.86516625562556  3.61771622192219
 1 -3.70335139053905 -5.84771177117712  3.61491301150115
 1  2.43639543134313 -2.05809255035504 -1.46749388268827
 1  2.41902374527453 -0.16433787178718 -2.16472409170917
 1  4.17207864376438 -1.14971304180418  0.33958300270027
 1  5.27245250975098  1.96051374917492 -2.25753834123412
 1  5.51380834463446  0.60012596779678 -3.05367843494349
 1  4.06586307150715  0.97087989388939 -2.82795815271527
 1  6.49619971707171  1.33278642254225  0.03939873947395
 1  6.19593741954195 -0.13795938123812  0.77460715481548
 1  7.34938559165917 -1.27223126852685 -1.48415326142614
 1  7.33085283638364  0.35279078367837 -2.10662952065206
 1  8.71800624222422  0.95621347284728  0.00812207070707
 1  8.96906963686369 -0.85293238023802  0.71353420632063
 1  10.04001086638664 -0.06258606030603 -1.95869659255926
 1  9.07472466006601 -2.15280394319432 -2.22823204870487
 1  10.81162802380238 -2.65495717211721 -1.78477422302230
 1  9.77897633943394 -2.69185106260626 -0.57719124062406
 1  11.38477266736674  0.97006463026303  0.04080754335434
 1  11.28514608400840 -0.59611809730973  0.79141966366637
 1  13.00219672767277 -1.63586746574657 -0.99930337313731
 1  12.72679299589959  0.10376310341034 -1.68871218971897
 1  13.52050308580858  1.09611000680068  0.34126930103010
 1  13.69872470797080 -0.70889384338434  1.19745932213221
 1  15.31046254365437  0.20614381418142 -1.46544319411941
 1  14.96711210621062 -2.12181046484648 -1.23783780428043
 1  16.60073680998100 -1.77619345884588 -1.11420281288129
 1  15.78168088568857 -2.17466708530853  0.41803450475047
 1  15.99393658525853  1.64445753445345  0.51784562816282
 1  16.37753407610761  0.14456826592659  1.33123512031203
 1  18.10291636893690 -0.29285776437644 -0.48107279197920
 1  17.27228995439544  1.48083104620462 -1.17975528012801
 1  18.14475618151815  2.55077380508051  0.93696019101910
 1  18.62118513271327  1.35583442024202  1.93917517311731
 1  20.60796902670267  0.73556429012901  0.27809074617462
 1  19.85147784498450  3.52824495659566 -1.21599657385739
 1  21.35222373957395  2.58059366316632 -1.24139946334633
 1  19.87993622942294  1.92054209080908 -2.04087926912691
 1  20.87175218831883  1.83589313961396  2.34969889768977
 1  22.00637447914791  2.34336245284528  1.09999189898990
 1  20.64613227592760  3.51036070657066  1.59097170157016
 1 -7.08225200770077  1.58603287528753  0.36330958775878
 1 -7.79097046364636 -0.29900477607761 -0.19135245544554

