%nproc=4
%Mem=2GB
# td=(NStates=1) B3LYP/SVP 

TD

0 1
 6 -5.09910276077608 -1.91360116611661  0.45678430353035
 6 -4.71821797999800  2.74122435143514  1.40026670277028
 6 -9.47400664426443  3.40094629092909 -0.25258987518752
 6 -9.83861571267127 -1.39830142474247 -0.90287643304330
 7 -5.21451819981998  0.46762322342234  0.70402786078608
 6 -4.54169226682668 -0.72339132273227  0.80226631223122
 6 -3.13093484718472 -0.60456093959396  1.27141039043904
 6 -3.06731088348835  0.81651676927693  1.84710921632163
 6 -4.43940889898990  1.41983902930293  1.24875678707871
 6 -2.97404390229023  0.99260756175618  3.35986584458446
 6 -2.08366370917092 -0.75784079817982  0.13239984768477
 6 -0.61308969706971 -0.76578543334333  0.65588335343534
 6  0.38647315321532 -1.00275719301930 -0.55198105530553
 8  0.17390712661266 -1.49408909880988 -1.59004145874587
 8  1.60277535273527 -0.61454787328733 -0.16753174517452
 7 -7.15824900590059  2.79272401430143  0.43541413541354
 6 -5.95021920292029  3.38222495499550  1.00758488388839
 6 -6.18402967546755  4.80873895769577  1.06742829452945
 6 -7.55409847434743  4.89897122012201  0.52117734783478
 6 -8.05252070247025  3.70381898079808  0.14403573987399
 6 -5.33270242664266  5.87683146554655  1.62863886778678
 6 -8.15935252345234  6.24644436213621  0.49002405670567
 6 -9.20247777057706  6.76147543814381 -0.30072868916892
 7 -9.25269866916692  0.93466194079408 -0.50751772717272
 6 -9.85973775117512  2.16734003570357 -0.49356816751675
 6 -11.28609484748475  1.90255389488949 -0.98393246454645
 6 -11.42707814831483  0.48297233863386 -1.13820388198820
 6 -10.05487219561956 -0.01490854025403 -0.86963044344434
 6 -12.25450964816482  2.97982055115512 -1.24555898499850
 6 -12.66673677107711 -0.33807290569057 -1.62612484748475
 6 -12.72608707830783 -0.81750639703970 -3.02788997339734
 7 -7.50496362206221 -1.31358567306731 -0.17296364146415
 6 -8.59830581608161 -2.04127074127413 -0.62395932433243
 6 -8.18275188238824 -3.34797939943994 -0.81845558405841
 6 -6.79128115631563 -3.37277316161616 -0.36189829512951
 6 -6.48620716031603 -2.05586738583858  0.02641479557956
 6 -9.02515650075008 -4.65130853085309 -1.21615412221222
 6 -5.65712183368337 -4.26096132303230 -0.04583191359136
 8 -5.51100295639564 -5.42227873657366 -0.19973305290529
 6 -4.53141874647465 -3.31157827052705  0.36269151875188
 6 -4.02525494029403 -3.89592328752875  1.69003088838884
 8 -4.41637424912491 -3.60038099399940  2.84194465846585
 8 -3.13171568726873 -4.88280856215622  1.51130687368737
 6 -2.60565409570957 -5.43429433473347  2.75234170447045
 6  2.64977502090209 -1.01546023662366 -1.08916312161216
 6  3.97255136493649 -0.57821244464446 -0.53685029822982
 6  5.03277557775777  0.10897994559456 -1.14391979657966
 6  4.99467997819782  0.65548939063906 -2.53072561156116
 6  6.33500721282128  0.40277290559056 -0.41691315441544
 6  7.54822905010501 -0.31493082618262 -0.92909026242624
 6  8.75105858285829 -0.03682888978898 -0.02779765966597
 6  10.13005486018602 -0.72944742734273 -0.67955893579358
 6  10.06082987638764 -2.28420358615862 -0.77009112381238
 6  11.31468214281428 -0.13001267186719  0.19319685168517
 6  12.66469505410541 -0.45871434983498 -0.50039791699170
 6  13.90774718191819 -0.00842354545455  0.30958732133213
 6  15.24077589868987 -0.26777981378138 -0.28519235503550
 6  15.56162348994899 -1.75324948684868 -0.51016075157516
 6  16.39151174837484  0.43620453165317  0.49834309870987
 6  17.71422826152615  0.49848558245825 -0.19668417621762
 6  18.82913276427643  1.46548516751675  0.60153884678468
 6  20.19353924982498  1.60699632493249  0.00258301870187
 6  20.25542647214722  1.99173860506051 -1.45922233123312
 6  21.13359382498250  2.56610034613461  0.84762116281628
 1 -3.99273744134413  3.56970335463546  1.68244048234824
 1 -10.07058464346435  4.31283071957196 -0.19198787268727
 1 -10.59701804170417 -2.02850886088609 -1.27785767966797
 1 -3.04671072257226 -1.45431579567957  2.01976377107711
 1 -2.18059862746275  1.22943289438944  1.40972047044704
 1 -2.15817333323332  0.55087250895090  3.72040876617662
 1 -3.04952825312531  2.03333797739774  3.74035313651365
 1 -3.94864544394439  0.54829553185319  3.79440828652865
 1 -2.44653410731073 -1.67628150585059 -0.43991084738474
 1 -2.11131707030703 -0.02374490019002 -0.58947760846085
 1 -0.50306462986299  0.22972709860986  1.15846187668767
 1 -0.73276628952895 -1.76351553155316  1.34576169516952
 1 -4.24762942034203  6.12717085468547  1.14429756775678
 1 -5.94541576037604  6.70722584128413  1.74243984098410
 1 -5.06710848784878  5.55574542394240  2.71469252985299
 1 -7.57272737163716  6.97836487018702  1.23839514581458
 1 -9.64997038983898  6.41821980748075 -1.11715111111111
 1 -9.47739201840184  7.88740402570257 -0.19665937003700
 1 -12.53154770217022  3.49285978447845 -0.27402980158016
 1 -11.69490841314131  3.81013597829783 -1.96676389388939
 1 -13.17583498349835  2.56437205540554 -1.65493854075408
 1 -12.69636446234624 -1.22502262856286 -0.84792936673667
 1 -13.65765650795080  0.26294595599560 -1.02878655595560
 1 -12.86479099409941  0.05372238733873 -3.77175601900190
 1 -12.01166737443745 -1.42567196359636 -3.26470726742674
 1 -13.59407748094810 -1.41594895299530 -3.42162602130213
 1 -10.11533908070807 -4.57738983088309 -0.69918572247225
 1 -9.08859076927693 -4.49648666216622 -2.41715223582358
 1 -8.45807751325133 -5.55251603150315 -1.07809246274627
 1 -3.67815354265427 -3.43527087838784 -0.37051011081108
 1 -1.77228409640964 -6.22069867356736  2.57714341834183
 1 -2.06297286898690 -4.69604934393439  3.35059951025103
 1 -3.52881393679368 -5.70377737773777  3.44911643184318
 1  2.65731752355236 -1.99980672177218 -1.39176630993099
 1  2.60163200610061 -0.24165560356036 -1.99138675797580
 1  4.22378381428143 -1.16524459495950  0.34090313471347
 1  5.50278554305430  1.69320701850185 -2.56297888528853
 1  5.62344930873087 -0.00730477527753 -3.26925999309931
 1  3.99632611781178  0.63826663256326 -2.97213257015702
 1  6.58688878597860  1.59417256115612 -0.61478667906791
 1  6.49758758455846  0.12665708040804  0.81129082318232
 1  7.29836048914891 -1.37407145254525 -1.06194104020402
 1  7.67629738083808  0.21770727532753 -1.93422227992799
 1  8.84616905850585  0.99334718621862 -0.12253099459946
 1  8.51458418831883 -0.22746983398340  0.89391224412441
 1  10.20938780408041 -0.41810161186119 -1.78561928482848
 1  9.17484467206721 -2.57821648444844 -1.56623584908491
 1  11.17253411441144 -2.76438811521152 -0.85485123072307
 1  9.76433487528753 -2.63530540804080  0.25499197769777
 1  11.25629982008201  0.96192381618162  0.40650411301130
 1  11.19464703410341 -0.68584707020702  1.12319284098410
 1  12.66721322932293 -1.54877875687569 -0.37577101990199
 1  12.68122843944394 -0.15254252715272 -1.57818113661366
 1  13.75328636413641  1.09340973677368  0.32595776987699
 1  13.68291312681268 -0.43312626662666  1.29161873807381
 1  15.15656715411541  0.28604180398040 -1.28816546634664
 1  14.66571196619662 -2.24994327812781 -1.04763878437844
 1  16.47210394669467 -1.88029386888689 -1.14243563616362
 1  15.72091480908091 -2.32445206380638  0.35041774307431
 1  15.99491668326833  1.54722781148115  0.93089693329333
 1  16.53016933963396 -0.00267645854585  1.53854585138514
 1  18.19831590889089 -0.49154763336334 -0.16603128782878
 1  17.50496322172217  1.04924788788879 -1.18319562416242
 1  18.16856856275628  2.41673040074007  0.61815831083108
 1  18.87436045024502  1.10595943274327  1.60567182278228
 1  20.58100633043304  0.62606334003400  0.15031796889689
 1  19.55381807900790  2.94056618871887 -1.72409738393839
 1  21.25441395859586  2.23807941174117 -1.86020134353435
 1  19.57832606840684  1.10490052665267 -1.96884206540654
 1  21.16162117521752  2.29717926822682  1.99742367016702
 1  22.14908875057506  2.46826494309431  0.69108100790079
 1  20.79542720542054  3.67633730423042  0.70433303770377
 1 -7.19558334083408  1.78343261526153  0.17740099689969
 1 -7.80257162376238 -0.23589846544654 -0.01810513071307

