%nproc=4
%Mem=2GB
# td=(NStates=1) B3LYP/SVP 

TD

0 1
 6 -5.21041389188919 -1.97490729672967  0.52356098119812
 6 -4.75356151435143  2.70569079807981  1.66190286638664
 6 -9.17462670627063  3.28755495179518 -0.16478109430943
 6 -9.72321417251725 -1.41644323892389 -1.20734688008801
 7 -5.15130187818782  0.37500396149615  0.94532199019902
 6 -4.52105020262026 -0.76185516911691  0.83923000860086
 6 -3.09594134783478 -0.65578606210621  1.43146639603960
 6 -3.07855200760076  0.75038015561556  2.05824032943294
 6 -4.46654161226123  1.32350939633963  1.49018092949295
 6 -3.18175467336734  0.60724902590259  3.56859671767177
 6 -2.10675601840184 -0.70848586268627  0.26976358405841
 6 -0.64336272437244 -0.70020887568757  0.69069683478348
 6  0.36831133703370 -0.95925284258426 -0.35709156635664
 8  0.03121285718572 -1.38079776967697 -1.48929138373837
 8  1.61413648884888 -0.68301471997200 -0.08170316231623
 7 -6.99345252625263  2.72507724962496  0.56023661766177
 6 -5.91058523952395  3.35154188668867  1.14484861026103
 6 -6.19232050455045  4.74513259705971  1.22768432013201
 6 -7.46784984948495  4.97392871587159  0.63459868996900
 6 -7.93102855325533  3.60025862476248  0.28643998029803
 6 -5.20918007440744  5.90820460286029  1.62690869476948
 6 -8.08448503670367  6.18004772247225  0.46715176947695
 6 -8.99392691549155  6.45855514611461 -0.48226684298430
 7 -9.10659405870587  0.81842031663166 -0.57405438083808
 6 -9.75873765116512  2.05126842854285 -0.52876168686869
 6 -11.09874611261126  1.97130076957696 -1.07085115641564
 6 -11.27543298379838  0.71066510791079 -1.55161522312231
 6 -10.08444515291529 -0.02971002040204 -1.06380986138614
 6 -12.13416761396140  3.17210978007801 -1.36383081218122
 6 -12.42687278467847 -0.09325842424242 -2.04685692069207
 6 -12.49883435303530 -0.30623526992699 -3.69316650105011
 7 -7.44365749144915 -1.34057837233723 -0.42697904300430
 6 -8.52834882038204 -2.01326794099410 -0.89415634403440
 6 -8.18554216141614 -3.38712331383138 -0.90059379787979
 6 -6.85465749394939 -3.41766765106511 -0.39474157945795
 6 -6.47752629222922 -2.13241504060406 -0.09229707560756
 6 -9.04536852195220 -4.55078847884788 -1.22999550635063
 6 -5.71287740924092 -4.32913814071407  0.06796946654665
 8 -5.78359021512151 -5.59324583328333 -0.00747382698270
 6 -4.53647925252525 -3.41553866656666  0.58689393899390
 6 -4.09948236303630 -3.88359205440544  1.97753963926393
 8 -4.46997960966097 -3.37702865876588  2.97456792079208
 8 -3.21339385508551 -4.93409369066907  1.90179592259226
 6 -2.91056458675868 -5.58796970227023  3.14773124342434
 6  2.61406144954495 -0.96564525512551 -1.02284648994900
 6  3.95602971277128 -0.67814243764376 -0.32852946614661
 6  4.94203650385038 -0.03075402780278 -1.07514291889189
 6  5.01013152335234  0.43810765246525 -2.59003154215422
 6  6.26208992109211  0.30464309260926 -0.31674313741374
 6  7.58389261646165 -0.32489182228223 -0.95833318671867
 6  8.78046152315232 -0.10338554545455 -0.07439231913191
 6  10.04792664736474 -0.54965944854485 -0.69281026092609
 6  9.95599939333933 -2.03319848564856 -1.19632374707471
 6  11.33017369196920 -0.20830050065006  0.21250878287829
 6  12.63326191079108 -0.42883136153615 -0.66532440964096
 6  13.89139554675467  0.11121841874187  0.12596895949595
 6  15.24861668276828 -0.11528456425643 -0.42646648244824
 6  15.61707903550355 -1.59516367826783 -0.47525726122612
 6  16.23332592979298  0.69475038623862  0.33584684908491
 6  17.62630946964696  0.83882961686169 -0.31910641844184
 6  18.72812266326633  1.55076369536954  0.43017171007101
 6  20.11259115501550  1.53294892019202 -0.06646388598860
 6  20.19580050955096  1.98336776797680 -1.50974738373837
 6  20.99136960256026  2.39961369746975  0.81268766946695
 1 -3.98997716531653  3.32312869716972  1.95134737303730
 1 -9.84220180518052  4.23640307680768 -0.13308198209821
 1 -10.49661800170017 -2.08746475647565 -1.81344123802380
 1 -2.84489054055406 -1.52877324142414  2.14029582428243
 1 -2.19172974057406  1.26714666576658  1.68742824122412
 1 -2.02029954585459  0.54512193389339  4.10762748804880
 1 -3.45295859615962  1.59633427702770  4.20990009120912
 1 -3.64481506090609 -0.42497179487949  4.21365021072107
 1 -2.13252270617062 -1.69877375507551 -0.46912376867687
 1 -2.10285622422242  0.13190066436644 -0.46752541324132
 1 -0.33485780918092  0.02960708660866  1.28514454495450
 1 -0.54437745064506 -1.59891907190719  1.34968208720872
 1 -4.28257291469147  5.83466160376038  1.01301443944394
 1 -5.99136035483548  6.81260637933793  1.50629622662266
 1 -4.83152492949295  5.84955480488049  2.72115317591759
 1 -7.93523362226223  7.26833386708671  0.84132543884388
 1 -9.39925531833183  5.83011099659966 -1.33091248724873
 1 -9.52195647484749  7.53406869216922 -0.61798150225022
 1 -12.47242178957896  3.57930842934294 -0.44222662126213
 1 -11.86083500580058  3.84995996069607 -2.04009122662266
 1 -13.09871727172717  2.66950256845685 -1.89191223812381
 1 -12.59372419831983 -0.93540366666667 -1.53443801760176
 1 -13.62173291559156  0.24228388978898 -1.95840951825182
 1 -12.39736425142514  0.68009502460246 -4.13818266166617
 1 -11.56349255695570 -0.78462785918592 -4.09346014271427
 1 -13.41378945214522 -0.73709106720672 -4.01190504920492
 1 -9.95003255005501 -4.56054814671467 -0.65912171607161
 1 -9.59075098529853 -4.62401941544154 -2.21279179977998
 1 -8.74641634713472 -5.58428920882088 -1.23230788428843
 1 -3.82550827812781 -3.55239259055906 -0.20434349414942
 1 -2.41737860586059 -6.67556416011601  2.84043974797480
 1 -1.98389496119612 -4.88243798279828  3.68508295859586
 1 -3.72999405480548 -5.68515551555155  3.75157667786779
 1  2.37452924472447 -1.92126886798680 -1.35057219051905
 1  2.51658350125012 -0.46837827582758 -1.96381400070007
 1  4.21335277117712 -0.76785485598560  0.76912595699570
 1  5.34338960346035  1.55308300610061 -2.61310389778978
 1  5.73189015281528 -0.41945599039904 -3.15325839293929
 1  3.96680316551655  0.29545235113511 -2.83292864976498
 1  6.32276237333733  1.34894803870387 -0.22212741314131
 1  6.01960978677868  0.10908532323232  0.82956265036504
 1  7.31275192829283 -1.36354039943994 -0.86936178227823
 1  7.56689644074407 -0.01292578797880 -2.01132999069907
 1  8.73466790839084  0.85673352485249  0.39723098159816
 1  8.69059178907891 -0.66144323132313  0.82619547244724
 1  10.13904076937694  0.15539573787379 -1.44423514641464
 1  8.95276246384639 -2.22537119991999 -1.82707193269327
 1  10.99374623562356 -2.37883956035604 -1.84243998959896
 1  9.79023746554656 -2.76506838433843 -0.40577409890989
 1  11.05507969806981  0.82775039883988  0.43194665726573
 1  11.44263183258326 -1.06581506700670  0.85049557125713
 1  12.60214672267227 -1.38660253925393 -0.96878032083208
 1  12.66152646924692  0.22760548764876 -1.68273159165917
 1  13.73658469396940  1.13357375317532  0.19779495359536
 1  13.85027986348635 -0.29768272227223  1.09680925712571
 1  15.15595709310931  0.16326952675268 -1.44619126892689
 1  14.77636303130313 -1.99239752355236 -1.02536655715572
 1  16.45512224852486 -1.79645548504850 -1.20364175677568
 1  15.66104882248225 -1.92577219581958  0.45151785308531
 1  15.84685187678768  1.76774986368637  0.58906274987499
 1  16.48138446114612  0.10963477257726  1.39545154195420
 1  17.98952502980298 -0.20356883548355 -0.53074775947595
 1  17.34466719211921  1.41247421052105 -1.25890319491949
 1  18.43107481338134  2.58509723742374  0.77133362836284
 1  18.66779979417942  1.12522135893589  1.41271252685269
 1  20.47518574837484  0.40746147984798  0.13083602070207
 1  19.65888858605861  3.06145827792779 -1.62833780798080
 1  21.23615213241324  2.19494509830983 -1.76384170757076
 1  19.77604584038404  1.10332036863686 -2.24834001520152
 1  20.85485049814982  1.83000255055506  1.79229315711571
 1  21.99364320602060  2.43918203480348  0.38484038383838
 1  20.77164482718272  3.51455112561256  0.95009761416142
 1 -7.07773155565557  1.54877914991499  0.55706896369637
 1 -7.45331669826983 -0.36307118271827 -0.08382170237024

