%nproc=4
%Mem=2GB
# td=(NStates=1) B3LYP/SVP 

TD

0 1
 6 -5.15213806430643 -2.00915072107211  0.48852747784778
 6 -4.72405856405641  2.72226245524552  1.49477615371537
 6 -9.21107035063506  3.27475367166717 -0.21698631483148
 6 -9.74837668876888 -1.41257285188519 -1.03785993139314
 7 -5.27572432043204  0.44018047914791  0.87431488948895
 6 -4.48642674027403 -0.79789877347735  0.79117520312031
 6 -3.03932568626863 -0.67413789728973  1.33110636003600
 6 -3.05173932633263  0.75504062166217  1.93434794019402
 6 -4.37604256235624  1.32713975937594  1.30218212961296
 6 -2.95532203010301  0.83668196919692  3.33406326432643
 6 -2.00343568636864 -0.81724673877388  0.23306991469147
 6 -0.63361174927493 -0.79570842564256  0.66476424152415
 6  0.27768227412741 -1.03559047634763 -0.49836569376938
 8 -0.09196946104610 -1.59334902480248 -1.56419887448745
 8  1.57176225142514 -0.61868828732873 -0.22443743574357
 7 -6.88680186118612  2.76457119901990  0.41246184018402
 6 -5.82124630563056  3.43230996349635  1.02914704010401
 6 -6.16083735623562  4.82834091789179  1.11079263096310
 6 -7.38341140564056  4.98141946494649  0.58745397549755
 6 -7.92011746214622  3.72946154505451  0.21007234353435
 6 -5.17575673207321  5.81132491489149  1.59097510141014
 6 -8.03766035423542  6.19610932863286  0.43707876217622
 6 -8.90453797659766  6.58363765436544 -0.56237485378538
 7 -9.17943134243424  0.77975645024502 -0.37199417481748
 6 -9.80179195659566  2.03152645434543 -0.50240905160516
 6 -11.20548678667867  1.92280592009201 -0.98650272157216
 6 -11.35775121562156  0.61174521592159 -1.28947900950095
 6 -10.11500820922092 -0.09555660506051 -0.91743522392239
 6 -12.07328152535253  3.14408697779778 -1.27114154325433
 6 -12.55355545294529 -0.09492859125913 -1.85867810281028
 6 -12.56672114171417 -0.32577722412241 -3.35378256265627
 7 -7.52731585728573 -1.22592690719072 -0.21108745384538
 6 -8.53018900440044 -2.00825743994399 -0.72900982938294
 6 -8.16589019621962 -3.42304690619062 -0.71110484898490
 6 -6.85723775197520 -3.41766765106511 -0.29751185648565
 6 -6.47978651825183 -2.09378117721772 -0.01273911981198
 6 -8.98912289738974 -4.56939033903390 -1.21384389118912
 6 -5.74971109260926 -4.33459868676868  0.03036570617062
 8 -5.62485434153415 -5.51357786648665 -0.03812689228923
 6 -4.57713331793179 -3.40337745044504  0.46447169676968
 6 -4.02130454525453 -3.74945864106411  1.74092597789779
 8 -4.29509212091209 -3.30762171807181  2.86305676967697
 8 -3.31559407510751 -4.91037131843184  1.61391713471347
 6 -2.61265479577958 -5.48491939723972  2.71696816711671
 6  2.69390943434343 -1.03313200380038 -1.05886009130913
 6  3.94337844764476 -0.74613923732373 -0.45414202740274
 6  4.95511781198120  0.05769481708171 -0.96146155075508
 6  4.91980249044904  0.81833567526753 -2.36889942894289
 6  6.20217392949295  0.22818544684468 -0.23980544364436
 6  7.41384561176118 -0.54633396649665 -0.77923527692769
 6  8.75195867286729 -0.36001120802080  0.09250437053705
 6  9.97098895359536 -0.78826330893089 -0.74781576147615
 6  9.93567736113611 -2.27026219201920 -1.03631774647465
 6  11.24363503810381 -0.35345501610161  0.08623615561556
 6  12.71664024862486 -0.45879435783578 -0.62310018721872
 6  13.78587499469947 -0.15146784988499  0.27872423502350
 6  15.20460228132813 -0.18231126692669 -0.45704954075408
 6  15.61118844644464 -1.58727288918892 -0.72817255275528
 6  16.29113171037104  0.63019393059306  0.47121038543854
 6  17.63764060276027  0.72336807070707 -0.22304681248125
 6  18.58098794979498  1.73528214721472  0.50926961986199
 6  20.04331422732273  1.83130875617562  0.00115287568757
 6  19.99669059855986  2.25999543074307 -1.49719612861286
 6  20.86315678127813  2.55643938003800  1.04148054875488
 1 -3.79344751235124  3.36168255255526  1.88502074037404
 1 -10.01801938693869  4.07934737123712 -0.47395606950695
 1 -10.33521186108611 -2.14719072907291 -1.42123201710171
 1 -2.81132718421842 -1.31405176927693  2.24883667836784
 1 -2.25508607620762  1.52343229432943  1.60289978837884
 1 -1.97409492539254  0.47865528722872  3.69414613991399
 1 -3.16095939623962  2.10141478507851  3.58939804100410
 1 -3.83699427882788  0.36729743204320  3.77061590729073
 1 -2.17662711661166 -1.82082596029603 -0.47632448874888
 1 -2.26777271587159 -0.21597412311231 -0.63539219991999
 1 -0.34520884428443 -0.02506838093809  1.24302033253325
 1 -0.49417243014301 -1.73356253625363  1.10834795379538
 1 -4.35912056945695  5.60388852645264  1.01632477047705
 1 -5.59783100190019  7.01429654835484  1.42629822682268
 1 -5.13979575657566  5.64009385878588  2.76309737033703
 1 -7.82652275117512  6.99195622932293  1.17285859215922
 1 -8.86779217201720  5.92519050455045 -1.49045844184419
 1 -9.24016829602960  7.51498678397840 -0.63251295539554
 1 -12.11502605000500  3.97779827832783 -0.46972937153715
 1 -11.48313723602360  3.67485244994499 -2.05808302580258
 1 -13.19399679967997  3.09342496069607 -1.77176022292229
 1 -12.77225205110511 -1.07383751005100 -1.20857543134313
 1 -13.42347308960896  0.36272593399340 -1.85769944724473
 1 -12.40286480148015  0.84725174027403 -3.74891373477348
 1 -11.69626583428343 -1.04116351275127 -3.76370716741674
 1 -13.45870394359436 -0.91183854195420 -3.57170102880288
 1 -10.02317986478648 -4.55044713661366 -0.40234603850385
 1 -9.25313722392239 -4.60293730723072 -2.22251277187719
 1 -8.40348205370537 -5.36368714861486 -0.79716436993699
 1 -3.72423815111511 -3.66387373867387 -0.23098615841584
 1 -2.02467933593359 -6.20626723042304  2.26040174417442
 1 -2.04635120682068 -4.75481522052205  3.31683613391339
 1 -3.15784684008401 -5.96920392039204  3.51493301350135
 1  2.48242003380338 -2.16407314841484 -1.07622475577558
 1  2.67168901180118 -0.59121055905591 -2.13244086338634
 1  3.99015045094509 -1.24778284878488  0.50851989638964
 1  5.50372563706371  1.76708440624062 -2.24319690709071
 1  5.59495645944594  0.10098605380538 -3.10945401250125
 1  3.96724320952095  0.90529333523352 -2.75143049995000
 1  6.41124122122212  1.35604874877488 -0.25784098449845
 1  6.09311713751375 -0.32729831513151  0.78796849094909
 1  7.17602825592559 -1.55141918731873 -0.71602644874488
 1  7.67664741584159 -0.22827732313231 -1.74408326602660
 1  8.71230567216722  0.76104395589559  0.37687894639464
 1  8.72586531643164 -1.05264235123512  1.05602845574557
 1  10.03137000230023 -0.31786158785879 -1.67009773267327
 1  9.14439162676268 -2.63340200300030 -1.67591681718172
 1  10.80067692869287 -2.62720439683968 -1.70677642324232
 1  10.27081552335233 -2.62674455195520  0.05090156865687
 1  11.05443963406340  0.63216083988399  0.47584104670467
 1  11.47009457885789 -0.97053553905391  0.98119864156416
 1  12.75207171517152 -1.50757463646365 -1.00060350315032
 1  12.93199351595159 -0.08014528742874 -1.57992131063106
 1  13.76743777927793  0.92615301110111  0.50959613371337
 1  13.78988382388239 -0.78413136713671  1.12604218041804
 1  15.08249974737474  0.54293749354935 -1.26180283008301
 1  14.91332672767277 -1.97339562336234 -1.36710073057306
 1  16.71526826312632 -1.71670751025102 -1.08210960356036
 1  15.59038175577558 -2.05698531713171  0.33478617991799
 1  15.88653584518452  1.67399048774878  0.44849869346935
 1  16.48637496019602  0.03500730983098  1.45097709450945
 1  18.27135321262126 -0.24186266486649 -0.21888657335734
 1  17.77739046444644  0.99499246234623 -1.37675498009801
 1  18.06111781768177  2.78815754345435  0.36168266326633
 1  18.40251326552655  1.51764060086009  1.61994324992499
 1  20.46985521532153  0.76642737643764  0.05426836393639
 1  19.50561325852586  3.25949808190819 -1.71921689588959
 1  20.95146366356635  2.07616322012201 -2.00064538793879
 1  19.19108734453445  1.75979601620162 -2.06399158035804
 1  20.93770878397840  2.11453100340034  2.03489741754175
 1  21.79293313501350  2.54959307590759  0.75053695349535
 1  20.34409207190719  3.61292096259626  1.09220182458246
 1 -6.94066784928493  1.78326259825983  0.25700895769577
 1 -7.52557392399240 -0.35038991459146  0.05212189198920

