%nproc=4
%Mem=2GB
# td=(NStates=1) B3LYP/SVP 

TD

0 1
 6 -5.12235508600860 -1.83728353435344  0.52917154225423
 6 -4.66804296249625  2.83119334833483  1.38175485158516
 6 -9.41823106670667  3.37060325662566 -0.12185680188019
 6 -9.91899375047505 -1.55268686328633 -0.73602974837484
 7 -5.09855660366037  0.56456291739174  0.80008746674667
 6 -4.44908300590059 -0.57942692629263  0.71202728832883
 6 -2.99971172487249 -0.49143962746275  1.12837608700870
 6 -3.02024617701770  0.91620673827383  1.80023452885289
 6 -4.27528248634863  1.44623166856686  1.26947885928593
 6 -2.90330682858286  0.93996229722972  3.35081493949395
 6 -2.13297864066407 -0.73646866096610 -0.01961535383538
 6 -0.54581296939694 -0.64355321012101  0.40955872097210
 6  0.33680818671867 -0.82175909320932 -0.79310516771677
 8  0.03642337823782 -1.11801149104911 -1.97354980958096
 8  1.66407148234823 -0.83878029652965 -0.40964595659566
 7 -7.04228740974097  2.77130187208721  0.37462805680568
 6 -5.95511969296930  3.36924365686569  1.05005913131313
 6 -6.23367463996400  4.77337542134213  1.03156470817082
 6 -7.63123618811881  4.96898822182218  0.46323155325533
 6 -8.09438488888889  3.69259785868587  0.17888922522252
 6 -5.26922607900790  5.80999478187819  1.74925092899290
 6 -8.18391497969797  6.22157187488749  0.23461851615162
 6 -9.16440396319632  6.65695498609861 -0.61295991229123
 7 -9.27499089838984  0.86136461106111 -0.49815679107911
 6 -9.93006478387839  1.99092239393939 -0.46797560826083
 6 -11.28613485148515  1.77568120762076 -0.73954802610261
 6 -11.53285872637264  0.40319436083608 -0.90665072667267
 6 -10.14078078647865 -0.16418346774677 -0.75446892729273
 6 -12.35513971117112  2.90358292739274 -1.02910733983398
 6 -12.71247134453445 -0.32329142754275 -1.49153138813881
 6 -12.62150662026203 -0.47091173757376 -2.92574975937594
 7 -7.53681680738074 -1.29494380888089 -0.22201854695470
 6 -8.63158914441444 -2.07217383158316 -0.58741566996700
 6 -8.12469607680768 -3.43468807030703 -0.63357709620962
 6 -6.78014004220422 -3.41194707900790 -0.24409651495150
 6 -6.43695223482348 -1.99363116221622  0.02610476457646
 6 -8.94541852695269 -4.63379677967797 -1.02869537633763
 6 -5.63250937243724 -4.22426765366537 -0.01761909230923
 8 -5.44380623672367 -5.34798130683068 -0.12709578917892
 6 -4.47454305890589 -3.21885899859986  0.46847209680968
 6 -3.89346176097610 -3.76632032723272  1.71240312561256
 8 -4.10597320902090 -3.41239219511951  2.83191365536554
 8 -2.93317583328333 -4.76106638793879  1.32410815381538
 6 -2.19235276557656 -5.35353625892589  2.49244571487149
 6  2.72123216661666 -1.07203589418942 -1.36150035533553
 6  3.95733984378438 -0.69008363176318 -0.70086669986999
 6  4.98739103930393  0.07039608720872 -1.18681408600860
 6  4.92733324352435  0.82620646234623 -2.50483302230223
 6  6.21688540064006  0.24717734603460 -0.35169663276328
 6  7.57598182538254 -0.41298063116312 -1.04921227462746
 6  8.69497297429743 -0.20351555845585 -0.09638451835184
 6  10.03188504320432 -0.82878736133613 -0.71530251015102
 6  9.95166896029603 -2.36408157395740 -0.88703281798180
 6  11.33654432903290 -0.32931260186019  0.06919445144514
 6  12.69539812441244 -0.85222370077008 -0.38875675287529
 6  13.77098350555056 -0.03196589968997  0.20404676727673
 6  15.21075289638964 -0.41421445724572 -0.25585942174217
 6  15.62143947154715 -1.90405456735674 -0.10664039953995
 6  16.22040463766377  0.49070998219822  0.53532679707971
 6  17.69654649334933  0.48285401930193 -0.06906141394139
 6  18.50451030203020  1.69740835983598  0.62557125002500
 6  19.91301119701970  1.65861148644865  0.14664742514251
 6  20.04073500300030  2.30791022222222 -1.27888429742974
 6  20.87384785038504  2.46917065316532  1.09916631733173
 1 -4.11914008160816  3.51450783508351  2.14495673397340
 1 -10.11514909990999  4.29586902340234 -0.31939061296130
 1 -10.92613095299530 -2.19875588558856 -1.06758665256526
 1 -2.78047409890989 -1.28344870897090  2.01900369506951
 1 -2.06611717931793  1.57229718081808  1.40856035443544
 1 -2.16072358825883  0.51546896859686  3.71879860516052
 1 -3.04364766506651  1.86753139673967  3.73105220642064
 1 -3.53348392779278  0.39772047434743  3.90313915961596
 1 -2.37791724562456 -1.52125600330033 -0.53026988328833
 1 -2.25529146774677  0.10882835713571 -0.78067672837284
 1 -0.32607693109311  0.30250437633763  1.01871790229023
 1 -0.34317733063306 -1.46067524752475  0.99058617761776
 1 -4.39885454285429  5.94892302990299  0.94792793079308
 1 -5.83021424022402  6.75903102180218  1.56603220022002
 1 -4.89887166416642  5.37601745114512  2.82052311291129
 1 -7.70911101000100  6.98288532223222  0.81887319361936
 1 -9.46768216101610  5.85263324882488 -1.26672606860686
 1 -9.76918119731973  7.50258554385439 -0.54696440054005
 1 -12.37435198259826  3.57008750725073 -0.20794319291929
 1 -12.07983690599060  3.51823678837884 -1.82284950245024
 1 -13.38692609260926  2.40368598679868 -1.21643469036904
 1 -12.71218604450445 -1.22038216451645 -0.98881345514551
 1 -13.51400214251425  0.43631329272927 -1.20107378467847
 1 -12.41340585558556  0.57325434053405 -3.38733757715772
 1 -11.85699190689069 -1.19717911431143 -3.31483227992799
 1 -13.70271834503450 -0.79819717781778 -3.33819767846785
 1 -9.76051359815982 -4.92494458635864 -0.31079688358836
 1 -9.62280419061906 -4.59545655915592 -1.86858737933793
 1 -8.40665237073707 -5.41618239813981 -1.16881153465347
 1 -3.57685341264126 -3.42177952925292 -0.16947000680068
 1 -1.75699256725673 -6.18200480418042  1.94085978997900
 1 -1.36054262596260 -4.60406014501450  2.81843629392939
 1 -2.74459551495150 -5.80749774977498  3.32448396859686
 1  2.74882667446745 -2.16691343244324 -1.88672580588059
 1  2.55724756765677 -0.64682612061206 -2.20188780808081
 1  3.93122455835584 -1.11943001350135  0.28089713411341
 1  5.01256652115212  1.94526222402240 -2.54873746114611
 1  5.89669663346335  0.39204515971597 -3.11118418551855
 1  3.96135262046205  0.64460726662666 -3.22319767666767
 1  6.31601169826983  1.19107225112511 -0.35099029942994
 1  6.04643246904690 -0.00164574987499  0.78403809790979
 1  7.27946859996000 -1.41471551695170 -1.25006985308531
 1  7.66854660576058  0.03069857445745 -2.03979283698370
 1  8.89070351195119  0.85729358085809  0.24215547404740
 1  8.59313204310431 -0.94504159115912  0.92975582848285
 1  10.47698456375637 -0.26165596729673 -1.70379110201020
 1  8.82828001560156 -2.79873853665367 -1.17774700020002
 1  10.76551341234124 -2.90598227462746 -1.36071181678168
 1  9.90103854565456 -2.75463734123412  0.24210068856886
 1  11.28075226532653  0.65371299509951  0.11262472507251
 1  11.25659322872287 -0.55484396989699  1.25987650935094
 1  12.98914542254225 -1.97036091509151 -0.43989743254325
 1  12.96489680628063 -0.58968624152415 -1.57931124962496
 1  13.48697973347335  1.23898429422942  0.00157533163316
 1  13.83254809030903 -0.07216017001700  1.30628020422042
 1  15.34389588698870 -0.16800360056006 -1.41053770357036
 1  14.87714310931093 -2.38708699249925 -0.49324334483448
 1  16.61059779607961 -1.94380021952195 -0.63419481208121
 1  15.74050676827683 -2.33162278087809  0.95352805410541
 1  15.69898709030903  1.40498358705871  0.57497134073407
 1  16.22873919661966  0.26379018811881  1.63967596439644
 1  18.21747782508251 -0.31412989158916  0.38772408770877
 1  17.62965569096910  0.60830379347935 -1.05271257585759
 1  18.02180388628863  2.56579530723072  0.54544103910391
 1  18.68726174037404  1.61789062586259  1.68404966056606
 1  20.18561679147915  0.45116585028503  0.03453639073907
 1  20.00206290349035  3.51418355045505 -1.26273124732473
 1  21.00488900610061  2.02953855765577 -1.59569489288929
 1  19.11594983078308  1.75999603620362 -1.92212739393939
 1  20.66166117921792  2.13039258955896  2.17021094889489
 1  21.89556339803980  2.03721183778378  0.77718961876188
 1  20.84930259295930  3.64711438193819  0.83395600000000
 1 -7.17261104360436  1.76164043604360  0.29627288408841
 1 -7.67136850345035 -0.29730460606061 -0.24429774997500

