%nproc=4
%Mem=2GB
# td=(NStates=1) B3LYP/SVP 

TD

0 1
 6 -5.08439128962896 -1.95501530753075  0.47733635873587
 6 -4.64258041624162  2.70305053405341  1.43980065616562
 6 -9.25782502610261  3.40448664496450 -0.29783439963996
 6 -9.89603145424542 -1.40811240584058 -0.85498164356436
 7 -5.12681942994299  0.45752221332133  0.85063252125213
 6 -4.52712080968097 -0.79525850945095  0.82281836743674
 6 -3.10066181988199 -0.61765224872487  1.19741299069907
 6 -3.17241139353935  0.74619973757376  1.76735124052405
 6 -4.38717367546755  1.32961000640064  1.30735264666467
 6 -3.09648614651465  0.73955225622562  3.36032589058906
 6 -2.12482782558256 -0.88585359945995  0.03954056175618
 6 -0.56883527162716 -0.83457231203120  0.48340610571057
 6  0.32151665756576 -1.15202211951195 -0.60990684788479
 8  0.01708144404440 -1.41746143604360 -1.80291274587459
 8  1.60112518771877 -0.94204062256226 -0.17760275227523
 7 -6.91848502950295  2.73948869076908  0.47184777877788
 6 -5.79860404140414  3.38680541304130  1.02901702710271
 6 -6.13908518101810  4.72030011381138  1.03100465216522
 6 -7.33498656315632  5.01064238723872  0.41874710481048
 6 -7.92290774117412  3.67840643954395  0.05040637693769
 6 -5.15007416381638  5.78715249764976  1.70394639853985
 6 -8.05232182038204  6.29598931663166  0.35924097839784
 6 -8.85959348214821  6.69725901650165 -0.62627124342434
 7 -9.23599699899990  0.95182365696570 -0.44919189458946
 6 -9.87685946334634  2.10906420812081 -0.50900971167117
 6 -11.23548978697870  2.04707834733473 -1.10762483378338
 6 -11.40311575207521  0.74401844324432 -1.23437349894989
 6 -10.14895160356036  0.02856580718072 -0.78204168456846
 6 -12.25199939713971  3.22503507260726 -1.12504693379338
 6 -12.61089118651865  0.10295119671967 -1.74166640164016
 6 -12.42622709230923 -0.33175782218222 -3.22800998539854
 7 -7.52937606330633 -1.26409072357236 -0.26891323642364
 6 -8.69733571907191 -1.96544315851585 -0.50103703210321
 6 -8.21356496369637 -3.44031863336334 -0.54225796429643
 6 -6.83031505970597 -3.43472935723572 -0.16526863216322
 6 -6.44377291689169 -2.03807560666067  0.08301045514551
 6 -9.17437142224222 -4.48113151315131 -0.85329783658366
 6 -5.68640476197620 -4.28931415831583  0.03207587718772
 8 -5.54154601070107 -5.51009751845185 -0.17468054765477
 6 -4.43239884448445 -3.20528764146415  0.39158440804080
 6 -3.94903731853185 -3.88076177137714  1.61588347364736
 8 -4.22204481618162 -3.57481843774377  2.72899336333633
 8 -3.23715623132313 -5.09862014331433  1.47842358535854
 6 -2.75812934323432 -5.76771767706771  2.61125759605961
 6  2.65764580798080 -1.14533322392239 -1.10609481478148
 6  3.97012112191219 -0.79273389678968 -0.38607522072207
 6  4.89416171637164 -0.08294924732473 -0.94963036763676
 6  4.94866537673767  0.63904774647465 -2.30629316831683
 6  6.28060177227723  0.10489311761176 -0.17240870397040
 6  7.49556378357836 -0.52974230733073 -0.80486784018402
 6  8.72696617361736 -0.22446765366537 -0.01960684058406
 6  10.04964681938194 -0.82201668426843 -0.55518649854985
 6  10.01398519191919 -2.43569873567357 -0.71003511821182
 6  11.27581825642564 -0.37922759335934  0.15489302130213
 6  12.66557514211421 -0.62271074947495 -0.44892276947695
 6  13.75913232043204  0.02373967086709  0.23462982558256
 6  15.17802962406241 -0.10179321512151 -0.46050988678868
 6  15.64362168976898 -1.55941010291029 -0.36826656215622
 6  16.26620921812181  0.71000191139114  0.40843410781078
 6  17.59851669036903  0.89635536943694 -0.23211771957196
 6  18.66238608960896  1.78803742274227  0.52485117801780
 6  20.06775667156716  1.82576820212021 -0.11529876947695
 6  20.08373930343035  2.49704913611361 -1.51374778377838
 6  21.03509397499750  2.61170490659066  0.80377677837784
 1 -3.79878804640464  3.32186857115712  1.79797203550355
 1 -9.90767835283528  4.18409784628463 -0.51330000390039
 1 -10.80870921082108 -1.94770078007801 -1.24000389428943
 1 -2.53462951445144 -1.41527189128913  1.87637943264327
 1 -2.51548211581158  1.51270122122212  1.50886038443844
 1 -2.30006752265226  0.12344976667667  3.88882560786079
 1 -2.95585888618862  1.83889853345335  3.94636373757376
 1 -3.98163874327433  0.33699440174017  3.64142298799880
 1 -2.42664211811181 -1.93399727742774 -0.24771162746275
 1 -2.20893683228323 -0.17587011271127 -0.73025168586859
 1 -0.21420574397440 -0.01491736583658  0.99356538703870
 1 -0.42001501440144 -1.67721690169017  1.29436655565557
 1 -4.20702535993599  5.89726786438644  1.06759989798980
 1 -5.51757297609761  6.76888200690069  1.68775437243724
 1 -4.82291406840684  5.59888973837384  2.62804386498650
 1 -7.70697079597960  7.06194322802280  1.09408071437144
 1 -8.99357475027503  6.20336832233223 -1.51009040504050
 1 -9.31625590479048  7.62042732803280 -0.49068877297730
 1 -12.35454000140014  3.85531603010301 -0.35315771437144
 1 -11.95541446374638  3.74643960866087 -1.93589080658066
 1 -13.21278867886789  2.65277089528953 -1.26665971287129
 1 -12.78573339923993 -0.57525765206521 -1.02665723952395
 1 -13.61157189948995  0.67493715511551 -1.60390406770677
 1 -12.24931944694469  0.61105812091209 -3.84299314271427
 1 -11.56303251095110 -1.02409180558056 -3.48556935363536
 1 -13.23178125132513 -1.13303066116612 -3.59344320302030
 1 -10.09311685848585 -4.45791788368837 -0.21843764766477
 1 -9.42113402360236 -4.34546155965597 -1.89325984658466
 1 -8.56970867636764 -5.50460124002400 -1.08796344984498
 1 -3.70063579087909 -3.12704005530553 -0.47196025582558
 1 -2.09021588958896 -6.52925952965296  2.34744044804481
 1 -2.22534910661066 -4.85586532553255  3.32063651395139
 1 -3.45420647604760 -6.31929892989299  3.28908042824282
 1  2.46450824262426 -2.05418215931593 -1.61172830613061
 1  2.32482432533253 -0.62138357635764 -2.06759437873787
 1  4.20182161806181 -1.29947801830183  0.46465550995100
 1  5.41358662316232  1.57759545734573 -2.34129671707171
 1  5.77201416521652 -0.05533957875788 -2.83677674477448
 1  3.92657914311431  0.73503630953095 -2.83475883278328
 1  6.50086018311831  1.15368851275128 -0.16719191959196
 1  6.22206003180318 -0.15696128142814  0.89917961206121
 1  7.11763241634163 -1.72680672607261 -0.79931477757776
 1  7.53101285238524 -0.05767026242624 -1.77191604930493
 1  9.04896933853385  0.78768662016202  0.19106036453645
 1  8.55194792469247 -0.54750183718372  1.21230408330833
 1  9.94849171447145 -0.46995679737974 -1.50252097499750
 1  9.03410059765977 -2.76898556135613 -1.13746297179718
 1  10.88263512451245 -2.94574625102510 -1.34351009660966
 1  9.79602804460446 -2.75349722722272  0.42856933543354
 1  11.24817900800080  0.88741636543654  0.28791225382538
 1  11.32835040444044 -0.89354784028403  1.13004352605260
 1  12.71095760376038 -1.68681256025603 -0.40552399519952
 1  12.41752206880688 -0.21148842174217 -1.48587190569057
 1  13.87062809830983  1.16571696749675  0.52730790489049
 1  13.92045688118812 -0.56840979497950  1.31481105730573
 1  15.06012751015102  0.30483368316832 -1.43285993579358
 1  14.82098749374938 -2.29263754755475 -0.86644066456646
 1  16.52255899219922 -1.53687952745274 -0.66974836743674
 1  15.55928864646465 -2.04300391899190  0.66702940424042
 1  15.94989218081808  1.71896498519852  0.48258210181018
 1  16.32752907560756  0.25852966206621  1.40545254205421
 1  18.07818389568957 -0.22253073167317 -0.39167385208521
 1  17.26905963136313  1.34055701880188 -1.31911921652165
 1  18.15946765266527  2.82159088678868  0.80188668366837
 1  18.62930594479448  1.40600943774377  1.54767602320232
 1  20.35794402420242  0.78270900460046 -0.28819588248825
 1  19.74240693789379  3.65178731083108 -1.41612658685869
 1  20.99032754995499  2.54140974477448 -1.77976329972997
 1  19.41782001780178  2.11371140774077 -2.31717689888989
 1  20.90262527562756  1.99801935223522  1.76403033083308
 1  22.02274611631163  2.56248436503650  0.32258415821582
 1  20.76288395109511  3.69355902640264  1.14283688808881
 1 -6.92675645814581  1.66136040804080  0.23479673647365
 1 -7.49011037763776 -0.26275115071507 -0.31909522972297

