%nproc=4
%Mem=2GB
# td=(NStates=1) B3LYP/SVP 

TD

0 1
 6 -5.11795464596460 -1.96332613861386  0.39458808390839
 6 -4.67770392859286  2.70626085508551  1.44836151225123
 6 -9.24138338193819  3.32442863916392 -0.22360697689769
 6 -9.87628948004800 -1.50839243384338 -0.83977012241224
 7 -5.11008775677568  0.47572403350335  0.68100555855586
 6 -4.54664276187619 -0.74707369096910  0.73267935353535
 6 -3.10640239393939 -0.63733421692169  1.18927217661766
 6 -3.01004515691569  0.79998511611161  1.78606311171117
 6 -4.32756771487149  1.40670771617162  1.21628353975398
 6 -2.99966646454645  0.70556885788579  3.43520337833783
 6 -2.04614995779578 -0.81954696879688  0.10660726842684
 6 -0.62467085518552 -0.67293614841484  0.47221498659866
 6  0.34727923382338 -0.86638355565557 -0.63187904510451
 8  0.11446118201820 -1.32485217511751 -1.69561201580158
 8  1.59870494569457 -0.41568798729873 -0.29477446944694
 7 -6.95370855185519  2.81614635653565  0.33837443144314
 6 -5.77827200820082  3.39003573607361  0.91967609300930
 6 -6.14347562006201  4.71709979377938  1.05654720642064
 6 -7.37686075057506  4.96513783678368  0.50738596869687
 6 -7.92455790619062  3.65708430733073  0.22472380868087
 6 -5.06525568196820  5.81200498289829  1.45194119801980
 6 -8.00290687888789  6.28246796449645  0.37272232653265
 6 -8.93543106590659  6.73527281788179 -0.49461807810781
 7 -9.18838223752375  0.77161563616362 -0.32423939933993
 6 -9.79176095349535  2.06074937663766 -0.44345315601560
 6 -11.26299253725372  1.91936557605761 -0.86854092539254
 6 -11.34139958045805  0.61662570397040 -1.20894095569557
 6 -10.07753446184619 -0.09271632103210 -0.78801228162816
 6 -12.14527872507251  3.06067863696370 -1.13093752285229
 6 -12.51808190559056 -0.28932803120312 -1.62022425742574
 6 -12.51160563016302 -0.52607725412541 -3.13520070447045
 7 -7.62087521322132 -1.25370968546855 -0.17652399749975
 6 -8.61016700220022 -2.03710032423242 -0.68070499889989
 6 -8.20915452265226 -3.42346694819482 -0.59865360386039
 6 -6.88676070427043 -3.49441532583258 -0.21772387768777
 6 -6.49008754835484 -2.13970576967697 -0.13329117501750
 6 -9.04793877897790 -4.56412981298130 -1.04481698849885
 6 -5.75521164266427 -4.32716794369437  0.00760342994299
 8 -5.71620347644765 -5.52915942464246 -0.06491957155716
 6 -4.47395299989999 -3.31710882358236  0.37951320092009
 6 -3.94890730553055 -3.86035973117312  1.74055594089409
 8 -4.06052866456646 -3.28908986488649  2.91162162616262
 8 -3.23338585428543 -5.00327060836084  1.55570131313131
 6 -2.70576410671067 -5.57408831413141  2.77368383868387
 6  2.66552659605961 -0.85822451305131 -1.15905011031103
 6  4.00208431823182 -0.52032665606561 -0.58576518971897
 6  4.96399870007001  0.21634068166817 -1.06688209280928
 6  4.92578308850885  0.97959180088009 -2.40058259725973
 6  6.32873658575858  0.25836846514651 -0.31447291039104
 6  7.44668889608961 -0.53273260636064 -0.90546790019002
 6  8.69244272127213 -0.35622082898290 -0.08841372127213
 6  9.97379923462346 -0.99016349894989 -0.63536451635164
 6  9.94505829922992 -2.44726989278928 -0.78082219691969
 6  11.28116879147915 -0.49933960456046  0.10522805480548
 6  12.57566615121512 -0.76385486388639 -0.49535741294129
 6  13.79185559275928 -0.17024972807281  0.28556491909191
 6  15.10649247034703 -0.27511054685469 -0.44803863966397
 6  15.65094242184218 -1.70615477737774 -0.70027976347635
 6  16.18476107330733  0.56651756295630  0.45509877427743
 6  17.56983382208221  0.70432616651665 -0.17810231803180
 6  18.45495534653465  1.76357497649765  0.60379907280728
 6  19.97900779667967  1.78221384668467  0.06953971437144
 6  20.02406333583358  2.36170560176018 -1.31071748074807
 6  20.74317478307831  2.68096183228323  1.11637803850385
 1 -3.92395056265627  3.40614699899990  1.51307354565457
 1 -9.95191277627763  4.18003744024402 -0.23589226312631
 1 -10.66136447634764 -2.21805781578158 -1.19945983988399
 1 -2.71228728022802 -1.34711507560756  1.90479227392739
 1 -2.27163773137314  1.21467141824182  1.45743524192419
 1 -2.02071958785879  0.27561498319832  3.63955068036804
 1 -2.91808510881088  1.73032767636764  3.84363346454645
 1 -3.70748132753275  0.19791049334933  4.01522036773677
 1 -2.12975242914291 -1.90363424112411 -0.27187404370437
 1 -2.31143708230823 -0.08256078177818 -0.52830149084908
 1 -0.45453977737774  0.48422254815482  0.60334636513651
 1 -0.26084909780978 -1.29364854485449  1.27503462246225
 1 -4.23538819621962  5.73671180878088  0.69471260926093
 1 -5.32196341514151  6.91586670537054  1.40374597159716
 1 -4.61499327632763  5.69696954635464  2.52537359795980
 1 -7.54566466536654  6.94585161886189  1.08701000730073
 1 -9.43759915271527  6.18855684118412 -1.24599399539954
 1 -9.29019329852985  7.79831511681168 -0.40783048714871
 1 -11.77398194559456  3.80783128162816 -0.20259265786579
 1 -11.99454837713771  3.75335029972997 -2.05503272077208
 1 -13.38266566656666  2.71867748594859 -1.11870491739174
 1 -12.43301812771277 -1.28975910221022 -1.16614118791879
 1 -13.40260100240024  0.10571023242324 -1.24246792409241
 1 -12.25463997899790  0.52906992209221 -3.58909775317532
 1 -11.50105631333133 -1.14519391579158 -3.57492828952895
 1 -13.44004207740774 -0.99136649474947 -3.36429028772877
 1 -10.07405495229523 -4.41918401030103 -0.66247205110511
 1 -9.33490540074007 -4.43448046154615 -2.05378589918992
 1 -8.42918462396240 -5.37974875477548 -1.08670332383238
 1 -3.79160488778878 -3.47042439373937 -0.46807986778678
 1 -2.15317218521852 -6.42074867856786  2.57229293329333
 1 -1.99378595029503 -4.71639137813781  3.21844629492949
 1 -3.56281733713371 -5.84989198919892  3.49575109530953
 1  2.56944873667367 -2.01568830993099 -1.12969010231023
 1  2.36316815971597 -0.28277971597160 -2.12701032033203
 1  4.40398183408341 -0.86724479497950  0.35290433483348
 1  5.34561982648265  2.04989268706871 -2.27594018141814
 1  5.57021398519852  0.56208216341634 -3.18737180428043
 1  3.87481396659666  1.31629443534353 -2.58299365626563
 1  6.49391948904890  1.29473261716172 -0.06112131253125
 1  6.16514434023402 -0.26772235753575  0.70077977207721
 1  7.10503115621562 -1.54798884428443 -1.05948079417942
 1  7.71238098919892 -0.25947044244424 -1.95461431913191
 1  8.79506394799480  0.82361021252125 -0.04604334583458
 1  8.59152188208821 -0.56243333033303  1.18878173107311
 1  10.32664953025303 -0.60746054775478 -1.53266398929893
 1  9.11659884748475 -2.94477314011401 -1.29739896539654
 1  10.87990485148515 -2.68528020442044 -1.43971971757176
 1  10.02989143094309 -3.01949382688269  0.26645312381238
 1  11.15295948604860  0.38787641144114  0.43996745934593
 1  11.37380494989499 -1.15457394289429  1.07982850455046
 1  12.75691219921992 -1.92798667766777 -0.45830927372737
 1  12.52605292189219 -0.67467474037404 -1.64268758725873
 1  13.50595163066307  0.95284568036804  0.46995216931693
 1  13.79603443894390 -0.66815976997700  1.18745832203220
 1  15.11481297869787  0.21525472527253 -1.42444909470947
 1  15.09801519651965 -2.16139442324232 -1.63427744824482
 1  16.42086882318232 -1.91770761026103 -1.24073546614661
 1  15.59818253585359 -2.46736635523552  0.16217891919192
 1  15.80491768336834  1.54919800850085  0.83646749034904
 1  16.31844816751675  0.17814162326233  1.42610460726073
 1  17.89507558485849 -0.32687116571657 -0.06170085478548
 1  17.42624534993499  0.97477044014401 -1.25286259085909
 1  18.18791049694969  2.87982671037104  0.34072056705670
 1  18.58117113131313  1.41922075887589  1.74758601420142
 1  20.22613084288429  0.67635836953695  0.15069800690069
 1  19.44461715891589  3.22838497059706 -1.49334430863086
 1  21.08443696089609  2.72691829562956 -1.93924924832483
 1  19.78828706450645  1.56483652025202 -1.97263244444444
 1  20.51190620372037  2.24966451675167  2.21761568936894
 1  21.88129197089709  2.53795191179118  0.81042294209421
 1  20.34242190489049  3.80862053255326  1.02130473487349
 1 -7.23479726222622  1.81732600460046  0.33094635143514
 1 -7.69202056865687 -0.40085496109611 -0.22553587378738

