%nproc=4
%Mem=2GB
# td=(NStates=1) B3LYP/SVP 

TD

0 1
 6 -4.97073992449245 -1.89244905090509  0.39436806190619
 6 -4.74973113131313  2.83945417441744  1.28753542964296
 6 -9.42773201680168  3.16372256855686 -0.27233184938494
 6 -9.86341819291929 -1.52442403700370 -0.86005215061506
 7 -5.17912466046605  0.52785924702470  0.74665212321232
 6 -4.44364246184618 -0.65472445604560  0.78736482208221
 6 -3.02112386608661 -0.47833831733173  1.22062531193119
 6 -3.13282743514351  1.01342646024602  1.75123962936294
 6 -4.37240219831983  1.47036408180818  1.24575648704871
 6 -2.92825932383238  1.20127842884288  3.31688154615462
 6 -2.08238358115812 -0.73170818491849  0.02223883158316
 6 -0.55591397949795 -0.65038389318932  0.47938570367037
 6  0.32033653955396 -0.84717163446345 -0.72571842904290
 8  0.01930166606661 -1.24015370527053 -1.79841229582958
 8  1.58954402960296 -0.65535195369537 -0.27751274327433
 7 -7.10569375037504  2.74211895379538  0.36897749174918
 6 -6.01758593959396  3.38845557805781  1.05372949834983
 6 -6.34397567006701  4.77190527432743  1.14778633033303
 6 -7.65860892539254  4.93777510051005  0.61031626172617
 6 -8.09381483188319  3.59219781868187  0.12470380668067
 6 -5.45548470487049  5.88508229062906  1.65659166306631
 6 -8.41945853405340  6.19069878757876  0.56372142644264
 6 -9.38580610341034  6.59783907450745 -0.27153576987699
 7 -9.25704910421042  0.81591006560656 -0.52612958835884
 6 -9.97036881428143  1.94653795549555 -0.50961977267727
 6 -11.32455869386939  1.74250789028903 -0.91501557285729
 6 -11.43291873237324  0.32854689608961 -1.18922898449845
 6 -10.15256196459646 -0.19229627902790 -0.81589506990699
 6 -12.25203940114011  2.85418798789879 -1.14768919801980
 6 -12.72355245264527 -0.25770486888689 -1.58550078507851
 6 -12.84851932153215 -0.65409005540554 -3.07953513791379
 7 -7.43477660336034 -1.27776209070907 -0.17544388948895
 6 -8.60338632413241 -2.04407102130213 -0.50649757815782
 6 -8.13109671687169 -3.39477407890789 -0.56192993149315
 6 -6.77775980418042 -3.37677356165617 -0.22747485278528
 6 -6.33928246784678 -2.02488428752875 -0.05220306620662
 6 -8.95728971407141 -4.66042944294429 -1.10879338613861
 6 -5.51809793129313 -4.25326055295530 -0.03419074947495
 8 -5.45697755385539 -5.45830233893389 -0.08349142874287
 6 -4.37326293089309 -3.31907902060206  0.33714896449645
 6 -3.80059247404740 -3.69756345154515  1.74230611591159
 8 -4.19843245494549 -3.31707266316632  2.78405886988699
 8 -2.88994150985098 -4.65952623392339  1.55826156915692
 6 -2.45610914121412 -5.33583448874887  2.73716018631863
 6  2.72375241864186 -0.89313800440044 -1.26287049234923
 6  3.94358846864686 -0.69603422682268 -0.57538415161516
 6  4.91635393559356  0.12823187078708 -1.09342474707471
 6  4.88990950115011  0.92037587928793 -2.31678421742174
 6  6.22763647574758  0.27591021932193 -0.33560502360236
 6  7.54181840904090 -0.27288662176218 -1.15036238963896
 6  8.83152662966297 -0.13453866076608 -0.21917679757976
 6  10.05481733643364 -0.82219670227023 -0.76563754365437
 6  10.00191398479848 -2.30308547434743 -0.85315943064306
 6  11.26728740334033 -0.36054572517252 -0.03022549054906
 6  12.58917750235024 -0.73294177257726 -0.58581645884588
 6  13.81785819301930  0.00659795669567  0.21552791539154
 6  15.19593141424142 -0.27461049684968 -0.29021285708571
 6  15.71628895649565 -1.76435059695970 -0.26715645114511
 6  16.27624022122212  0.61634254545455  0.34366763116312
 6  17.68680551925192  0.63397913181318 -0.22324683248325
 6  18.70487033803380  1.52118073707371  0.58008670157016
 6  20.09920981688169  1.38559418471847  0.16792955335534
 6  20.42951388088809  2.00114954615462 -1.24935134413441
 6  21.11343180878088  2.08195193129313  1.23612001270127
 1 -4.01188935653565  3.75073145744574  1.78722096039604
 1 -10.09598718371837  4.23496293279328 -0.37784645854585
 1 -10.60318865876588 -2.39809581958196 -1.20841073497350
 1 -2.83662971447145 -1.04741510561056  2.10127192189219
 1 -2.36174674227423  1.49536948804880  1.18271777017702
 1 -1.87536505240524  1.04665208690869  3.75148187348735
 1 -3.30131343164316  2.13941858545855  3.64944404560456
 1 -3.62109268866887  0.44481518381838  3.81451029672967
 1 -2.16450590449045 -1.62963684138414 -0.69965682198220
 1 -2.19345528412841  0.20915839013901 -0.67773643434343
 1 -0.16912123552355  0.16052017791779  0.96486251675168
 1 -0.36774978787879 -1.54899407940794  0.94319143814381
 1 -4.43688834623462  5.89386752435244  1.15666880488049
 1 -5.73816503530353  6.77046216491649  1.69684528152815
 1 -5.14714649164916  5.60585043444344  2.75561662226223
 1 -8.14497459635963  6.89706674037404  1.53998530483048
 1 -9.61773716651665  6.09539752525252 -1.03122251825182
 1 -9.96638091729173  7.41990727602760 -0.11933163726373
 1 -12.33042759015902  3.71713221172117 -0.32819521812181
 1 -12.24238316061606  3.42519748444844 -2.01043826132613
 1 -13.23255065506551  2.23115873407341 -1.34404745164516
 1 -12.89927475337534 -1.26441656795680 -1.30686526032603
 1 -13.68917966026603  0.18503816521652 -1.35986966426643
 1 -12.77925244024403  0.22969998509851 -3.70527937133713
 1 -11.89791599929993 -1.20839023542354 -3.55959675637564
 1 -13.79703777697770 -1.30337769586959 -3.17031088978898
 1 -9.85312285908591 -4.44053614551455 -0.57339314321432
 1 -9.17354926512651 -4.53350036353635 -2.16395691629163
 1 -8.45550725622562 -5.57542832273227 -0.75769042254225
 1 -3.47691341864186 -3.48013536483648 -0.51498455825583
 1 -1.82816968496850 -6.11218782248225  2.21814751875188
 1 -1.75250182188219 -4.65852559155916  3.32209665996600
 1 -3.15657671307131 -5.63753075307531  3.49759127932793
 1  2.51678347014701 -2.01709845094509 -1.60667780108011
 1  2.73949579247925 -0.21644308230823 -2.22074969426943
 1  4.32553398929893 -1.19035710621062  0.35941498589859
 1  5.53452871737174  1.79581727952795 -2.25215780318032
 1  5.59282624642464  0.58640459565957 -3.21034410151015
 1  3.92801928712871  1.19468227412741 -2.76088144504450
 1  6.36247634473447  1.32481562546255  0.06058085768577
 1  6.29966779257926 -0.26144172947295  0.71950164426443
 1  7.21395204830483 -1.46032007740774 -1.29261410751075
 1  7.47151690279028  0.34138964356436 -1.95332419011901
 1  8.82339678127813  0.90171802330233  0.02095335383538
 1  8.59015174507451 -0.67743483048305  0.92177503040304
 1  10.10518738403840 -0.55632543424342 -1.75960668356836
 1  9.12723991159116 -2.50157882068207 -1.33897312281228
 1  10.88791565256526 -2.86325800220022 -1.26313205880588
 1  9.80722916471647 -2.66628850635064  0.29968644714471
 1  11.31600579067907  0.88768639243924  0.21996545914591
 1  11.20106767616762 -0.75668415391539  0.93819434113411
 1  12.70074658265827 -1.72678655765577 -0.60364380718072
 1  12.56193651025102 -0.30712798569857 -1.50518383688369
 1  13.61902293779378  1.09306970277028  0.08061323542354
 1  13.68436327182718 -0.24069702370237  1.33427300350035
 1  15.11416291369137  0.21405460526053 -1.15183183298330
 1  14.97690308530853 -2.32978126192619 -0.92123614411441
 1  16.77639437573757 -1.97596343584358 -0.70092148474848
 1  15.62499521712171 -2.12870248884888  0.94105680698070
 1  15.68919611121112  1.59456254495450  0.45659950355036
 1  16.28585490819082  0.16775058415842  1.32645464226423
 1  18.10032610991099 -0.35950442904290 -0.24077876257626
 1  17.69024174957496  0.94790775387539 -1.19908721332133
 1  18.36535824172417  2.58563729142914  0.68602509750975
 1  18.85095811001100  0.92849168596860  1.47347860346035
 1  20.44161239103910  0.29045977967797  0.10455339243924
 1  20.04599729692969  2.86713884598460 -1.41191616581658
 1  21.68645716291629  2.08988459225923 -1.32270759415942
 1  20.25436367216722  1.19349938653865 -2.03551873307331
 1  20.83116812991299  1.38131768206821  2.22758668646865
 1  22.15858970067007  2.00955907250725  0.82529442924292
 1  20.83908157085709  3.26618628912891  1.23186579097910
 1 -7.30804458695870  1.76115038703870  0.28999225602560
 1 -7.60229159575958 -0.20024490009001 -0.20261358155816

