%nproc=4
%Mem=2GB
# td=(NStates=1) B3LYP/SVP 

TD

0 1
 6 -5.05224807530753 -2.01889169516952  0.52610123522352
 6 -4.78373453165316  2.79669989898990  1.70191686778678
 6 -9.24111335493549  3.32122831913191 -0.35774039023902
 6 -9.79473132423242 -1.42245383998400 -0.98776492189219
 7 -5.15500224822482  0.46316277737774  0.94512197019702
 6 -4.46931502910291 -0.77160614421442  0.93559964556456
 6 -3.05750750445045 -0.57225770927093  1.35934918431843
 6 -3.23267742014201  0.81942706030603  2.11824633003300
 6 -4.43608856695670  1.42185923132313  1.57203911531153
 6 -3.20853735163516  0.57572587358736  3.62573243124312
 6 -2.03678902170217 -0.48422343644364  0.12978958665867
 6 -0.63868225632563 -0.51329018381838  0.64088185328533
 6  0.37831233713371 -0.86427334463446 -0.50539639683968
 8  0.01275101100110 -1.03046273617362 -1.67654010861086
 8  1.67363243844384 -0.81351777027703 -0.14896988898890
 7 -7.09246242724272  2.73931867376738  0.61983257725773
 6 -5.97603178417842  3.30997773027303  1.17347147254725
 6 -6.20326159865987  4.73548163196320  1.06798835053505
 6 -7.45496856135614  4.94540586358636  0.54172940304030
 6 -8.01106655705571  3.61996059495950  0.31003233953395
 6 -5.23263241964196  5.80242402480248  1.60373637753775
 6 -7.97889447764776  6.28724844254425  0.20787584188419
 6 -8.93064058685869  6.60638992959296 -0.72959157545755
 7 -9.20142354165417  0.86359483408341 -0.55081205660566
 6 -9.86786856425643  2.04621792349235 -0.68270708140814
 6 -11.23008924692469  1.89234287378738 -1.19383345464546
 6 -11.45830127062706  0.54755879727973 -1.28591865346535
 6 -10.11264797319732 -0.00646769616962 -0.90742422282228
 6 -12.17967216441644  3.08061063016302 -1.34920935003500
 6 -12.54442453985398 -0.26188528692869 -1.87608984398440
 6 -12.47948241784179 -0.43334798119812 -3.39248643304330
 7 -7.43219634533453 -1.33079739423942 -0.14727107220722
 6 -8.52610859635964 -2.02960957515752 -0.67395432383238
 6 -8.09260286748675 -3.41134573607361 -0.74334807330733
 6 -6.76980900910091 -3.43549943424342 -0.29909201450145
 6 -6.38864740434043 -2.15624742384238  0.09732188628863
 6 -8.95732971807181 -4.62294569456946 -1.04488699549955
 6 -5.69456557805781 -4.30573580048005 -0.11655898629863
 8 -5.47843970007001 -5.48700520922092 -0.17048012761276
 6 -4.52014761936194 -3.38129524222422  0.41874712431243
 6 -4.05112752755276 -3.95177887308731  1.77248913421342
 8 -4.27783039473947 -3.59058001390139  2.91210167416742
 8 -3.08245076077608 -4.90059034033403  1.66691243424342
 6 -2.66589011931193 -5.55671657695770  2.78088455875588
 6  2.63297334073407 -0.88070676127613 -1.15844004930493
 6  4.04386849664967 -0.70495511891189 -0.57318393159316
 6  4.97506980718072  0.16204525212521 -1.05681108570857
 6  4.92703321352135  0.98169201090109 -2.33703624262426
 6  6.28576228832883  0.42019464776478 -0.28972043514351
 6  7.52924715191519 -0.15683501660166 -1.00891824522452
 6  8.75154863186319 -0.16135134203420 -0.06584146404640
 6  10.06914876957696 -0.78239272187219 -0.70099107900790
 6  10.08052184558456 -2.24116928272827 -0.90427454215422
 6  11.26301697629763 -0.33489315991599  0.16488402040204
 6  12.70966955155516 -0.60092857125713 -0.47990586778678
 6  13.74445085228523 -0.12269497259726  0.34524088668867
 6  15.25897771887189 -0.38945198099810 -0.28614245004500
 6  15.61646897449745 -1.81847600950095 -0.36809654515452
 6  16.19877247444744  0.55375628682868  0.40304356875688
 6  17.52436927562756  0.66419215311531 -0.26760126792679
 6  18.53157300830083  1.50730934993499  0.41771046394639
 6  19.94198409430943  1.61014663996400 -0.19669690929093
 6  19.91309223872387  2.20224965616562 -1.59452586158616
 6  20.89040950655066  2.34099783588359  0.78179458015802
 1 -3.89923809140914  3.21584796909691  2.08863110141014
 1 -9.91149873487349  4.17002643914391 -0.42749142304230
 1 -10.61526986688669 -2.07906391639164 -1.27305719961996
 1 -2.76638268976898 -1.56541690579058  1.96486828152815
 1 -2.34622519011901  1.55781573267327  1.89948944734473
 1 -2.36965448134813  0.07740516221622  4.07326405170517
 1 -3.16403970427043  1.58668331193119  4.02446154735474
 1 -4.12932351175118  0.00720142244225  4.15439428512851
 1 -2.21217067096710 -1.33165704340434 -0.38336519281928
 1 -2.29467540614061  0.38551602590259 -0.45668432913291
 1 -0.24496882028203  0.58840296619662  1.12385841634163
 1 -0.23718673157316 -1.28697787778778  1.37390450945095
 1 -3.98956361376138  5.45323346094609  1.15464860286029
 1 -5.54892611141114  6.87922304100410  1.09661525852585
 1 -5.26075785278528  5.92904275367537  2.81775283588359
 1 -7.42544264316432  7.14024105780578  0.63882518881888
 1 -9.56416180898090  5.74268225372537 -1.17869726572657
 1 -9.35524980418042  7.73285857115712 -1.23536324042404
 1 -12.07492203960396  3.89512001050105 -0.42740513911391
 1 -11.75570449274928  3.71348631333133 -2.31646886438644
 1 -13.28268566856686  2.73142876107611 -1.57066011291129
 1 -12.42484731063106 -1.32738286458646 -1.30124469826983
 1 -13.45997673997400  0.19587924932493 -1.55168884618462
 1 -12.31813632863286  0.57341435653565 -3.91532037543754
 1 -11.67684389208921 -1.29463886028603 -3.62627342404240
 1 -13.37684575777578 -0.82631999009901 -3.75615947464747
 1 -10.01584913171317 -4.61225331723172 -0.38648445234523
 1 -9.31139304950495 -4.79206622012201 -2.18799932053205
 1 -8.44723642914292 -5.52871365126513 -0.99446409990999
 1 -3.67362308960896 -3.60554790609061 -0.44992805260526
 1 -2.14889175717572 -6.61864846854685  2.50241594559456
 1 -1.89301587328733 -4.92757249624962  3.15214966526653
 1 -3.42940399579958 -5.87408440844084  3.65668718891889
 1  2.46843863566357 -1.94929167026703 -1.60485761906191
 1  2.42439428232823 -0.29309074707471 -2.02948056735674
 1  4.27916935283528 -1.34479254975498  0.29056810121012
 1  5.58410367486749  1.87017471527153 -2.16311889928993
 1  5.46956392019202  0.55274122932293 -3.03355642274227
 1  3.92405889108911  1.13379618551855 -2.70575593249325
 1  6.46343644074407  1.48328147204720  0.07094189378938
 1  6.21598942474247 -0.06996258155816  0.53958365246525
 1  7.38507916101610 -1.12385643104310 -1.17168201430143
 1  7.83457320842084  0.47782328692869 -1.96186504420442
 1  9.03297773937394  0.82416026752675  0.44911617011701
 1  8.57324005390539 -0.82817990499050  0.93994684758476
 1  9.91563842914291 -0.21267106880688 -1.75182590549055
 1  9.26429361696170 -2.78599726252625 -1.52173139863986
 1  10.95215207620762 -2.46217789418942 -1.39606535213521
 1  10.03781222302230 -2.73706558405841 -0.00039356085609
 1  11.41070526062606  0.81020864466447  0.37206066866687
 1  11.11278884828483 -0.51841032653265  1.24358488018802
 1  12.73866037403740 -1.72043592259226 -0.77890133293329
 1  12.47182749934993 -0.06547382028203 -1.62743606210621
 1  13.63422445794579  1.10433082888289  0.68959413351335
 1  13.67714254975498 -0.63212616661666  1.32478205440544
 1  15.02860435783578 -0.09836663686369 -1.32587923772377
 1  14.99741513651365 -2.08604688848885 -1.08384240474047
 1  16.57475421172117 -1.97581342084208 -0.84176556915692
 1  15.53505622322232 -2.15048466706671  0.74452715401540
 1  15.85718290989099  1.56922001070107  0.64487833143314
 1  16.20645696839684  0.11334514361436  1.27749974677468
 1  17.90775685298530 -0.37928640724072 -0.42726741144114
 1  17.08242096749675  1.19741270437044 -1.23477078167817
 1  18.16398810471047  2.57332606030603  0.48636513151315
 1  18.56457947214722  1.09528836563656  1.52090334593459
 1  20.41952018181818  0.62185291899190 -0.36844390729073
 1  19.45439813701370  3.16842897499750 -1.45802077627763
 1  20.97016553375337  2.39495509930993 -1.87215253865387
 1  19.36492472827283  1.57171720832083 -2.10391557275728
 1  20.81349636273627  2.01356090639064  1.69061298909891
 1  21.92340618231823  2.39711782838284  0.47041894169417
 1  20.58267593029303  3.43631330183018  0.70955355975598
 1 -7.15207899039904  1.71022529452945  0.63906716351635
 1 -7.55247661426143 -0.37035191079108 -0.21725504570457

