%nproc=4
%Mem=2GB
# td=(NStates=1) B3LYP/SVP 

TD

0 1
 6 -5.07348019851985 -2.06714652065207  0.40811943704370
 6 -4.71261741994199  2.71803203220322  1.48319499559956
 6 -9.25392463606360  3.46071226752675 -0.25943055925593
 6 -9.69254110521052 -1.31572316691669 -0.97609375477548
 7 -5.11159790779078  0.42041850295029  0.79991744974497
 6 -4.47373547114711 -0.80903988758876  0.77798388398840
 6 -3.00135188888889 -0.64903538703870  1.32941619101910
 6 -3.09560371277128  0.82768788638864  1.87599210461046
 6 -4.39350430853085  1.29928697409741  1.38123003440344
 6 -3.15166166406641  0.84190249124912  3.41710156815682
 6 -1.94910025282528 -0.73415842994299  0.20430703840384
 6 -0.58358674677468 -0.76324517931793  0.60052781788179
 6  0.37991249714971 -0.98784570187019 -0.49137499469947
 8  0.06001573747375 -1.44905459535954 -1.56039849444945
 8  1.67198227342734 -0.77528394689469 -0.18020301230123
 7 -6.95294847584758  2.79858460036004  0.35998659265927
 6 -5.90498467946795  3.39448618111811  1.03081720712071
 6 -6.17571884438444  4.79790787458746  1.23465501720172
 6 -7.42698576307631  5.00379170217022  0.65493072317232
 6 -7.94317976837684  3.73758235713571  0.11782311861186
 6 -5.31644080048005  5.79909369176918  1.76979298319832
 6 -8.11732832103210  6.24984470217022  0.50412546684668
 6 -9.10755827862786  6.66893618421842 -0.32244086038604
 7 -9.17078047734774  0.98124659925993 -0.55084205960596
 6 -9.85701747914792  2.16633993569357 -0.59952876357636
 6 -11.25158139613961  1.89188282778278 -1.04679875117512
 6 -11.37950339083908  0.54848889028903 -1.23115317691769
 6 -10.01995870427043  0.04878782938294 -0.94623810421042
 6 -12.22576677387739  3.04764733383338 -1.21339576867687
 6 -12.46522662006201 -0.26599569796980 -1.67826006100610
 6 -12.49311378097810 -0.53259790619062 -3.31879906430643
 7 -7.42695582128213 -1.27133144764476 -0.23966031113111
 6 -8.60123610911091 -2.00226684088409 -0.64718164656466
 6 -8.17914152135213 -3.31309591109111 -0.72605634413441
 6 -6.90685271347135 -3.45058094239424 -0.32612471777178
 6 -6.37811635123512 -2.12545434453445 -0.03911175707571
 6 -9.09471345644564 -4.44741814181418 -1.16914942174217
 6 -5.71964808630863 -4.32470769766977 -0.07401473187319
 8 -5.61854371047105 -5.55034154285429 -0.13398647824782
 6 -4.44147975257526 -3.46325343804380  0.46423167276728
 6 -4.13622603740374 -3.92098579377938  1.93023490879088
 8 -4.46335894759476 -3.42325328122812  2.98154861886189
 8 -3.31077359305931 -4.95879616091609  1.79675541854185
 6 -2.93566709700970 -5.59482038733873  3.11267773807381
 6  2.73098314171417 -1.05814450505051 -1.12169637493749
 6  4.03498760856086 -0.56662128552855 -0.56931354455446
 6  5.04465676587659  0.02523157075708 -1.28676408100810
 6  4.80718122832283  0.60523436513651 -2.59249178817882
 6  6.31805551765177  0.43980660896090 -0.55436689978998
 6  7.48006223342334 -0.51306063916392 -1.00592794619462
 6  8.78392186918692 -0.13972917981798 -0.37811269116912
 6  10.11583343804380 -0.74813929652965 -0.93462444234423
 6  10.03627742114212 -2.31101626742674 -0.89261337603760
 6  11.23312398699870 -0.28359803040304 -0.10441290929093
 6  12.69920850545055 -0.62141061946195 -0.69827770497050
 6  13.76456286348635 -0.02627533063306  0.13428979157916
 6  15.23132495359536 -0.24254729052905 -0.41474531033103
 6  15.60233756135614 -1.75014917681768 -0.31074080958096
 6  16.25192778997900  0.70689160036004  0.29913317771777
 6  17.70025686438644  0.65124085798580 -0.12058656645665
 6  18.58280813181318  1.73655227422742  0.59888858175818
 6  20.05046494239424  1.72561818711871  0.23138589898990
 6  20.23897482698270  2.26171560276028 -1.29208561756176
 6  20.91036150175018  2.49283301940194  1.13722012271227
 1 -3.96239440704070  3.27531391569157  1.91496373467347
 1 -9.92782036703670  4.29679911641164 -0.51157983188319
 1 -10.57487582748275 -1.99131514151415 -1.27279717361736
 1 -3.07630368186819 -1.47245760986099  2.20940273497350
 1 -2.42202276987699  1.41918186928693  1.53879337773777
 1 -2.23521103700370  0.38830625232523  3.94169089438944
 1 -3.30327362766277  1.87001164476448  3.68706780798080
 1 -4.03614419381938  0.17222792509251  3.67357620332033
 1 -2.14927438133813 -1.61265514321432 -0.49615647194720
 1 -2.28032397099710  0.26371384568457 -0.63619227992799
 1 -0.32871719511951  0.30541466736674  1.09659569006901
 1 -0.36808982188219 -1.48590777077708  1.44875199419942
 1 -4.32120677807781  5.73851198879888  1.15266840484048
 1 -5.74420563936394  6.86037115581558  1.65128072507251
 1 -5.14489626662666  5.73458330773077  2.84474553515352
 1 -7.68686878577858  7.02322935663566  1.00762206850685
 1 -9.53946933973397  6.14139212471247 -1.09359875587559
 1 -9.56634091329133  7.70481576687669 -0.15321502560256
 1 -12.30368491589159  3.66307680618062 -0.39039143774377
 1 -11.84280320262026  3.77431239593959 -2.14564178167817
 1 -13.15845324532453  2.67419303750375 -1.48046109300930
 1 -12.42309713561356 -1.29539966626663 -1.15694026782678
 1 -13.43319406170617  0.14405406680668 -1.24242792009201
 1 -12.22313682868287  0.59355637073707 -3.73992283568357
 1 -11.49653586128613 -1.17421681808181 -3.60515131183118
 1 -13.48506657985799 -0.94323168126813 -3.60781464016402
 1 -9.93154070087009 -4.39407149904990 -0.38983478737874
 1 -9.60089199939994 -4.36870388388839 -2.18487900850085
 1 -8.61072277777778 -5.34524530443044 -1.09747440094009
 1 -3.72245797309731 -3.56392374367437 -0.43321638143814
 1 -2.40935780378038 -6.68289489318932  2.84271997599760
 1 -2.22282885458546 -4.74330406940694  3.41580603090309
 1 -3.77747880328033 -5.67658465846585  3.83060458065807
 1  2.95015680748075 -2.23865060616062 -1.07669480278028
 1  2.68416025892589 -0.60163160116012 -2.14017163646365
 1  4.19779121502150 -0.85038310881088  0.57162620702070
 1  5.32989825432543  1.66284398219822 -2.73040562796280
 1  5.60612757655766  0.26421237643764 -3.38003107020702
 1  3.80447693289329  0.62640544644464 -3.05012036893689
 1  6.28149824692469  1.53363650755075 -0.48646384678468
 1  5.96619444524452  0.21455587028703  0.54139383348335
 1  7.24119477257726 -1.64575862126213 -0.80723556965697
 1  7.51294104520452 -0.47041153655365 -2.37694655235524
 1  8.99775421702170  0.91546939843984 -0.51798053955395
 1  8.73359608950895 -0.16676376337634  0.87774062696270
 1  10.27144400970097 -0.49705950765077 -2.12711343424342
 1  9.17682487008701 -2.55579424222422 -1.62133135863586
 1  11.04253111411141 -2.99807148354835 -1.14248999459946
 1  9.85277371917192 -2.78532040954095  0.09294577307731
 1  11.24061825192519  0.85548317211721  0.07041050365037
 1  11.27180474987499 -0.60871935743574  0.73828435013501
 1  12.79405591359136 -1.68977285628563 -0.83923736653665
 1  12.80889120572057 -0.24822209510951 -1.63909722822282
 1  13.39521055655566  1.05557595339534  0.13017819191919
 1  13.74020885638564 -0.27678063206321  1.20880045624562
 1  15.14701619901990  0.17445064486449 -1.60898754855486
 1  14.82834822982298 -2.21808009180918 -0.92822684318432
 1  16.50623736003601 -2.20324616411641 -0.79186057865787
 1  15.63870658825883 -2.00671028962896  0.91206390769077
 1  15.80421761336134  1.69319240794079  0.22255609920992
 1  15.97675399809981  0.66233004210421  1.38432042884288
 1  18.04092016931693 -0.56125460406041 -0.02487717241724
 1  17.64641736713671  0.97126008910891 -1.12768007260726
 1  18.35997770367037  2.80533926162616  0.37609410441044
 1  18.44025703990399  1.50249908670867  1.63319457505751
 1  20.64099232903290  0.75045577927793  0.20234317141714
 1  19.84756745394539  3.45690782288229 -1.27436241044104
 1  21.24725324252425  2.22099770357036 -1.64177950135013
 1  19.72162039783978  1.62996303290329 -2.08958413961396
 1  20.74701971507151  2.15243479377938  2.16632055985599
 1  21.99899374107411  2.57778589518952  0.80532243204320
 1  20.68164582728273  3.69587925842584  1.14362696709671
 1 -7.33369715221522  1.78048232023202  0.06895015181518
 1 -7.21343270987099 -0.41860673627363 -0.17291061126113

