%nproc=4
%Mem=2GB
# td=(NStates=1) B3LYP/SVP 

TD

0 1
 6 -5.08144099459946 -1.90863066906691  0.49764838993899
 6 -4.88936509470947  2.79303953295330  1.45492216831683
 6 -9.40205944954495  3.31151734803480 -0.21978659485949
 6 -9.77560941204120 -1.45506710131013 -0.97995414081408
 7 -5.16241298929893  0.46440290139014  0.87087454545455
 6 -4.48884698229823 -0.70697968156816  0.81233731933193
 6 -3.07838959265927 -0.50913139663966  1.30310355975598
 6 -3.15072922532253  0.95377049464946  1.82779728512851
 6 -4.46336129422942  1.41746879227923  1.35313722512251
 6 -3.02408890679068  0.87606590759076  3.35328518651865
 6 -2.15871121392139 -0.60106512061206  0.11686829452945
 6 -0.62635102320232 -0.52120097489749  0.51588935403540
 6  0.32893739963996 -0.88649556685669 -0.71222707990799
 8  0.03214295019502 -1.19477916781678 -1.81640409500950
 8  1.65117019221922 -0.44143056155616 -0.34484947694769
 7 -6.98432161316132  2.81723646554655  0.38055864986499
 6 -5.94254843584358  3.41187792029203  1.03631775717572
 6 -6.28254952745274  4.81369945374537  1.02691424312431
 6 -7.56334939943994  4.96206752975298  0.52202743284328
 6 -8.03728917931793  3.63809240814081  0.19791112741274
 6 -5.37814697109711  5.84826860926093  1.68655465936594
 6 -8.30505709390939  6.24369408710871  0.41685673997400
 6 -9.19837736053605  6.62383167376738 -0.41690030633063
 7 -9.19844324362436  0.85249372397240 -0.50131710711071
 6 -9.91411318871887  1.97200050175017 -0.37344615531553
 6 -11.28892513051305  1.72227586708671 -0.82000607190719
 6 -11.42732817331733  0.45065910731073 -1.11490155175518
 6 -10.07356406480648 -0.15651270067007 -0.83902738313831
 6 -12.24225842304230  2.87767033613361 -0.96805123422342
 6 -12.63202329972997 -0.34643374177418 -1.70858309330933
 6 -12.46572104170417 -0.48456310271027 -3.22088927332733
 7 -7.49635276097610 -1.29478379287929 -0.09915626072607
 6 -8.60125611111111 -2.07109372357236 -0.53465039343934
 6 -8.10921452865287 -3.40751535303530 -0.66734047254725
 6 -6.78190021822182 -3.45252113641364 -0.26158826412641
 6 -6.37752629222922 -2.11016281538154  0.01392354645465
 6 -8.93605759085909 -4.67814121412141 -1.01463397019702
 6 -5.62608873037304 -4.31918714561456 -0.07911524192419
 8 -5.59201105720572 -5.55409191789179 -0.12142522212221
 6 -4.41719732433243 -3.33783089578958  0.49593484308431
 6 -3.99151156595660 -3.80967466266627  1.81825371067107
 8 -4.33068568026803 -3.34987594349435  2.83049351335133
 8 -2.99257177287729 -4.76615689698970  1.70220596359636
 6 -2.62662619291929 -5.41611251655165  2.83173964426443
 6  2.61323136653665 -0.92146083668367 -1.29507371267127
 6  3.90065417521752 -0.50738536193619 -0.65219183238324
 6  4.96860916111611  0.09812886048605 -1.44543994859486
 6  5.04186469666967  0.49572341404140 -2.92367490649065
 6  6.22369608170817  0.28207083538354 -0.71245270837084
 6  7.47253148034803 -0.48293762686269 -1.21992934633463
 6  8.68936241324132 -0.10800600750075 -0.34194907480748
 6  10.12131398609861 -0.73007749034903 -0.77243822372237
 6  9.99733352675268 -2.31458662446245 -0.94200831553155
 6  11.28488916351635 -0.21088075867587 -0.04378684668467
 6  12.68680726532653 -0.62118059645965 -0.54571244844484
 6  13.82515892309231  0.12540983788379  0.24529089168917
 6  15.30528234933493 -0.28744177997800 -0.28902273807381
 6  15.56430375797580 -1.80383454535454 -0.21442117761776
 6  16.38655125232523  0.54951586278628  0.50775403980398
 6  17.75523236193619  0.63194892879288 -0.04533904170417
 6  18.80511036203620  1.37593621262126  0.76401509440944
 6  20.20080997689769  1.50337596289629  0.17425018541854
 6  20.24842577207721  2.23668309950995 -1.16722313131313
 6  21.14535500110011  2.20571430753075  1.22924932563256
 1 -4.15549371697170  3.44815119941994  1.74550678897890
 1 -10.16498408340834  4.27006644314431 -0.05989466336634
 1 -10.54596293619362 -2.33664967496750 -1.08009790369037
 1 -2.84777082858286 -1.15322568666867  2.03639543424342
 1 -2.41402196979698  1.66894684578458  1.36818631703170
 1 -1.98195571147115  0.21212863456346  3.44384110941094
 1 -3.12735603590359  1.86613125672567  3.99148825002500
 1 -3.85441602100210  0.10690139243924  3.87941678737874
 1 -2.30880033393339 -1.45179905760576 -0.41025788208821
 1 -2.17312325092509  0.12487996229623 -0.68940760146015
 1 -0.22822714611461  0.39025315121512  0.80646667716772
 1 -0.46725973887389 -1.16990617061706  1.40733785278528
 1 -4.59909456685669  5.88937707530753  0.96148928692869
 1 -5.99562078087809  6.78352347104711  1.75048064506451
 1 -5.09664144114411  5.62162201160116  2.82036309690969
 1 -8.24596469536954  6.99110614431443  1.49816112241224
 1 -9.60806619941994  6.15761374687469 -1.24799419541954
 1 -9.92617689688969  7.62340762606261 -0.23365306940694
 1 -12.64809935733573  3.15944644314431  0.19144674607461
 1 -11.66669559185919  3.71786675137514 -1.54646186368637
 1 -13.36099349934994  2.50939655785579 -1.57104015091509
 1 -12.73338816471647 -1.38099822612261 -1.24610918471847
 1 -13.68261900420042  0.15781544294429 -1.46628030533053
 1 -12.35086960196019  0.46819383448345 -3.65959480288029
 1 -11.72697890559056 -0.99515891229123 -3.48484928162816
 1 -13.54624269746975 -0.85335269336934 -3.54321818051805
 1 -9.87155470227023 -4.76999909180918 -0.39728553245325
 1 -9.34136604680468 -4.60454746824682 -2.09236975757576
 1 -8.43252495799580 -5.61512229212921 -0.85677033053305
 1 -3.70532625992599 -3.48740609190919 -0.25800886068607
 1 -2.13522039003900 -6.29813641734173  2.42522822682268
 1 -2.15855242694269 -4.69473921292129  3.55306975727573
 1 -3.64805586098610 -5.70723772377238  3.29460098029803
 1  2.59584137593759 -2.04845158625863 -1.41692882618262
 1  2.41588343124313 -0.45168660666067 -2.43818143744374
 1  3.97764920082008 -0.66930500100010  0.41127017141714
 1  5.36362162666267  1.47640533833383 -2.80286287368737
 1  5.93649061286129  0.00272622782278 -3.51496456355636
 1  3.92345883108311  0.38970177607761 -3.45490084698470
 1  6.31418151525152  1.40133327722772 -0.51708690909091
 1  6.28675650145014  0.16617103180318  0.46068576267627
 1  7.42235288838884 -1.62708675407541 -1.01346619271927
 1  7.72630238133813 -0.24388888428843 -2.17185604330433
 1  8.65383982558256  1.00161801330133 -0.46801554305431
 1  8.68017074697470 -0.42058914591459  0.84616746964696
 1  10.15389225452545 -0.47432723442344 -1.84950567346735
 1  9.09848703630363 -2.50783944674467 -1.52066129162916
 1  10.89102596359636 -2.60002167856786 -1.43969971557156
 1  10.04936337813781 -2.78279015651565 -0.00520404190419
 1  11.19846403650365  0.81181880568057 -0.06410294769477
 1  11.21283885328533 -0.50309879537954  1.17350787248725
 1  12.92139864786479 -1.76105998499850 -0.47667110991099
 1  12.91616193279328 -0.28614588748875 -1.59391270977098
 1  13.78022905840584  1.21032142794279  0.27231240534053
 1  13.73675851135114 -0.02936589058906  1.38820839703970
 1  15.46659815721572  0.08157135693569 -1.38636528632863
 1  14.82507790279028 -2.21886016981698 -0.97715173567357
 1  16.57448418471847 -2.09049488898890 -0.44125551815182
 1  15.47551026862686 -2.30561017961796  0.72702540384038
 1  16.21135832743274  1.66037912661266  0.66200004360436
 1  16.54372069476948  0.27102091119112  1.62556455325533
 1  17.98462453975398 -0.53933241184118 -0.34506919161916
 1  17.50627335273527  1.33356631973197 -1.10558786338634
 1  18.35816752265227  2.42029075677568  0.99330582558256
 1  18.87790080428043  0.56807564436444  1.64119537513751
 1  20.57343557335734  0.53759449314931 -0.03815087798780
 1  19.87414011121112  3.22603473557356 -1.20041501570157
 1  21.17004552175217  2.24133973777378 -1.44057938133813
 1  19.59520775657566  1.59097913451345 -1.88526370757076
 1  21.18435344844485  1.64475402570257  2.13770769856986
 1  22.11901574327432  1.96434455105510  0.89225112491249
 1  20.74798246094609  3.32098176867687  1.32748535293529
 1 -6.99943372587259  1.77411168316832  0.31390464726473
 1 -7.68845021162116 -0.36777165276528  0.28647532733273

