%nproc=4
%Mem=2GB
# td=(NStates=1) B3LYP/SVP 

TD

0 1
 6 -5.06799965046505 -2.03896370237024  0.42025065016502
 6 -4.85518167636764  2.73731396039604  1.31640831693169
 6 -9.41818106170617  3.32332852915292 -0.11516613281328
 6 -9.75953780488049 -1.42608420302030 -0.88878502390239
 7 -5.14673142114211  0.32068852995300  0.69454691269127
 6 -4.42846094369437 -0.82960194379438  0.77204328992899
 6 -3.02395414911491 -0.59999048254826  1.33271652105211
 6 -3.14261841424142  0.88183330093009  1.91722622802280
 6 -4.46741169926993  1.44718176357636  1.25205711711171
 6 -3.07916441434143  0.89270757175718  3.45683554155416
 6 -1.97386272907291 -0.85188020212021  0.16138274597460
 6 -0.52170055815582 -0.85671452625263  0.68333609870987
 6  0.39505401130113 -0.88881579887989 -0.69570542774277
 8  0.06651638753875 -1.03345303520352 -1.87734018861886
 8  1.68363343854385 -0.84434085258526 -0.22977796979698
 7 -7.08756193719372  2.76064080598060  0.51055164916492
 6 -6.03697787878788  3.37915464796480  0.99885401080108
 6 -6.18314958745874  4.81778986278628  0.98183973567357
 6 -7.45253831833183  5.02154347734773  0.58289351945195
 6 -8.07076252665267  3.61153975287529  0.26572790909091
 6 -5.23906306270627  5.78150193259326  1.49058506240624
 6 -8.15251183938394  6.27575729342934  0.37860291459146
 6 -9.08742626542654  6.56225551615162 -0.50151876817682
 7 -9.25984938423842  0.83161163576358 -0.51083805920592
 6 -9.87476925432543  2.06309961166117 -0.55503431413141
 6 -11.36786302430243  1.96101974147415 -1.05228930023002
 6 -11.48852429292929  0.60264430583058 -1.10459052065207
 6 -10.18494520292029 -0.09158620802080 -0.76330981138114
 6 -12.21801599879988  3.01760432953295 -1.20803523262326
 6 -12.67752785018502 -0.20554965336534 -1.64149638463846
 6 -12.62878734833483 -0.56735138153815 -3.15962314671467
 7 -7.43177630333033 -1.26422073657366 -0.40554689978998
 6 -8.53445943144314 -2.02777939213921 -0.67201412981298
 6 -8.20490409760976 -3.47648224972497 -0.49779351785179
 6 -6.87944997319732 -3.42383826812681 -0.26007811311131
 6 -6.39509804940494 -2.02961476057606 -0.07782562846285
 6 -9.04460844594459 -4.66678007800780 -0.84921742854285
 6 -5.78787490899090 -4.28368359525953 -0.00544787518752
 8 -5.76957881398140 -5.45095160386039 -0.04688776837684
 6 -4.51554715931593 -3.44022113481348  0.46056130573057
 6 -4.00964337913791 -3.87846154135414  1.86603848914892
 8 -4.46775938763876 -3.39526048194819  2.91821228522852
 8 -3.14300681638164 -4.87930821212121  1.70190593359336
 6 -2.82578610891089 -5.41276218151815  3.00532700300030
 6  2.73664370777078 -1.07186587718772 -1.25298950425043
 6  4.01714582438244 -0.60472509590959 -0.59492610581058
 6  5.04674697489749  0.12756180378038 -1.07633303790379
 6  4.90059056925693  0.73810765246525 -2.54096663566357
 6  6.31303501560156  0.28449107740774 -0.46036749984998
 6  7.57614184138414 -0.31187052015202 -1.09084643804380
 6  8.81067454445445 -0.08189339623962 -0.21288616851685
 6  10.07552940764077 -0.49203368596860 -0.96258723862386
 6  9.98958275167517 -2.04873003880388 -1.33621773647365
 6  11.35671634623462 -0.22293196379638 -0.10496296429643
 6  12.76084466906691 -0.45573405180518 -0.67041491869187
 6  13.88980538773877 -0.02993569666967  0.18765512811281
 6  15.29887170827083 -0.17457049284928 -0.50180401620162
 6  15.70687801540154 -1.61432559445945 -0.88201793729373
 6  16.38538113531353  0.45722663386339  0.50388365276528
 6  17.79996683538354  0.59645537943794  0.03219871207121
 6  18.71108095909591  1.36915553455346  0.82990168306831
 6  20.14435433133313  1.54442006730673  0.30739349974997
 6  20.28647957745775  2.20299973117312 -1.04316072507251
 6  20.98958942454246  2.24355809190919  1.28890529122912
 1 -4.01295946354635  3.47853423772377  1.53388562686269
 1 -10.21504908990899  3.90903033953395 -0.18243691759176
 1 -10.57049538943894 -2.13834984498450 -1.11620151405140
 1 -2.98138418991899 -1.36837720182018  2.11892368706871
 1 -2.08345891349135  1.29389934103410  1.41093059145915
 1 -1.96205372127213  0.54746216791679  3.81046777207721
 1 -3.26945024532453  2.06036067966797  3.73347244844484
 1 -3.89839041844184  0.32125282758276  3.98444729042904
 1 -2.28057751165117 -1.78882275997600 -0.22860971727173
 1 -2.18387432603260  0.03733120742074 -0.49016767746775
 1 -0.19246356975698  0.03760788668867  1.15414144464446
 1 -0.36920993389339 -1.75692487248725  1.14787190619062
 1 -4.47872252965297  6.09676781438144  0.74363750175017
 1 -5.70835205400540  6.69160427912791  1.83457905490549
 1 -4.72907468446845  5.39173902330233  2.52166322692269
 1 -7.52834293319332  7.20000703440344  0.70937224352435
 1 -9.68927432023202  5.82351033653365 -1.19541893789379
 1 -9.52109638883888  7.75551083638364 -0.69548925302530
 1 -12.33844839223922  3.50225072357236 -0.23327572617262
 1 -12.06309523182318  3.54976994169417 -2.06093331083108
 1 -13.28045544554456  2.37907352555256 -1.43556660356036
 1 -12.95468029392939 -1.04702482878288 -0.92428700250025
 1 -13.70003074537454  0.48391805320532 -1.68992266956696
 1 -12.58604311931193  0.23741075617562 -3.73149199259926
 1 -11.63667987568757 -1.19273867026703 -3.46531732843284
 1 -13.51258933213321 -1.23089044714472 -3.25138899759976
 1 -9.68221576837684 -4.95733782568257 -0.08696450035004
 1 -9.46657856805681 -4.92913992749275 -1.77425794639464
 1 -8.39062076757676 -5.50860164006401 -0.63726838033803
 1 -3.51234696199620 -3.53860121142114 -0.23261632143214
 1 -1.88234510251025 -6.00063666736674  2.86420212421242
 1 -2.41538811051105 -4.62132187118712  3.70112456275627
 1 -3.71271232663266 -6.07315431543154  3.38813033323332
 1  2.76847863966397 -2.21212795389539 -1.42151928522852
 1  2.48375021792179 -0.52376381438144 -2.17841546084608
 1  4.20335177107711 -1.40034810531053  0.29775882028203
 1  5.46611187568757  1.70015771357136 -2.39909249664966
 1  5.44717168096810  0.02138809400940 -3.31418448554855
 1  3.85744222942294  0.87389019491949 -2.92090744764476
 1  6.65429552665266  1.17289043294329 -0.16691189158916
 1  6.30493831963196 -0.38643422872287  0.56136583068307
 1  7.41076172927293 -1.30549459485949 -1.32370721682168
 1  7.57349710081008  0.10083558815882 -2.09054791249125
 1  8.89857429902990  0.96378422992299  0.14222548104810
 1  8.61365409530953 -0.68658574557456  0.55356820972097
 1  10.26154301960196  0.10281047934793 -1.83837456035604
 1  8.99474666226623 -2.14259292209221 -1.98214744024402
 1  10.75248210921092 -2.50230190659066 -1.79099484508451
 1  9.60050849264926 -2.46002788028803 -0.37579110061006
 1  11.24874906500650  0.76740436423642  0.38438190079008
 1  11.06598416781678 -0.78130661616162  0.90476099779978
 1  12.61493800180018 -1.62152603160316 -0.88339178197820
 1  12.87577789438944 -0.17914518741874 -1.81764508300830
 1  13.74907594309431  1.10695109090909  0.61189636373637
 1  14.01800663616362 -0.57685063906391  1.21938151435143
 1  15.30408190559056  0.53741694149415 -1.38713536333633
 1  15.27347274227423 -1.91526981078108 -1.63891791229123
 1  16.85866260256026 -1.71463730323032 -1.20260165276528
 1  15.71179389698970 -2.16730634923492  0.06791949324932
 1  16.03538072967297  1.55852894159416  0.78426226982698
 1  16.35602192489249  0.03801761086109  1.52956495329533
 1  18.11909798709871 -0.39273775237524 -0.04026871157116
 1  17.76176890229023  1.06540950405041 -0.98731603620362
 1  18.18732043794380  2.49668839653965  0.80127662266227
 1  18.78603161736174  1.05726456325633  1.93376463206321
 1  20.60387861766177  0.49883061676168  0.14887782488249
 1  19.68163086028603  2.95674780688069 -1.26471144534453
 1  21.20326884408441  2.36311191499150 -1.25044036743674
 1  19.80689892569257  1.37179721632163 -1.72772795399540
 1  21.00475548864886  1.70848039833983  2.28771269906991
 1  22.08854269596960  2.53804192079208  1.12921482128213
 1  20.76339400210021  3.29343901440144  1.55293789818982
 1 -7.14001778427843  1.74588886088609  0.40740399719972
 1 -7.43703507010701 -0.27525240084008 -0.23929724992499

