%nproc=4
%Mem=2GB
# td=(NStates=1) B3LYP/SVP 

TD

0 1
 6 -5.07547039753975 -1.97980778677868  0.40589921502150
 6 -4.62638879707971  2.64907513651365  1.49980665676568
 6 -9.09770901450145  3.49267546384638 -0.30482509870987
 6 -9.87815966706671 -1.36435803040304 -0.97389353475348
 7 -5.12552930093009  0.43795025612561  0.79002646064606
 6 -4.55461355895590 -0.76230521412141  0.83628971457146
 6 -3.05832758645865 -0.62476295979598  1.34658790819082
 6 -2.96103025542554  0.74518963656366  1.75319982538254
 6 -4.25424038213821  1.36473351875187  1.28867077847785
 6 -2.88207470537054  0.81554985598560  3.33097295529553
 6 -2.05592093489349 -0.97612262636264  0.08881548924892
 6 -0.61015940404040 -0.86639549434944  0.60896866196620
 6  0.41491599749975 -1.15385230253025 -0.43584944214421
 8  0.11537127302730 -1.73951364126413 -1.48725117971797
 8  1.67920299549955 -0.88045446394639 -0.08071306330633
 7 -6.97400058105811  2.75238998089809  0.51613220722072
 6 -5.88500268126813  3.35152188468847  1.12562668806881
 6 -6.19837110961096  4.71532961676168  1.20687223892389
 6 -7.45706877137714  4.96873819681968  0.56161139123912
 6 -7.93776922732273  3.75855445434543  0.16590792709271
 6 -5.22893204960496  5.82695647804780  1.80498650255026
 6 -8.03763035123512  6.23652337003700  0.47059211351135
 6 -8.83710123292329  6.76830612121212 -0.61897051335134
 7 -9.12918631793179  0.94176265086509 -0.57878485388539
 6 -9.79313109050905  2.18790209190919 -0.65393420412041
 6 -11.20174641264126  1.95774941444144 -1.00154422572257
 6 -11.48198363886389  0.61394543594359 -1.21542160376038
 6 -10.09952666106611 -0.03165021442144 -0.86882036243624
 6 -12.11262545974597  3.11711428052805 -1.18526295539554
 6 -12.63179327672767 -0.06718581698170 -1.74866710171017
 6 -12.56630109970997 -0.38323296969697 -3.21693887828783
 7 -7.48585171087109 -1.19984429892989 -0.08660500560056
 6 -8.68645463096310 -1.99883649784979 -0.62682961136114
 6 -8.28915252245224 -3.39961456295630 -0.63825756425643
 6 -6.91539356755676 -3.43550943524352 -0.21781388668867
 6 -6.42552109170917 -1.99876167526753 -0.01908975487549
 6 -9.23634761986199 -4.43814721472147 -0.96992949974997
 6 -5.77520364186419 -4.32425765266527 -0.02439977037704
 8 -5.79355121122112 -5.51512802150215 -0.15062814241424
 6 -4.58586419101910 -3.36885399809981  0.38816406600660
 6 -3.98089050385039 -3.83398709390939  1.73414529982998
 8 -4.36386899859986 -3.50288124402440  2.73183364736474
 8 -3.21121363706371 -4.91028130943094  1.49192493549355
 6 -2.71752528282828 -5.52987389268927  2.73903037333733
 6  2.68004804820482 -1.26975566616662 -0.95528973427343
 6  3.89954406420642 -0.76714133753375 -0.46307292049205
 6  4.86066836703670 -0.00479143154315 -1.09307471207121
 6  4.75511602180218  0.51624546624662 -2.46754929392939
 6  6.24720843294329  0.20879350765077 -0.46601806490649
 6  7.42814704190419 -0.58651798489849 -1.08622597599760
 6  8.72901637863786 -0.25156036293629 -0.30146502640264
 6  10.02344419911991 -0.78020250285029 -0.84605558545855
 6  9.88850264366437 -2.31130629642964 -0.94552866756676
 6  11.32234290889089 -0.35318498909891 -0.12040450845084
 6  12.70983956855686 -0.48513699209921 -0.74608248544854
 6  13.80814722192219  0.22118941584158  0.12806916951695
 6  15.27222904400440 -0.10413344914491 -0.39117295309531
 6  15.69168649624963 -1.62472663456346 -0.02808254375438
 6  16.14267686488649  1.10351126232623  0.24215748014801
 6  17.66957379607961  0.92543827772777 -0.16763127092709
 6  18.53700355135513  1.91695031403140  0.47720641354135
 6  20.12147204310431  1.64468009330933  0.26162892329233
 6  20.37805873537354  1.94055348654866 -1.30097650665067
 6  20.82310277587759  2.70345408150815  1.11150755145515
 1 -3.72848101570157  3.17578396269627  1.98170040834083
 1 -9.67950553555356  4.34428386488649 -0.60351902580258
 1 -10.74871321122112 -2.07306331633163 -1.27229712361236
 1 -2.67774382588259 -1.53309367346735  1.84949674437444
 1 -2.03884445204520  1.31894184528453  1.19802930133013
 1 -1.81353886978698  0.47386480818082  3.44304102940294
 1 -2.97626092639264  1.83326797039704  3.72165126632663
 1 -3.61770234963496  0.13421412371237  3.66795564126413
 1 -2.27734718861886 -1.94767864556456 -0.38537539383938
 1 -2.10356629522952 -0.36172869856986 -0.78862752345235
 1 -0.47294161756176  0.06025015091509  1.13008903940394
 1 -0.54668768166817 -1.63836301630163  1.46504362336234
 1 -4.32577723512351  5.94282241984198  1.15910904890489
 1 -5.90189140794079  6.77288240694069  2.33142873987399
 1 -4.60885266226623  5.23192304170417  2.74791585218522
 1 -7.71228132703270  6.99263629732973  1.20060136643664
 1 -9.30982637543754  6.29912789828983 -1.44543393939394
 1 -9.07902218141814  8.01788707400740 -0.39892959705971
 1 -12.28027257465746  3.67916841534153 -0.08700109870987
 1 -11.84210313261326  3.95016998169817 -1.90009722722272
 1 -13.17254465446545  2.77175279347935 -1.18890193709371
 1 -12.93446827272727 -1.18462858915892 -1.34134870867087
 1 -13.46322706500650  0.66825648704871 -1.58762243954395
 1 -12.55938045304530  0.60309732483248 -4.11698054145415
 1 -11.74673088078808 -0.99982937933793 -3.46669746644664
 1 -13.46178425162516 -0.86263362146215 -3.33940779947995
 1 -9.88504605140514 -4.54212630453045 -0.06598240214021
 1 -10.05070698089809 -4.52627964146415 -1.89559007960796
 1 -8.55290699619962 -5.26212699259926 -1.02374702820282
 1 -3.76434216151615 -3.53496084738474 -0.41042410221022
 1 -2.40928779677968 -6.59800640434043  2.52114781878188
 1 -1.84550112181218 -4.68536827582758  3.02560701100110
 1 -3.42424347974797 -5.55640264026403  3.41467298749875
 1  2.75626741854185 -2.29033577467747 -1.31648878217822
 1  2.70192203510351 -0.96992843084308 -2.12570018931893
 1  4.29539097499750 -1.19008707920792  0.43965300970097
 1  5.08355361986199  1.51129882768277 -2.62123471087109
 1  5.17971493529353 -0.11132517731773 -3.25720878797880
 1  3.65853233843384  0.59280208610861 -2.79936529342934
 1  6.57614771187119  1.30539368326833 -0.50223542394239
 1  6.17931575737574 -0.16856244154415  0.53920361446145
 1  7.42567322042204 -1.78559260466047 -0.87059190529053
 1  7.50339009010901 -0.53018751415141 -2.27185604330433
 1  8.71666610821082  0.78947679917992 -0.29312805430543
 1  8.66957968786879 -0.38572565956596  0.79044189708971
 1  10.06244310961096 -0.54471427312731 -1.93562428532853
 1  8.97419460706071 -2.68168683148315 -1.43645287078708
 1  10.70520738173817 -3.12940461686169 -1.03458920452045
 1  9.54861330313031 -2.71271314881488  0.28077455595560
 1  11.30631482158216  0.85648327212721 -0.01114765216522
 1  11.45001257065707 -0.58563704920492  0.99204972667267
 1  12.90463697169717 -1.49732361136114 -0.98287172997300
 1  12.84064438103810  0.13059578667867 -1.83153647214721
 1  13.64860589608961  1.38359875567557  0.17523269736974
 1  13.65887072257226 -0.15903885788579  1.15973554975498
 1  15.21530302770277  0.04736793659366 -1.51911856165617
 1  14.92320771577158 -2.34827311111111 -0.67343136363636
 1  16.68130486678668 -1.90603644314431 -0.50687207980798
 1  15.49264198179818 -1.90724034263426  1.03706640794079
 1  15.70317750935093  2.05364845354535 -0.08816497289729
 1  15.98254457715772  1.05239904900490  1.30251224802480
 1  17.77533361066106 -0.28376685528553 -0.04897958265827
 1  17.73797652305231  0.74079704280428 -1.37076438103810
 1  18.27867957385739  3.06092482018202  0.38272476747675
 1  18.49169218341834  1.71751058785879  1.49233048864887
 1  20.36103433323332  0.66641737543754  0.46707964506451
 1  20.25679837703770  3.16245837793779 -1.64990996519652
 1  21.39824834203420  1.83777938173817 -1.31195651905191
 1  20.05068330413041  1.24043408000800 -2.02019720092009
 1  21.10827584068407  2.26725627592759  2.24800872867287
 1  21.90195403710371  3.09405752235224  0.77886978677868
 1  20.22773043574358  3.79041871237124  1.23973657805781
 1 -7.08254203670367  1.80206447844785  0.36154941174117
 1 -7.47921928852885 -0.22075695129513 -0.08406172637264

