%nproc=4
%Mem=2GB
# td=(NStates=1) B3LYP/SVP 

TD

0 1
 6 -5.11374422492249 -1.94368417441744  0.48269689478948
 6 -4.72149830803080  2.75382561156116  1.52531920802080
 6 -9.26629587318732  3.38000419671967 -0.25842045824582
 6 -9.74558640974097 -1.41742333693369 -0.86697284268427
 7 -5.13061980998100  0.41315777687769  0.76642410041004
 6 -4.48605670327033 -0.74700368396840  0.83054914051405
 6 -3.04284603830383 -0.68599908340834  1.23025627502750
 6 -3.01104525692569  0.79926504410441  1.92322682808281
 6 -4.32363732183218  1.44795184058406  1.30990290169017
 6 -3.02126862476248  0.80975927692769  3.35586544454445
 6 -2.06440178297830 -0.69800481458146  0.06202280998100
 6 -0.62630101820182 -0.76614546934693  0.58359612471247
 6  0.33608811471147 -0.93814073137314 -0.62841869906991
 8  0.03979371527153 -1.19385907580758 -1.78484093869387
 8  1.60869594479448 -0.89962638113811 -0.20167515951595
 7 -6.92762594359436  2.72990773267327  0.36608720272027
 6 -5.84126830783078  3.27966469896990  1.01594571997200
 6 -6.13074434693469  4.73363144694469  1.02959451115112
 6 -7.37725078957896  5.03077440044004  0.43526875697570
 6 -7.95607105750575  3.70818941784178  0.16171750805080
 6 -5.17462661906191  5.83856763916392  1.41074707860786
 6 -7.95752234043404  6.28140785848585  0.19013406770677
 6 -8.97172469526953  6.61571086168617 -0.63665228152815
 7 -9.19737313661366  0.91450992559256 -0.56663363876388
 6 -9.85412719011901  2.13160646234623 -0.63174198489849
 6 -11.22599883788379  1.87617125662566 -0.92551662296230
 6 -11.40499594009401  0.53485752715272 -1.06120618221822
 6 -10.06691339973997 -0.06124317371737 -0.84265774617462
 6 -12.26353055025502  2.90297286638664 -1.04395882498250
 6 -12.71913201060106 -0.18205730413041 -1.45105734073407
 6 -12.66918138773877 -0.54476912331233 -2.97334451885189
 7 -7.53386651235123 -1.36474078857886 -0.26560290539054
 6 -8.54133011851185 -2.05432204640464 -0.65397232563256
 6 -8.14821842904290 -3.48410301180118 -0.70884462296230
 6 -6.84240626882688 -3.50990687498750 -0.14977708300830
 6 -6.48585712531253 -2.15989778887889 -0.00854870077008
 6 -9.09002298739874 -4.54905830583058 -1.00464297109711
 6 -5.67096321782178 -4.34089931683168  0.04075674527453
 8 -5.63677553365337 -5.49596610531053 -0.17992107170717
 6 -4.58282388698870 -3.38775588828883  0.52948819841984
 6 -3.86311872667267 -3.83767746294629  1.80172205750575
 8 -4.19797240894089 -3.47161811771177  2.86275673967397
 8 -2.96725924162416 -4.79240952225223  1.49728547154715
 6 -2.47195072537254 -5.48816972227223  2.74185065536554
 6  2.73250329372937 -0.88310700130013 -1.12882708800880
 6  3.99272338213821 -0.58923354675468 -0.47572418561856
 6  4.95205750595059  0.13324237183718 -0.99094449904990
 6  4.77639815001500  0.91018486018602 -2.28760129912991
 6  6.23012672477248  0.44276690499050 -0.33318478157816
 6  7.34606883408341 -0.33044237733773 -1.05193254665467
 6  8.68403188018802 -0.25354056095610 -0.18170305020502
 6  10.01063291799180 -0.59851433403340 -0.87182816271627
 6  10.01484527792779 -2.11075624142414 -1.43774788948895
 6  11.24523519811981 -0.33611328192819  0.06574410641064
 6  12.63850243484348 -0.30759923832383 -0.71343922112211
 6  13.66478288548855  0.04121141804180  0.26513287588759
 6  15.13684550565056 -0.33465650145014 -0.27527136293629
 6  15.43909123672367 -1.77900206210621 -0.33681341684168
 6  16.25471806900690  0.53406431763176  0.60047331173117
 6  17.53624046274627  0.60556629052905 -0.09708421622162
 6  18.63815366636663  1.37148576757676  0.79448814171417
 6  20.11198109400940  1.55520114541454  0.14935769616962
 6  20.05578650815082  2.19004843604360 -1.38305471447145
 6  20.85357582318232  2.38702243834383  1.15316171687169
 1 -4.12840100770077  3.41932831713171  1.94575681398140
 1 -9.87954553955395  4.29983942044204 -0.68365703960396
 1 -10.58969730963096 -2.24908091809181 -1.11686158005801
 1 -2.60405645714571 -1.14631499559956  2.13723551825183
 1 -2.16082665026503  1.46901685278528  1.72364186258626
 1 -2.16449396529653  0.46514393609361  3.60730745604560
 1 -2.97959125942594  1.79972461606161  3.79728883008301
 1 -3.63035361476148  0.01703240554055  3.65511435713571
 1 -2.36527598149815 -1.57618149584958 -0.43600045634564
 1 -2.20514645324532  0.11992946724673 -0.59417807850785
 1 -0.18507283068307  0.04343846974698  0.87741377187719
 1 -0.42802581548155 -1.50801998199820  1.17726484548455
 1 -4.46519117651765  5.91991012861286  0.58582172017202
 1 -5.68727994679468  6.95214033273327  1.48568416541654
 1 -4.39044082108211  5.42628247764777  2.31044210481048
 1 -7.59685978487849  7.01517855155516  0.87776908320832
 1 -9.36383177597760  6.00838882438244 -1.29288868486849
 1 -9.70679495869587  7.39821510681068 -0.53619332343234
 1 -11.94687923532353  3.67572807130713 -0.27256965556556
 1 -12.04182310461046  3.23269823452345 -2.24595181268127
 1 -13.30182758275828  2.59539515771577 -0.92381542844284
 1 -12.72989781568157 -1.11957208350835 -0.84120869466947
 1 -13.53476421872187  0.49906956835684 -1.03044672197220
 1 -12.76797131213121  0.40029704480448 -3.44871371477148
 1 -11.84361056875688 -0.93924332073207 -3.32411320802080
 1 -13.36046411961196 -1.18733609170917 -3.36907076577658
 1 -9.82169971677168 -4.95472756465647 -0.05356116001600
 1 -9.50940285048505 -4.29375638913891 -1.84604512511251
 1 -8.49501120662066 -5.59254003390339 -1.04443909740974
 1 -3.82861858915892 -3.51511886318632 -0.38088114791479
 1 -1.89863673167317 -6.36533313701370  2.39038474247425
 1 -1.87758433013301 -4.86391613061306  3.29965441574157
 1 -3.30073112851285 -5.89236623662366  3.41125264546455
 1  2.88721051285128 -1.93294003510351 -1.87278441174117
 1  2.41685352825283 -0.23788522652265 -1.85961358065807
 1  4.24467590349035 -1.32380045054505  0.32526157055706
 1  5.20156542104210  1.88053575137514 -2.20590317771777
 1  5.17183414721472  0.45252120732073 -3.25547861496150
 1  3.77369385458546  0.90803360926093 -2.67902325922592
 1  6.57850794789479  1.50565370927093 -0.35170037043704
 1  6.34520234603460  0.14922933763376  0.74248394249425
 1  6.94995564866487 -1.40107415281528 -1.06724157025703
 1  7.63836358745875  0.11072657725773 -1.96206506420642
 1  8.94910935253525  0.86397424892489  0.09316057455746
 1  8.55633836373637 -0.90345743274327  0.70572342524252
 1  9.95759262456246  0.26959715801580 -1.55880660356036
 1  9.01981916951695 -2.28501716451645 -2.05840506600660
 1  10.69163602460246 -2.31422309870987 -2.27928367396740
 1  10.33959240104010 -2.97531940944094 -0.61908543004300
 1  11.07651184128413  0.84119174297430  0.66029949254925
 1  11.26691426082608 -0.88363684918492  1.10947146884689
 1  12.76430293829383 -1.31265514451445 -1.08621206400640
 1  12.54661497809781  0.33958668576858 -1.62610592909291
 1  13.53157419291929  1.16075647144714  0.22028720282028
 1  13.60293512901290 -0.43570652465247  1.25510508670867
 1  15.22547404480448  0.17882108190819 -1.39027567736774
 1  14.61125652065206 -2.36182446624662 -0.83735775627563
 1  16.35583231953196 -2.09255509500950 -1.00794218681868
 1  15.75160787838784 -2.24567418601860  0.58886158745875
 1  15.84478166976698  1.58001108980898  0.94409825342534
 1  16.39647597029703 -0.10819701060106  1.39760175697570
 1  18.09106518381838 -0.34600307890789 -0.39988467316732
 1  17.32618534393439  1.02899586268627 -1.08375568016802
 1  18.26079778567857  2.41863059075908  0.99972646764676
 1  18.45831884608461  0.89263810061006  1.74418567416742
 1  20.46006423622362  0.45019575327533  0.07854079117912
 1  19.60123282048205  3.12714484658466 -1.45454042824282
 1  21.02735125232523  2.35875147894789 -1.57598292169217
 1  19.53513174897490  1.67963800040004 -2.01568674987499
 1  20.74740975407541  1.94933448374838  2.33522745054505
 1  22.01098494019402  2.22533064966497  1.15739763956396
 1  20.71515917861786  3.37601727222722  1.23934653905391
 1 -7.40395417791779  1.66973124512451  0.23382663946395
 1 -7.54098546514652 -0.32182705830583 -0.21583490369037

