%nproc=4
%Mem=2GB
# td=(NStates=1) B3LYP/SVP 

TD

0 1
 6 -5.20761361186119 -1.90536034203420  0.46104472957296
 6 -4.70056621482148  2.71774200320032  1.52886956305631
 6 -9.23369261286128  3.38198439473947 -0.18724334053405
 6 -9.81921377247725 -1.35803739833983 -1.09567571297130
 7 -5.16967371537154  0.42066852795280  0.92804026202620
 6 -4.49627772537254 -0.81192017561756  0.88080416601660
 6 -3.09791154485449 -0.70436091959196  1.32830608000800
 6 -3.10955510791079  0.71810692829283  1.96840134553455
 6 -4.32472743084308  1.36737378277828  1.36104801620162
 6 -3.08984548244824  0.68736703770377  3.55446530453045
 6 -2.11295663846385 -0.89289430353035  0.13242985068507
 6 -0.67692608070807 -0.71715056985699  0.58704646974697
 6  0.29433393929393 -1.10814773207321 -0.55366122332233
 8  0.00841057695770 -1.59971966186619 -1.69475192979298
 8  1.56020109530953 -0.94447086558656 -0.11808680068007
 7 -7.00307348834883  2.79103384528453  0.53742433643364
 6 -5.74620880188019  3.39302603510351  1.01434555995600
 6 -6.14827610011001  4.75402348614861  1.04816636833683
 6 -7.46827989248925  4.99599092209221  0.62328755885589
 6 -7.94060951135114  3.68330692959296  0.19930126642664
 6 -5.19630878727873  5.84062784518452  1.59516552045204
 6 -8.11522811101110  6.23672339003900  0.40483553785379
 6 -8.99385690849085  6.72531182178218 -0.64565318161816
 7 -9.16146954625463  0.97121559615962 -0.57426440184018
 6 -9.88867064446445  2.20840414211421 -0.57097590829083
 6 -11.29167540554055  2.02806644614461 -0.83825789708971
 6 -11.37370281078108  0.66627066846685 -1.23899396099610
 6 -10.17835454385439  0.02840579117912 -0.92775625602560
 6 -12.22890708790879  3.09282185128513 -1.13348777787779
 6 -12.60778087548755 -0.05734483288329 -1.73633586858686
 6 -12.39820429002900 -0.36276092249225 -3.39511669606961
 7 -7.52065519121912 -1.19440375487549 -0.38073441854185
 6 -8.54144012951295 -1.90872748694869 -0.88293522192219
 6 -8.22934654185418 -3.37825242674267 -0.73445718421842
 6 -6.81296332453245 -3.35636152045205 -0.35890799609961
 6 -6.49999853945395 -2.02406420552055 -0.02586043194319
 6 -9.09597358245825 -4.45376877687769 -1.18574108090809
 6 -5.74316043754375 -4.32129735663566 -0.02224955535554
 8 -5.61014287038704 -5.56584309300930 -0.26150923052305
 6 -4.66701230583058 -3.37890500320032  0.48505375497550
 6 -3.99347176197620 -3.78295199039904  1.78305019031903
 8 -4.27582019371937 -3.46040699659966  2.88368883288329
 8 -3.10756327202720 -4.84537481878188  1.59046478947895
 6 -2.69523305360536 -5.37801870717072  2.94058052835284
 6  2.59928997239724 -1.19453814441444 -1.00502470777078
 6  3.92862697249725 -0.89909453285328 -0.49699631283128
 6  5.01408370857086 -0.23140409280928 -1.00235564016402
 6  4.83267377757776  0.39930377207721 -2.36655919491949
 6  6.33829754185419  0.06333896219622 -0.23887535063506
 6  7.51790601780178 -0.64900423352335 -0.89704705810581
 6  8.74802827982798 -0.27610281718172 -0.05736061596160
 6  10.03272512721272 -0.82048653125313 -0.73116409630963
 6  10.09243303670367 -2.34402956875688 -0.90967508220822
 6  11.30826150075007 -0.28051772237224  0.09243677567757
 6  12.69628821342134 -0.58412689108911 -0.45481335853585
 6  13.79541594879488  0.08583588048805  0.33452981558156
 6  15.22679450055005 -0.08409144494449 -0.42621645744574
 6  15.64118144574457 -1.48792295419542 -0.52495223072307
 6  16.32247484468447  0.70722163336334  0.42445570997100
 6  17.67718455715572  0.77237297119712 -0.22139664746475
 6  18.63805365636563  1.90185880488049  0.39851854475448
 6  20.00023991989199  1.83945957125713 -0.06633387298730
 6  20.18699962946295  2.36342577377738 -1.45543195219522
 6  20.98212867846785  2.56798053415342  0.86290269096910
 1 -3.86446461406141  3.42677906220622  1.82909514781478
 1 -9.80780836583658  4.29066850335033 -0.23505217911791
 1 -10.51076941684168 -1.92781879187919 -1.50361025492549
 1 -3.26012206370637 -1.51561192529253  2.15969776447645
 1 -2.18815938353835  1.35950590169017  1.94208370677068
 1 -1.94385190109011  0.32524994669467  4.04991171647165
 1 -3.12808610891089  1.66444108770877  4.02385148634863
 1 -3.75345592499250  0.02415311761176  4.11820066576658
 1 -2.39003845774577 -1.85576945464546 -0.44891174747475
 1 -2.30280621922192 -0.11365389108911 -0.64096275697570
 1 -0.53443776717672  0.33863798969897  0.95918194869487
 1 -0.39260227312731 -1.31333051305130  1.43316043504350
 1 -4.33539819721972  6.12962109970997  0.90583372137214
 1 -5.65359657845785  6.68004312301230  1.74852044904490
 1 -4.87116889388939  5.44333418281828  2.53444450505050
 1 -7.55700579947995  6.98971600530053  1.20807211351135
 1 -9.36417180998100  5.94443242874287 -1.38843823982398
 1 -9.53522780198020  7.86410169546955 -0.51361106520652
 1 -12.60180472787279  3.49949044754475 -0.19675207380738
 1 -11.59254817711771  3.82456742144214 -1.81994921242124
 1 -12.98250565056506  2.76308192639264 -1.66560960786079
 1 -12.73133795969597 -1.19181930823082 -1.28025259905991
 1 -13.41811255355536  0.44600426182618 -1.59257293459346
 1 -12.45903041804180  0.51346836193619 -3.89537838123812
 1 -11.50804701240124 -0.91448084448445 -3.50735153185318
 1 -13.23272134533453 -0.99564692279228 -3.89832369106911
 1 -10.02979052585259 -4.74595668756876 -0.40576638053805
 1 -9.34433634383438 -4.38135514901490 -2.21699221982198
 1 -8.37359906540654 -5.34752553245325 -1.24234888838884
 1 -3.70149587688769 -3.71869922122212 -0.21391445124512
 1 -1.85161202920292 -5.91397800150015  2.55444114811481
 1 -2.25000157185719 -4.41651139013901  3.46062051235123
 1 -3.58750980638064 -5.86146314631463  3.49153067326733
 1  2.50532232403240 -2.32456919801980 -1.18962609590959
 1  2.32465430833083 -0.79348078607861 -2.10488810811081
 1  4.04034547044704 -1.43414148464846  0.58176722112211
 1  5.52351761626163  1.44271196899690 -2.29774236163616
 1  5.45607257105711 -0.08607265206521 -3.15333840094009
 1  3.87524400960096  0.53924673057306 -2.68844420132013
 1  6.52552264936494  1.20071321522152 -0.52495769616962
 1  6.05843366916692 -0.21248683398340  0.80818051215121
 1  7.39837049014902 -1.79485353075308 -0.88092293839384
 1  7.56942669376938 -0.29317381278128 -1.96570542824282
 1  8.89606404800480  0.83429128062806  0.07827908640864
 1  8.57900062996300 -0.43975106210621  0.90977383028303
 1  10.06453331863186 -0.33855365706571 -1.60648137103710
 1  9.32980016761676 -2.85068373117312 -1.48067729322932
 1  11.02032889388939 -2.66317799419942 -1.45227097269727
 1  10.21494993679368 -2.99897177467747 -0.15355887738774
 1  11.24348853895389  0.87686531033103  0.33284674727473
 1  11.30552812221222 -0.51264975047505  1.16620714241424
 1  12.91517802580258 -1.61804568356836 -0.55369881268127
 1  12.68112842944294 -0.19894716761676 -1.37820113861386
 1  13.60588162366237  1.13954435023502  0.53001817591759
 1  13.97273210871087 -0.50024297829783  1.29262883908391
 1  15.13102459985999  0.65016821662166 -1.23649029882988
 1  14.59666506150615 -2.01551983578358 -0.97497151765177
 1  16.59891662796280 -1.69702554205420 -1.09997138973897
 1  15.93192591019102 -2.01666128472847  0.47523022432243
 1  15.81569876147615  1.64623771247125  0.75488933253325
 1  16.62280860356036 -0.01777796869687  1.35677767456746
 1  18.13046912421242 -0.10292877147715 -0.46699138383838
 1  17.55321804720472  1.19049201230123 -1.31803910851085
 1  18.13900560646065  2.81752047974798  0.22952944794479
 1  18.71710472467247  1.84404324112411  1.50051130673067
 1  20.38115634543454  0.60011074477448  0.09207214431443
 1  19.68642133933393  3.35743787588759 -1.38453342754275
 1  21.23014153135313  2.75323092689269 -1.67888321172117
 1  19.75279351515151  1.64339437603760 -2.22779796099610
 1  21.00113512661266  2.09836938723872  2.06088001580158
 1  21.97275111681168  2.56754487108711  0.54539643944394
 1  20.85882354505451  3.66103577407741  1.21845444984498
 1 -6.95153893639364  1.80253452545255  0.17202045884588
 1 -7.37642900950095 -0.12344722032203 -0.06108942914291

