%nproc=4
%Mem=2GB
# td=(NStates=1) B3LYP/SVP 

TD

0 1
 6 -5.24935778627863 -1.93012281828183  0.33050167526753
 6 -4.72529868806881  2.73383361236124  1.28023469956996
 6 -9.37019626322632  3.37849404570457 -0.18550316651665
 6 -9.97838969006901 -1.41364295889589 -0.95975212061206
 7 -5.16721346934693  0.55066152725273  0.58212567056706
 6 -4.58731682928293 -0.67966695029503  0.63468955455546
 6 -3.15749750345035 -0.52726320982098  1.16801005040504
 6 -3.11291544394439  0.87833295089509  1.68770327572757
 6 -4.46752171027103  1.47904494989499  1.13848575997600
 6 -2.99813631153115  0.85150345134513  3.31226108410841
 6 -2.16192153495350 -0.74082909700970 -0.01469486178618
 6 -0.67509589768977 -0.88824767956796  0.63743150825083
 6  0.38770327622762 -1.24439135643564 -0.40503636083608
 8  0.18314805070507 -1.59855954585459 -1.62273472807281
 8  1.66404147934793 -1.01075749424943 -0.04563955595560
 7 -7.01392457345735  2.81356609850985  0.48490908490849
 6 -5.89173335433543  3.39048578107811  0.89977410281028
 6 -6.17966923942394  4.73444152795280  1.06470802250225
 6 -7.51310437493749  5.00043136613661  0.57304253435344
 6 -8.00635608600860  3.70637923682368  0.17348868516852
 6 -5.17991714811481  5.80932471487149  1.43886989088909
 6 -8.13066965516552  6.30113983168317  0.47778283258326
 6 -9.06779430223022  6.71680097069707 -0.43783239953995
 7 -9.26439983928393  0.90301877647765 -0.55728270367037
 6 -9.92175395279528  2.15138844054405 -0.49880869156916
 6 -11.30096633463346  1.89999363886389 -0.82231630293029
 6 -11.40726616711671  0.58761280268027 -1.08773883548355
 6 -10.13320002840284 -0.05043209260926 -0.86128960936094
 6 -12.18845304250425  3.13765633473347 -1.10501493059306
 6 -12.71906200360036 -0.14652375077508 -1.50003223822382
 6 -12.81924639423942 -0.39175382178218 -2.92270945534553
 7 -7.59949307500750 -1.28020233473347 -0.21433777887789
 6 -8.68580456595659 -1.93931054525453 -0.55478240664066
 6 -8.38346195339534 -3.41459606110611 -0.54399813831383
 6 -6.96492852105211 -3.36022190649065 -0.20563266856686
 6 -6.50005854545454 -2.01303310241024 -0.01788963486349
 6 -9.33058704380438 -4.56724012401240 -0.82877538433843
 6 -5.87850397189719 -4.32190741764176 -0.03847117751775
 8 -5.76229808590859 -5.58380488918892 -0.09605268486849
 6 -4.55906151075108 -3.37235434813481  0.31325657525753
 6 -3.96309872467247 -3.83119681488149  1.61193307860786
 8 -4.21935454715472 -3.40653160906091  2.75023548754875
 8 -3.20711322702270 -4.90600088138814  1.32897864086409
 6 -2.49394292459246 -5.47843874917492  2.45410188048805
 6  2.72432247564756 -1.08179687028703 -1.11092529782978
 6  4.01889599939994 -0.72572719611961 -0.44344095729573
 6  5.01281358155815 -0.14779573197320 -1.01446685128513
 6  4.93645415561556  0.45109895159516 -2.43491603060306
 6  6.37467117921792  0.13126575487549 -0.32266372947295
 6  7.61863609080908 -0.54210354345435 -0.94864221762176
 6  8.92299577657766 -0.16465167206721 -0.18717359725973
 6  10.18337019171917 -0.74233871647165 -0.63850483038304
 6  10.20800459385939 -2.32513767956796 -0.72398651335134
 6  11.47722839743974 -0.21320099069907  0.06286381838184
 6  12.79254783938394 -0.45239371777178 -0.55643352055206
 6  13.98725513271327  0.07618491539154  0.18146450905090
 6  15.36066788788879 -0.17565060086009 -0.45767960376038
 6  15.65334266186619 -1.60897505940594 -0.42345208070807
 6  16.40595319251925  0.60495140634063  0.37814107850785
 6  17.81283812251225  0.86367210111011 -0.32186669446945
 6  18.69001885288529  1.70691931093109  0.55528422132213
 6  20.16260615651565  1.68937456275628  0.12820558095810
 6  20.39423035253526  2.45632506370637 -1.19918632763276
 6  21.00573103870387  2.46097983408341  1.19543594429443
 1 -4.03138130573057  3.33595998029803  1.72846508480848
 1 -10.05674325932593  4.27989742624262 -0.32828150205021
 1 -10.69015735563556 -2.31224723472347 -1.14050394429443
 1 -2.98741479297930 -1.22458282238224  2.04830662536254
 1 -2.21334190179018  1.43671362246225  1.34783428182818
 1 -2.24638215411541  0.38621604330433  3.44384110941094
 1 -2.91190449074908  1.90967561116112  3.77374647584758
 1 -3.91999257865787  0.60049075137514  3.62356120182018
 1 -2.52325177907791 -1.74711858955896 -0.53038989528953
 1 -2.17622356095610  0.03182065636564 -0.85237389808981
 1 -0.51161548494849  0.00205433133313  1.29010504100410
 1 -0.59025203810381 -1.76698587858786  1.35184230323032
 1 -4.17822247964796  5.81991012861286  0.76991012901290
 1 -5.61859307810781  6.80438555725573  1.68845444244424
 1 -4.80193197019702  5.54690453985399  2.41552261286129
 1 -7.75791589048905  7.01210824452445  1.28257956425643
 1 -9.32748814161416  6.33383136863686 -1.36427582358236
 1 -9.39452373157316  7.74056934223422 -0.29440914501450
 1 -12.06220076747675  4.08650914941494 -0.35147754635464
 1 -12.19988891119112  3.27710267496750 -2.51303852135214
 1 -13.40287768776878  2.54560017821782 -0.81072411931193
 1 -12.71893671957196 -1.11436156245625 -0.72375694949495
 1 -13.48386912921292  0.36026568796880 -1.03306698399840
 1 -12.73544805980598  0.44784179927993 -3.49196804020402
 1 -12.00233644134414 -1.17112650905091 -3.33484428112811
 1 -13.85881395459546 -0.99368672677268 -3.10713457215722
 1 -10.33188073487349 -4.46844893679368 -0.11524732863286
 1 -9.70464237443744 -4.45923293679368 -1.88036855745575
 1 -8.91933363886389 -5.59422020192019 -0.82296695019502
 1 -3.61757748504850 -3.37198454975498 -0.44583764356436
 1 -1.86274314231423 -6.23988059175918  1.84625032903290
 1 -1.87864443614361 -4.80266000500050  3.07646209650965
 1 -3.27084814021402 -6.02767976797680  3.31950347054705
 1  2.86318811061106 -2.31628836993699 -1.19494662796280
 1  2.25496733963396 -0.66753819181918 -2.07362498179818
 1  4.01044248014801 -1.22346041654165  0.54122316671667
 1  5.30257552205221  1.44885258305831 -2.43163575097510
 1  5.45804276807681 -0.23388743354335 -3.09155222232223
 1  3.94487097229723  0.47625043094309 -2.79182453935394
 1  6.54024412151215  1.24493763766377 -0.15551075147515
 1  6.15244307010701 -0.35299088438844  0.66024571867187
 1  7.54183483658366 -1.71033507890789 -0.96876172227223
 1  7.34176392749275 -0.08532302770277 -2.07438629632963
 1  8.89761420302030  0.84912276377638 -0.14125286678668
 1  8.74141687158716 -0.89541662866287  0.81133398629863
 1  10.36290315561556 -0.30930073177318 -1.85225594849485
 1  9.39210639823983 -2.49882854565457 -1.50531975747575
 1  11.23925078607861 -2.66585826222622 -1.14779052465247
 1  9.95552399419942 -2.80685256275628  0.14100057855786
 1  11.39525371547155  0.95018264206421  0.04066752935294
 1  11.31072864226423 -0.54217270277028  1.12996351805181
 1  12.82965947394739 -1.51466534553455 -0.75109855265527
 1  12.82092240884088 -0.19140641354135 -1.55064838333833
 1  13.71638267376738  1.07356775257526  0.46219139323932
 1  13.99268410391039 -0.48080103410341  1.15261483768377
 1  15.43926542394239  0.23086628642864 -1.30645729552955
 1  14.81710710571057 -2.14499278307831 -0.98560258075808
 1  16.66755349164917 -2.03552939243924 -0.65254664726473
 1  15.44534725232523 -1.99210882948295  0.75753845514551
 1  15.94117130873087  1.28492158085809  0.62756660026003
 1  16.37764408710871  0.21587539663966  1.35490748754876
 1  18.33445952325232 -0.03507198579858 -0.48533321802180
 1  17.68661138653865  1.40155311841184 -1.25340264486449
 1  18.32086379227923  2.73648237593759  0.76227272227223
 1  18.80969398359836  1.12993182998300  1.54075533113311
 1  20.46808503830383  0.81935266896690 -0.10818788168817
 1  19.94020671787179  3.42759489158916 -1.32518749294929
 1  21.48105662286228  2.50154575837584 -1.60204552795279
 1  19.86000423622362  1.90194023062306 -2.01515669686969
 1  20.65028004110411  1.83382293259326  2.04831875967597
 1  22.11331517321732  2.71970008660866  0.97827972777278
 1  20.74141180388039  3.51149081958196  1.27444004840484
 1 -7.29651343384338  1.82353662566257  0.26331958875888
 1 -7.49409077567757 -0.12594747034703 -0.26612993319332

