%nproc=4
%Mem=2GB
# td=(NStates=1) B3LYP/SVP 

TD

0 1
 6 -5.14913776427643 -1.91491129712971  0.43310193529353
 6 -4.73189934813481  2.74728495749575  1.64821149724973
 6 -9.16634587818782  3.32877907420742 -0.25817043324332
 6 -9.81973382448245 -1.53107470207021 -1.06385253065307
 7 -5.20018676667667  0.44236069716972  0.93946140414041
 6 -4.47683578117812 -0.69809879347935  0.84546063166317
 6 -3.02337409110911 -0.62218270177018  1.26212946234623
 6 -3.07183133553355  0.84152927052705  1.98718322372237
 6 -4.44691965006501  1.34130117551755  1.45920783218322
 6 -3.12296879477948  0.76145444644464  3.47352721072107
 6 -2.03352869566957 -0.58397341144114  0.04187079477948
 6 -0.53323171127113 -0.74702355715572  0.61251901700170
 6  0.48789329522952 -0.90902782008201 -0.46211206840684
 8  0.05198493439344 -1.36416610651065 -1.57779023362336
 8  1.68555363056306 -0.59108552705271 -0.11726671867187
 7 -7.01585476647665  2.79310405230523  0.52122271627163
 6 -5.99209339033903  3.38672540504050  1.15701982738274
 6 -6.20611188368837  4.79394747854785  1.26063761546155
 6 -7.44275734023402  5.02963428642864  0.47418264836484
 6 -8.01693714411441  3.64805340424042  0.27161849814981
 6 -5.39677883428343  5.82493627602760  1.81218722262226
 6 -8.23309989818982  6.22043176087609  0.40540559485949
 6 -9.07434495729573  6.62230152075208 -0.48934755105511
 7 -9.15883928322832  0.79201767636764 -0.51743871927193
 6 -9.78558033543354  2.04586788848885 -0.60982979367937
 6 -11.10915715371537  1.92314595409541 -1.22375644694469
 6 -11.34792023252325  0.57558159955996 -1.36862692429243
 6 -10.09371608000800 -0.10670772017202 -0.90155363576358
 6 -12.16468066526653  3.02889545864586 -1.43746817591759
 6 -12.57022712011201 -0.08429752815282 -1.89003123812381
 6 -12.53420789038904 -0.62679732613261 -3.30522770717072
 7 -7.54072719841984 -1.35120943544354 -0.26294263936394
 6 -8.63286927242724 -2.06680329452945 -0.76623355175518
 6 -8.18167177437744 -3.48698329982998 -0.78616235473547
 6 -6.80820284848485 -3.42137802210221 -0.22388449374937
 6 -6.44055259485949 -2.10621242034203 -0.03882172807281
 6 -9.07498148324832 -4.51193459345935 -1.23001550835083
 6 -5.65514163566357 -4.21293652055206 -0.11443877427743
 8 -5.60362221832183 -5.43198970767077 -0.26216929652965
 6 -4.56057166176618 -3.29708682138214  0.41491674127413
 6 -4.01079349414942 -3.77913160836084  1.75505739103910
 8 -4.36166877857786 -3.56041699759976  2.86677714171417
 8 -2.97040955665567 -4.68576885818582  1.48945468846885
 6 -2.45355888618862 -5.36472737803780  2.57985445574557
 6  2.65929597299730 -0.84511320192019 -1.05714992029203
 6  4.08814292409241 -0.78986360976098 -0.42507912111211
 6  5.04582688288829  0.00598964656466 -0.82331773637364
 6  4.93689419961996  0.85309915161516 -2.15157769676968
 6  6.26693040514051  0.17112974127413 -0.12137360046005
 6  7.52453668086809 -0.32583191629163 -0.81917927132713
 6  8.77261073807381 -0.22876808370837  0.07547266736674
 6  10.02471432613261 -0.84636911951195 -0.58916989688969
 6  9.90405419881988 -2.36873203900390 -0.84354846954695
 6  11.18689936453645 -0.57039671027103  0.29463699569957
 6  12.66334491909191 -0.76513499189919 -0.39451732893289
 6  13.73502991019102 -0.07471017411741  0.44996135873587
 6  15.11794361546155 -0.18047108290829 -0.20011384718472
 6  15.51964929252925 -1.75760992289229 -0.13106284178418
 6  16.25052764996500  0.69658056925693  0.42363562796280
 6  17.64189102780278  0.58473420732073 -0.27976248404840
 6  18.56180603160316  1.81906052505251  0.14541323422342
 6  20.03069296519652  1.65139076437644 -0.34487172677268
 6  20.09887081658166  1.95204463566357 -1.86646305530553
 6  21.00405087068707  2.68358209430943  0.50710711141114
 1 -4.26380454805481  3.42972935723572  2.26353859215922
 1 -9.63733131813181  4.34811424792479 -0.70483915781578
 1 -10.60257859775978 -2.29395540554055 -1.34828472237224
 1 -2.73822987448745 -1.54525488958896  1.92200399509951
 1 -2.18825939353935  1.46454640574057  1.57497699609961
 1 -2.23410092599260  0.46918434013401  3.84382110741074
 1 -3.13332663296330  1.84456910051005  3.68196729792979
 1 -3.94746532593259  0.29389009130913  4.02638148384839
 1 -2.19265871977198 -1.54233811151115 -0.53842069836984
 1 -1.89948588718872  0.37399487378738 -0.57158581928193
 1 -0.36967129052905  0.14321844774477  1.30070610111011
 1 -0.28392140504050 -1.59880906090609  1.30134725372537
 1 -4.55762041944194  6.25613375097510  0.91685482348235
 1 -6.03747496629663  6.75119023772377  2.22022761976198
 1 -4.74922669966997  5.24881473087309  2.60897195779578
 1 -8.13903400230023  7.11954898859886  1.22293359965997
 1 -9.38503389618962  6.02124010951095 -1.13673306930693
 1 -9.60549482868287  7.52636792209221 -0.46878658275828
 1 -12.26022056945695  3.95261576007601 -0.65944834343434
 1 -11.83493241554156  3.73315828052805 -2.24573179067907
 1 -13.04845224522452  2.68482410061006 -1.68689173607361
 1 -12.72922774867487 -0.96579670597060 -1.10938551235124
 1 -13.48609935223523  0.47141680308031 -1.62400607790779
 1 -12.63736825182518  0.27723473857386 -4.11490033343334
 1 -11.59165537323732 -1.35744514091409 -3.34841563826383
 1 -13.41047912111211 -0.95718307640764 -3.44381824052405
 1 -9.94275182198220 -4.83518561046105 -0.60610641454145
 1 -9.44743665386539 -4.39356637013701 -2.34634515511551
 1 -8.60379208470847 -5.51747252715272 -1.17889254275428
 1 -3.60516624392439 -3.29735708700870 -0.33873693349335
 1 -1.53565043304330 -5.95825242894290  2.25139084308431
 1 -2.21649822152215 -4.65357509650965  3.42537698799880
 1 -3.23018407380738 -6.07304430443044  3.02871439163916
 1  2.33694548634864 -1.90787752885289 -1.13494062736274
 1  2.50621246414641 -0.23958539653965 -2.00985860516052
 1  4.21404284018402 -1.45440351085109  0.60172921732173
 1  5.26810207470747  1.87431512931293 -2.11272385978598
 1  5.49763672747275  0.62117807300730 -2.90219328642864
 1  3.89580606580658  0.95568837473747 -2.64663001990199
 1  6.30744084118412  1.38148129202920  0.18835363496350
 1  6.18805663146315 -0.39739532483248  0.89212890699070
 1  7.19499015211521 -1.43407745314532 -1.47736258235824
 1  7.63745349644964  0.32219772437244 -1.76078493619362
 1  8.97445188678868  0.93332118361836  0.27627888638864
 1  8.82063479337934 -0.62475956295630  0.98774162706271
 1  10.41923878917892 -0.51922172387239 -1.63465418831883
 1  9.24093128072807 -2.73883254605461 -1.63789301480148
 1  10.98239510051005 -2.87139881628163 -0.84472021762176
 1  9.44324276607661 -2.88125000250025  0.16176265476548
 1  11.17990218031803  0.51422904670467  0.28332179477948
 1  11.09845741514151 -0.90215870137014  1.33570409210921
 1  12.76990349834984 -1.75809968896890 -0.56285972877288
 1  12.58405872247225 -0.51058833173317 -1.51509482798280
 1  13.50795183068307  1.11967236303630  0.51962713681368
 1  13.70181501700170 -0.46936989098910  1.43580315651565
 1  15.03001449884989  0.08823202300230 -1.25435208500850
 1  14.66467186218622 -2.27275555935594 -0.48340236073607
 1  16.51985872217222 -2.04879071857186 -0.42617401000100
 1  15.66057877547755 -2.10255987458746  0.82902560386039
 1  16.07800499209921  1.80411350005001  0.42593643724372
 1  16.29952627532753  0.35214902400240  1.38351034783478
 1  18.09967604490449 -0.38821730033003 -0.03834851955196
 1  17.52270499589959  0.58779174227423 -1.46109341394139
 1  18.21878358425843  2.89494822252225 -0.22104560956096
 1  18.61901491569157  1.79669850665067  1.31809306490649
 1  20.52823105290529  0.66196693039304 -0.02864992789279
 1  19.75334803200320  2.97864999709971 -2.16583155735574
 1  21.09225774297430  2.21595719951995 -2.13587891129113
 1  19.63309154495450  1.13650368696870 -2.52999818101810
 1  20.88191320442044  2.32589213951395  1.39735366316632
 1  21.95229907160716  2.66717483408341  0.29594149394940
 1  20.67176483918392  3.75756542704270  0.35282788718872
 1 -7.22062584508451  1.86766103810381  0.39753301010101
 1 -7.82985435203520 -0.27927280288029 -0.21761508170817

