%nproc=4
%Mem=2GB
# td=(NStates=1) B3LYP/SVP 

TD

0 1
 6 -5.18081093159316 -2.07483728972897  0.34302292739274
 6 -4.69271542974297  2.72888311731173  1.47047372347235
 6 -9.31190043364336  3.50747694399440 -0.17394201040104
 6 -9.85995784688469 -1.29646124072407 -0.89212535793579
 7 -5.18151489948995  0.40221668276828  0.79652711071107
 6 -4.49526762436244 -0.77859684328433  0.65795188078808
 6 -3.11601335503550 -0.65244572807281  1.15848909830983
 6 -3.08270242264226  0.79952507010701  1.75608011341134
 6 -4.41512647074707  1.34704174957496  1.28915082648265
 6 -2.94352084998500  0.87927622862286  3.28818867686769
 6 -2.03919926272627 -0.83286830093009  0.04477108480848
 6 -0.59710809890989 -0.84738359315932  0.44412217731773
 6  0.35355986188619 -1.22252917021702 -0.55251110831083
 8  0.14066380228023 -1.74587427732773 -1.67107956255626
 8  1.68315339053905 -0.98004442294229 -0.20638563056306
 7 -6.90856403740374  2.71542628452845  0.47520811481148
 6 -5.91250543154315  3.37790452295229  1.02830695609561
 6 -6.08193946644664  4.79425750955096  1.07480903260326
 6 -7.33613667816782  5.03187451045105  0.62734796489649
 6 -7.96735218561856  3.69497809670967  0.29063039933993
 6 -5.12212136853685  5.84583836623662  1.61922792669267
 6 -7.95288187638764  6.29196891459146  0.40572562686269
 6 -8.94373189598960  6.70662995359536 -0.44354297059706
 7 -9.09251265056506  1.01019949454946 -0.55508248364836
 6 -9.77040881828183  2.17376067776778 -0.49046785748575
 6 -11.25096133413341  2.02321596109611 -0.83716778807881
 6 -11.31124656515652  0.64258830023002 -1.20891095269527
 6 -10.01490819921992  0.05534848544854 -0.96240972137214
 6 -12.19786398359836  3.19355192429243 -0.98176260536054
 6 -12.73012310971097 -0.04454355275528 -1.56288852385239
 6 -12.73403787338734 -0.46903154955496 -2.99006619101910
 7 -7.53014614031403 -1.24502881738174 -0.10567691279128
 6 -8.61505749124913 -1.93310992519252 -0.67956488488849
 6 -8.24922853005300 -3.36612121362136 -0.68594233273327
 6 -6.99956198439844 -3.40360624492449 -0.20220232553255
 6 -6.51425996559656 -2.09974177327733  0.05575772987299
 6 -9.20666465156516 -4.43036643664366 -1.10326283308331
 6 -5.77492361386139 -4.25979120602060 -0.10431776217622
 8 -5.69417127322732 -5.51079758845885 -0.33371645124512
 6 -4.67226283088309 -3.39106621932193  0.34324957455746
 6 -4.10220263506351 -3.98932262746275  1.66653853915392
 8 -4.30151276297630 -3.56272722862286  2.78966943094309
 8 -3.16853936963696 -4.90961124242424  1.45151089408941
 6 -2.63408693899390 -5.56533743904390  2.59536600690069
 6  2.68351839523952 -1.24924361496150 -1.14539874517452
 6  3.82772688248825 -0.75190981438144 -0.53181979517952
 6  4.95506780698070 -0.05799675207521 -1.20028543314331
 6  4.91460197039704  0.29286312801280 -2.71183372237224
 6  6.16875058715872  0.16735936423642 -0.41497296039604
 6  7.58229245644564 -0.38923825692569 -1.00020737413741
 6  8.77147062406241 -0.22897810471047 -0.11198607850785
 6  10.15982783748375 -0.85808029062906 -0.61696267616762
 6  10.22388618201820 -2.49944511031103 -0.44563867856786
 6  11.21901257585758 -0.17680735133513  0.09650718271827
 6  12.61760034463446 -0.66641511991199 -0.42733061026103
 6  13.76696310351035  0.31736903380338  0.22598896149615
 6  15.12150397149715  0.00932789698970 -0.26618045384538
 6  15.58542587018702 -1.44285844774477 -0.01818155365537
 6  16.21260385758576  0.97311822302230  0.42170543494349
 6  17.66046288498850  0.77478321222122 -0.11982649044904
 6  18.71142099309931  1.80722934193419  0.53403209610961
 6  20.08955885178518  1.74432005730573 -0.07322456205621
 6  20.34445537503751  1.98385781698170 -1.52768917791779
 6  20.92075254085409  2.81766550265027  0.89275567626763
 1 -3.83736190379038  3.36157254155415  1.84064630293029
 1 -9.99189677467747  4.31346078257826 -0.61759043294329
 1 -10.72442078197820 -2.05615162516252 -1.00523041694169
 1 -2.93431948344834 -1.40834119821982  1.99375116981698
 1 -2.12761332893289  1.09157910901090  1.30078957735774
 1 -1.98346586248625  0.36451387308731  3.83657038233823
 1 -3.03090639093909  1.94326897049705  3.66248534973497
 1 -3.76190677007701  0.35575627792779  3.83030187588759
 1 -2.15039449334934 -1.69433331103110 -0.52361921822182
 1 -2.23473941254125 -0.03523604930493 -0.67639630033003
 1 -0.28517284068407  0.09238336423642  1.01831786228623
 1 -0.51605461836184 -1.59246842684268  1.16681380038004
 1 -4.23402806020602  5.92352048964896  0.98730186818682
 1 -5.62511373017302  6.58162328102810  1.78655425242524
 1 -4.93503528052805  5.53280312971297  2.85325638623862
 1 -7.63099319821982  7.08976601030103  1.10453175947595
 1 -9.41124651745174  6.01851983748375 -1.33463285928593
 1 -9.50679495869587  7.62080736603660 -0.53324302840284
 1 -12.44157870527053  3.68736923542354 -0.05962836143614
 1 -11.94647356965697  4.00206517121712 -1.65684290179018
 1 -13.25564296429643  2.74431004920492 -1.31451449834984
 1 -12.77080190609061 -0.94635476177618 -0.89458403220322
 1 -13.58342908520852  0.67391705310531 -1.35695937323732
 1 -12.55348986398640  0.43292030713071 -3.76128497189719
 1 -12.05050125782578 -1.28697809420942 -3.28685948264826
 1 -13.76273434663466 -0.84474183228323 -3.21874573327333
 1 -9.90837838463847 -4.76511860376038 -0.18372417631763
 1 -9.69107101730173 -4.16213322682268 -2.01146166676668
 1 -8.46177788328833 -5.34150493039304 -1.23514816831683
 1 -3.65226095339534 -3.48466581788179 -0.37863092289229
 1 -2.23792066006601 -6.51943854755476  2.25443114711471
 1 -2.04215078677868 -4.74423416241624  3.17479192949295
 1 -3.45850690609061 -5.73774077407741  3.24361588178818
 1  2.81118291009101 -2.34607134823482 -1.25807294059406
 1  2.50276211911191 -0.71828326632663 -2.12750036933693
 1  4.12191362726273 -0.97639571007101  0.54007305170517
 1  5.62773803830383  1.35049274707471 -3.05923851125113
 1  5.57164412821282 -0.51608565336534 -3.01676474357436
 1  3.95242172737274  0.32586539243924 -3.12966832373237
 1  6.26310640774077  1.21087423132313 -0.31031623202320
 1  5.95500332613261 -0.14795038033803  0.71406110021002
 1  7.47251790489049 -1.52833687908791 -1.16574142024202
 1  7.65427517861786  0.20734623922392 -1.93126198389839
 1  8.96927136873687  0.78805665716572 -0.22248098959896
 1  8.64659738963896 -0.51577866486649  0.97334018691869
 1  10.04212107740774 -0.57306710841084 -1.68128885178518
 1  9.32621980958096 -2.92164082688269 -0.80373959945995
 1  11.05742260326033 -2.90817249364936 -0.72740848644864
 1  10.00210865266527 -2.71204308180818  0.87026350485049
 1  11.14566875697570  0.82468009180918 -0.23100963836384
 1  11.04684225362536 -0.15112359785979  1.32168268996900
 1  12.99959646764676 -1.73561744074407 -0.17257069986999
 1  12.57269758635864 -0.62403967686769 -1.57985130363036
 1  13.46173720922092  1.57984838063806 -0.07199202510251
 1  13.77057189268927  0.21031807780778  1.51758133433343
 1  15.34994649204921  0.16420962076208 -1.31643829362936
 1  14.85684107910791 -2.46707499129913 -0.49376339683968
 1  16.55353208950895 -1.81082692219222 -0.23648504110411
 1  15.68009072667267 -1.64716433503350  1.03766646794679
 1  15.97935512711271  2.10322341104110  0.12329617321732
 1  16.03621994469447  0.67354116321632  1.52983498029803
 1  18.18168424572457 -0.32390086868687  0.14308962426243
 1  17.61539426482648  0.85106806990699 -1.28146545114511
 1  18.22454416031603  2.81737046474648  0.34499099409941
 1  18.63447646184619  1.91326016281628  1.66936819241924
 1  20.36478470827083  0.73663439713971  0.22761569866987
 1  20.01558425562556  2.85008714081408 -1.79936491069107
 1  21.37474599179918  1.91742734653465 -1.78070339373937
 1  19.88620685648565  1.00961099769977 -2.05909109030903
 1  20.76879189228923  2.59777932823282  1.74327825562556
 1  21.96806064776478  2.91437955455545  0.70511241104110
 1  20.44300196289629  3.89926959745975  0.55600820522052
 1 -7.06469025152515  1.67195146714671  0.56246950375038
 1 -7.63885525212521 -0.10803567916792 -0.25280860106011

