%nproc=4
%Mem=2GB
# td=(NStates=1) B3LYP/SVP 

TD

0 1
 6 -5.08436128662866 -1.93408321432143  0.35153377847785
 6 -4.72644880308031  2.66177640664066  1.66226290239024
 6 -9.09555879947995  3.29301549784978 -0.32557717391739
 6 -9.75310716181618 -1.44648624322432 -1.12399854525453
 7 -5.22112886088609  0.43938039913991  0.90333779177918
 6 -4.57894599219922 -0.70991997559756  0.84964104970497
 6 -3.10749250295029 -0.54651513501350  1.40734398379838
 6 -3.16075022742274  0.87542265986599  2.10159466486649
 6 -4.47069202730273  1.42050909630963  1.47755966736674
 6 -3.10991748964896  0.76973527452745  3.58992885088509
 6 -2.03703904670467 -0.80498551265126  0.29725633333333
 6 -0.61462985108511 -0.70274912971297  0.68523628872887
 6  0.28799330523052 -1.04114103140314 -0.36291214841484
 8 -0.02421268536854 -1.56901659155916 -1.38238069266927
 8  1.57818289348935 -0.63009942844284 -0.04206919891989
 7 -6.90856403740374  2.75531027292729  0.56852744674467
 6 -5.83494767576758  3.31988872137214  1.16051017641764
 6 -6.11021229372937  4.80032811661166  1.11887343904390
 6 -7.42235530003000  4.91787311031103  0.52682791289129
 6 -7.88320377077708  3.59655825472547  0.22455379167917
 6 -5.15094425082508  5.89735351775177  1.65696170007001
 6 -7.86649323752375  6.33198291599160  0.16315136943694
 6 -8.88363588638864  6.60084937553755 -0.68603722002200
 7 -9.02335573487349  0.89839831443144 -0.67400437583758
 6 -9.73274505190519  2.09861316301630 -0.82803161386139
 6 -11.10075631363136  1.93897753725373 -1.16760083138314
 6 -11.27480292079208  0.64551859325933 -1.33005306690669
 6 -9.97385409380938 -0.03846089548955 -1.02642612301230
 6 -12.19164336153615  3.00719328842884 -1.25187961706171
 6 -12.58989908730873 -0.08767786618662 -1.71692392739274
 6 -12.56476094569457 -0.42779742614261 -3.23812099649965
 7 -7.41634476017602 -1.30427474197420 -0.37863420852085
 6 -8.50011599709971 -2.01209782398240 -0.73890081848185
 6 -8.12924653185318 -3.38775337683768 -0.71584532303230
 6 -6.77592962116212 -3.38762464676468 -0.40635274057406
 6 -6.35629416901690 -1.99544134323432 -0.02959080498050
 6 -8.97053103820382 -4.54451785178518 -1.14566707350735
 6 -5.70075619711971 -4.34587981488149 -0.15099242964296
 8 -5.67988984508451 -5.56162267096710 -0.13552663226323
 6 -4.50220582518252 -3.35189230193019  0.38273352295230
 6 -4.17851026582658 -3.90852454765477  1.85319720502050
 8 -4.38809142084208 -3.55082603850385  2.96018648264827
 8 -3.33124564026403 -4.98492877417742  1.69716545954595
 6 -3.01270480078008 -5.68195910121012  3.00193666396640
 6  2.59551959535954 -0.87025571617162 -0.98840304560456
 6  3.91730584038404 -0.79723434683468 -0.38438505170517
 6  4.88540084028403  0.04712375997600 -0.89264466906691
 6  4.84322483268327  0.78406224792479 -2.23945648464847
 6  6.23427713981398  0.12064469276928 -0.24645610871087
 6  7.53146737393739 -0.35486481958196 -0.98731608500850
 6  8.68215169216922 -0.26218142504250 -0.04715959585959
 6  10.02179403410341 -0.77567204980498 -0.70620160006001
 6  10.00027382078208 -2.22564773057306 -1.35692980768077
 6  11.26810748534853 -0.40816048664867  0.12122965496550
 6  12.56905549014902 -0.63932241064106 -0.51372925012501
 6  13.84968137533753 -0.05433813691369  0.28565492809281
 6  15.17452927402740 -0.14553758955896 -0.32435627142714
 6  15.68018534613461 -1.59075323722372 -0.47665740124012
 6  16.20791338853886  0.73123403460346  0.37229049344934
 6  17.50992783148315  0.78954468836884 -0.38549305710571
 6  18.63882373337334  1.53893251225122  0.38900759365937
 6  20.07638753465346  1.73497912321232 -0.20782802240224
 6  20.04585551505151  2.60303973517352 -1.50063647264726
 6  21.06723718931893  2.39539327542754  0.91487788848885
 1 -3.84639280688069  3.03727011131113  2.09465170347035
 1 -9.81504908990899  4.06460589708971 -0.42485115901590
 1 -10.50117845774578 -2.17943395339534 -1.24051394529453
 1 -3.01003705520552 -1.28916928102810  2.33398519321932
 1 -2.25190575817582  1.27172712381238  1.68418791719172
 1 -2.12797031293129  0.34543196489649  4.02518924422442
 1 -3.21541484178418  1.69107375097510  3.93445254645465
 1 -3.77767834723472 -0.01460075777578  4.00325917161716
 1 -2.27098655255526 -1.80588446614661 -0.13812066836684
 1 -2.32451839043904 -0.04642716841684 -0.52550121082108
 1 -0.29963428682868  0.17310143604360  1.30997702820282
 1 -0.19026203910391 -1.43780296029603  1.56644376337634
 1 -4.39927458485849  6.03773191079108  1.11670480848085
 1 -5.51944316311631  6.76683180188019  2.02083768076808
 1 -5.14228600560056  5.61930177957796  2.73758481908191
 1 -7.41144124302430  7.20246728042804  0.74674598089809
 1 -9.42453784658466  5.75453343884388 -1.24530392639264
 1 -9.02209648884889  7.70322560786079 -0.93538324242424
 1 -12.29596414381438  3.52950344884488 -0.28744114271427
 1 -11.94361328362836  3.66285124982498 -2.19542676017602
 1 -13.11471887188719  2.53214883308331 -1.52684573147315
 1 -12.52054688058806 -0.97128725502550 -1.17755232903290
 1 -13.44110485278528  0.65352501390139 -1.53854753205321
 1 -12.24377889288929  0.51307832293229 -3.86506534993499
 1 -11.64574078177818 -0.98140753715371 -3.53913471017102
 1 -13.50413848704870 -0.83762112021202 -3.66921077977798
 1 -9.92487003380338 -4.58905099699970 -0.80263606750675
 1 -9.04017592779278 -4.48522553605361 -2.17239776037604
 1 -8.51130283578358 -5.66339711961196 -1.11475612911291
 1 -3.72802853015302 -3.62270962226223 -0.21047410721072
 1 -2.10368723672367 -6.19696630033003  2.77664336833683
 1 -2.91080765246525 -5.00392013101310  3.91052550285028
 1 -3.95826688208821 -6.37118411841184  3.07264878507851
 1  2.27118891069107 -1.83559030013001 -1.63835096839684
 1  2.55854769766977 -0.16996843484348 -1.85130274957496
 1  4.14867630353035 -1.42278034853485  0.60553959835984
 1  5.40080534503450  1.78840653845385 -2.02180476787679
 1  5.48036500030003  0.23000895609561 -3.02633570067007
 1  3.93749023422342  0.83886669256926 -2.92167752465247
 1  6.36005610271027  1.15989913381338  0.04809960956096
 1  6.24074189999000 -0.44304989028903  0.65427512161216
 1  7.26496714981498 -1.43460750615062 -1.40329517561756
 1  7.81864161526153  0.28973447804780 -1.91707056475648
 1  8.68104254585458  0.89931778327833  0.22619387788779
 1  8.50266299619962 -0.79575666266627  0.98910176307631
 1  10.00973783908391  0.01476167446745 -1.53976469936994
 1  8.93396058365837 -2.27299596239624 -2.19756898239824
 1  10.77880474147415 -2.57668934533453 -1.94271001660166
 1  9.94942338413841 -3.22844472197220 -0.58375189668967
 1  11.06923111321132  0.53555117891789  0.39712317491749
 1  11.19512708210821 -1.10374886038604  0.97729825152515
 1  12.66681318931893 -1.67938181718172 -0.83478692149215
 1  12.71515183178318 -0.07241451435144 -1.48135145364536
 1  13.42730376587659  0.97060745654565  0.63718889298930
 1  13.70878571407141 -0.62209516351635  1.33193276947695
 1  14.96359785718572  0.29611281108111 -1.29313596339634
 1  14.99605500050005 -2.00958924272427 -1.14165818631863
 1  16.54553128942894 -1.69427526702670 -0.83039443204320
 1  15.65760847844784 -2.19691931053105  0.45560826212621
 1  15.90700789238924  1.66286937563756  0.41993583718372
 1  16.60332665536554  0.16189999909991  1.30485248204820
 1  18.00789686698670 -0.23909238783878 -0.82888757345735
 1  17.31239396479648  1.22821578467847 -1.39787709230923
 1  18.09304101000100  2.64260298799880  0.57500399539954
 1  18.77767078127813  1.06276511331133  1.39360061566157
 1  20.26818504830483  0.56737747144715 -0.29792685558556
 1  19.35782848004801  3.70107223932393 -1.32908788298830
 1  21.08946746394639  2.73602920672067 -1.80901622502250
 1  19.57326556235623  2.09574961156116 -2.27009219041904
 1  21.09033404650465  1.90788033833383  1.76753068086809
 1  21.95554939663966  2.45826394299430  0.52887478727873
 1  20.47678534123412  3.43996366686669  1.16243884828483
 1 -6.96131991449145  1.80711498349835  0.50633389018902
 1 -7.60604197079708 -0.19446432203220 -0.18707202740274

