%nproc=4
%Mem=2GB
# td=(NStates=1) B3LYP/SVP 

TD

0 1
 6 -5.10723357385739 -1.92263206920692  0.55392401750175
 6 -4.80656681488149  2.80236046504650  1.55994267036704
 6 -9.37589683328333  3.34363055935594 -0.33408802500250
 6 -9.80412226332633 -1.43031462606261 -1.01062720812081
 7 -5.14516126412641  0.52577903900390  0.72363982198220
 6 -4.43345144274427 -0.73040202380238  0.76426251185119
 6 -3.05459721342134 -0.46419690319032  1.30524377377738
 6 -3.10673482588259  0.90668578617862  1.90769527492749
 6 -4.38213317141714  1.42723976937694  1.37712962436244
 6 -3.24206070397040  0.92618091909191  3.46846670467047
 6 -2.14049939273927 -0.62497751185118  0.20421702940294
 6 -0.66271465956596 -0.74275313011301  0.51471923702370
 6  0.33342784868487 -0.88855577287729 -0.49716557375738
 8  0.04862459835984 -1.37793748364836 -1.56915937053705
 8  1.54875995119512 -0.61477789628963 -0.16136112811281
 7 -7.05477865886589  2.68833357525753  0.53524411841184
 6 -6.01672585358536  3.38907564006401  1.14789891529153
 6 -6.33115438793879  4.75687377117712  1.15062661436144
 6 -7.55902896739674  4.90771209420942  0.54343957405741
 6 -8.08523397379738  3.51884048294829  0.21312264856486
 6 -5.40299945634563  5.89379316171617  1.64905090899090
 6 -8.32382897109711  6.26405612331233  0.38010306460646
 6 -9.33879140194019  6.55036432703270 -0.47435605190519
 7 -9.17049044834483  0.91401987658766 -0.68199517491749
 6 -9.96876865426543  2.03580688238824 -0.64219303000300
 6 -11.29665590359036  1.83621726122612 -1.05174924622462
 6 -11.39292473297330  0.49956399779978 -1.23104316591659
 6 -10.00436714511451 -0.06160320972097 -0.96079956035604
 6 -12.25750994819482  2.89814238333833 -1.30078450755076
 6 -12.51723182058206 -0.29857895629563 -1.77309954495450
 6 -12.53619808940894 -0.39795444184418 -3.33826101050105
 7 -7.40717384308431 -1.27184149864987 -0.24655100020002
 6 -8.51949793529353 -2.01172778697870 -0.73953088148815
 6 -8.03864747194719 -3.39921452295230 -0.80914465296530
 6 -6.72805483368337 -3.45565144944494 -0.34620672597260
 6 -6.43707224682468 -2.04029582868287 -0.00800864676468
 6 -8.90253423852385 -4.68815221522152 -1.15462796959696
 6 -5.61804792629263 -4.30650587748775  0.02449511911191
 8 -5.40278213431343 -5.54896140484048 -0.00699377897790
 6 -4.53977958255826 -3.34599171187119  0.55910115971597
 6 -3.91707412221222 -3.87875157035704  1.91141302660266
 8 -4.18500111181118 -3.42280323622362  2.98069853385339
 8 -2.97553006870687 -4.84993527482748  1.67952369536954
 6 -2.48269179947995 -5.52864376967697  2.96684315461546
 6  2.63988403180318 -0.78261695229523 -1.12591679697970
 6  3.90716482628263 -0.49935455885589 -0.53954056725673
 6  4.93187548774877  0.20263931153115 -1.07025242984298
 6  4.84251476167617  0.96114995669567 -2.41917445644564
 6  6.23606731883188  0.45249787808781 -0.36927839093909
 6  7.43691791899190 -0.35129446254625 -1.00077743114311
 6  8.79006248324833 -0.27654286118612 -0.14173905380538
 6  10.04476633133313 -0.75357984058406 -0.89967094699470
 6  9.87486127952795 -2.20505567136714 -1.18934304900490
 6  11.34604527912791 -0.45739541014101  0.01246877887789
 6  12.75355393999400 -0.58725720412041 -0.67549542674267
 6  13.83975038223822 -0.07664036713671  0.21639800240024
 6  15.21359318041804 -0.21906494229423 -0.35221905770577
 6  15.50836816441644 -1.68965312721272 -0.52564229972997
 6  16.31568416561656  0.44914582578258  0.54141740614061
 6  17.72549938863886  0.53993972787279 -0.10774528232823
 6  18.63875372637263  1.60937955695570  0.59309800270027
 6  20.16973686958696  1.40595622092209  0.06068882928293
 6  20.21052198169817  2.11583101430143 -1.39091550055006
 6  21.07842830843084  2.17872160826083  1.05993239393939
 1 -4.06645481308131  3.38871525582558  1.96900913921392
 1 -10.14130171517152  4.23042247874787 -0.41453012691269
 1 -10.69037737763776 -1.92194820482048 -1.34593448734873
 1 -2.74451050255025 -1.32913327742774  2.02297409210921
 1 -2.25440600820082  1.53480343144314  1.77788728712871
 1 -2.28143565946595  0.44351177287729  3.96314303960396
 1 -3.16500980128013  2.03461810541054  3.78297739893989
 1 -4.16463704310431  0.29000970327033  3.77946679237924
 1 -2.30653010691069 -1.74256813451345 -0.16558341464146
 1 -2.13404934353435  0.23767124142414 -0.72796145684568
 1 -0.24352867626763  0.13718784468447  1.14764079457946
 1 -0.75888890179018 -1.72119129912991  1.10637775677568
 1 -4.46202085948595  5.82931106870687  1.26069920792079
 1 -5.79728094689469  7.01800691939194  1.70391598859886
 1 -4.87569934693469  5.34681453085309  2.64289535013501
 1 -8.02771287018702  6.92282931663166  1.32845415171517
 1 -9.55006039883988  5.82125011051105 -1.07183657965797
 1 -9.68639291849185  7.60237552285229 -0.63312301640164
 1 -12.37245179257926  3.48478897739774 -0.25853825242524
 1 -12.15737465976598  3.73841880658066 -1.96653387088709
 1 -13.22034943494350  2.70406602480248 -1.41123417031703
 1 -12.60068489438944 -1.38991911821182 -1.26112068586859
 1 -13.39471021332133  0.40621028242824 -1.65989966726673
 1 -12.67800231523152  0.57429444454445 -3.62575141854185
 1 -11.71924813251325 -1.06561595799580 -3.84178497519752
 1 -13.66563463666367 -0.82506986508651 -3.73581744044404
 1 -9.85606315311531 -4.85085717761776 -0.57206301020102
 1 -9.06589850005001 -4.80498751225123 -2.32155267586759
 1 -8.37578928442844 -5.70788156805681 -0.89636428992899
 1 -3.69834556185619 -3.34505185648565 -0.07031009080908
 1 -1.86648351635164 -6.34630123382338  2.52433813781378
 1 -1.79452602430243 -4.80684042304230  3.42322677297730
 1 -3.22546360176018 -5.84618161816182  3.61217273747375
 1  2.47898969076908 -2.02512925402540 -1.49809694299430
 1  2.45408725162516 -0.10434187218722 -1.95685330463046
 1  4.07645908180818 -1.11673974447445  0.45646469086909
 1  5.72813807830783  1.89414711251125 -2.43853644104410
 1  5.25747271107111  0.32640859605961 -3.38954202130213
 1  3.64739122432243  1.45341814771477 -2.65405076197620
 1  6.45447554465447  1.53399654355436 -0.32786798719872
 1  6.05675350115011 -0.02339792509251  0.68498819291929
 1  7.17931858495850 -1.46693073847385 -1.16664151025103
 1  7.59904965606561  0.30199570417042 -1.74024288198820
 1  8.90335477707771  0.83850170167017  0.05866712521252
 1  8.55961869176918 -0.71152823982398  0.97458031093109
 1  9.99640650595059 -0.35244504620462 -1.91421214411441
 1  9.04235142274227 -2.30226888968897 -1.79039826532653
 1  10.89618647964797 -2.67938961536154 -1.39624537013701
 1  9.43027146894689 -2.83206508400840 -0.24263778527853
 1  11.21988617871787  0.57101472527253  0.37734119671967
 1  11.22353992339234 -0.98959744524452  0.76978750045004
 1  13.08309481748175 -1.82127600660066 -0.83822726552655
 1  12.88666898349835 -0.13565083798380 -1.71350466896690
 1  13.53326436193619  1.11208160396040  0.40662583668367
 1  13.97703253875388 -0.41538449244924  1.36668624482448
 1  15.17488898629863  0.30742394219422 -1.38595524532453
 1  14.83400879587959 -2.17526581038104 -1.36019003950395
 1  16.54064080038004 -1.83859969946995 -1.19048044064406
 1  15.66313903150315 -2.19124874347435  0.36346904820482
 1  16.00350754235424  1.31145423412341  0.70638448204820
 1  16.39809613231323 -0.08648483938394  1.55072706950695
 1  18.17986406370637 -0.48621710031003 -0.23149783448345
 1  17.86745947134714  0.67209017211721 -1.21476878147815
 1  18.33819552545254  2.64341306900690  0.50514700970097
 1  18.79711272547255  1.25476431323132  1.72501375697570
 1  20.62302053185319  0.50875160886089 -0.00937800070007
 1  19.93539623682369  3.15614774687469 -1.29622459665967
 1  21.15953447064706  1.85786138993899 -2.20896622002200
 1  19.35020325612561  1.65344538113811 -2.05770095129513
 1  21.22068708180818  1.91986153645365  2.18782271007101
 1  22.23385722742274  2.23249136573657  0.76533843364336
 1  20.94346200890089  3.24168383888389  0.89437204160416
 1 -7.11136491899190  1.69351362336234  0.58403165996600
 1 -7.59533089968997 -0.24448932453245 -0.04697801800180

