%nproc=4
%Mem=2GB
# td=(NStates=1) B3LYP/SVP 

TD

0 1
 6 -5.15566841734173 -2.06165597159716  0.46619524462446
 6 -4.68039419761976  2.75643587258726  1.48382505860586
 6 -9.30041928552855  3.37385358165817 -0.16257087328733
 6 -9.84126597769777 -1.37048864346435 -1.04135028042804
 7 -5.17093384138414  0.46004246534653  0.90738819681968
 6 -4.52993109070907 -0.77058604220422  0.81061714731473
 6 -3.09479123282328 -0.62354283778378  1.37698094749475
 6 -3.04892904530453  0.86246136373637  1.86773127852785
 6 -4.33137809590959  1.39796684208421  1.31448335973597
 6 -2.95377187508751  0.82052035303530  3.36594645264526
 6 -1.96481182398240 -0.86662167626763  0.10372698039804
 6 -0.64208259635964 -0.80462931773177  0.68344610971097
 6  0.46461096699670 -1.06616353365337 -0.40470632783278
 8  0.15605534143414 -1.36809649954996 -1.53730618521852
 8  1.71371644684468 -0.86583300180018 -0.02881787378738
 7 -6.99386256725673  2.75109985188519  0.52696329032903
 6 -5.94082826382638  3.40288702120212  1.09490361576158
 6 -6.14636590909091  4.79401748554855  1.06153770547055
 6 -7.46804986948695  4.99841116411641  0.50891612171217
 6 -8.03287873827383  3.69405800470047  0.21541287758776
 6 -5.08978813521352  5.82710649304931  1.34966096999700
 6 -8.01197778597860  6.21180089778978  0.21278633293329
 6 -9.02481000380038  6.52730202080208 -0.52798141444144
 7 -9.09238263756376  0.98917739233923 -0.47245422082208
 6 -9.82043382078208  2.15952925462546 -0.53082189288929
 6 -11.14839107710771  1.94119775927593 -1.02877694899490
 6 -11.42997843834383  0.57309135053505 -1.14828489008901
 6 -10.03991069946995  0.02057500810081 -0.87159063946395
 6 -12.13717791499150  3.07798036713671 -1.31884631373137
 6 -12.66772687008701 -0.22231132953295 -1.63821605660566
 6 -12.52245671527153 -0.36186083248325 -3.12315950035004
 7 -7.48071119681968 -1.19955426992699 -0.31710805590559
 6 -8.57263324882488 -1.97360397459746 -0.81152808120812
 6 -8.19431303850385 -3.35204980648065 -0.82029576807681
 6 -6.88314034223422 -3.47338322262226 -0.31190329562956
 6 -6.53782232183218 -2.07376917601760 -0.02060990689069
 6 -9.08048203330333 -4.53787718771877 -1.15019752655266
 6 -5.76695281678168 -4.29042426932693 -0.06918424882488
 8 -5.79998185428543 -5.56354286298630 -0.14413749334933
 6 -4.50655626022602 -3.46320343304330  0.52693794339434
 6 -3.95762817761776 -3.93705740094009  1.87828971427143
 8 -4.14228684038404 -3.39761071697170  2.92042250625062
 8 -3.24881739743974 -5.03585386668667  1.62795853885389
 6 -2.68650218051805 -5.79306021132113  2.77061353165317
 6  2.62369241264126 -1.09858854945495 -0.97156136143614
 6  3.94716882668267 -0.64668929232923 -0.51101771497150
 6  4.87420972117212  0.23324237183718 -1.02299770437044
 6  4.72517302750275  0.91769561126113 -2.36163870287029
 6  6.27094080618062  0.28204083238324 -0.33345480858086
 6  7.45694992219222 -0.34984431753175 -1.11467882128213
 6  8.75944942194220 -0.24430963786379 -0.20411529142914
 6  10.02208406310631 -0.74807929052905 -0.81256223612361
 6  10.04284807820782 -2.33839900570057 -1.09478359305931
 6  11.22597327192719 -0.23867353795380 -0.01717418541854
 6  12.64042262686269 -0.54507298569857 -0.59426730393039
 6  13.73628003520352 -0.04017672077208  0.27677404000400
 6  15.27595941704170 -0.26362939873987 -0.23264710051005
 6  15.60237756535654 -1.84644880678068 -0.19989972547255
 6  16.29122171937194  0.63591450265026  0.49193245764576
 6  17.59212605130513  0.71718745264526 -0.27921242904290
 6  18.60890074107411  1.66645526452645  0.48561725462546
 6  20.07923781968197  1.76124174947495 -0.04680191979198
 6  20.02799372887289  2.55731516271627 -1.42986939593959
 6  20.96082654825483  2.35960969706971  1.01398779947995
 1 -3.78493666126613  3.34843122742274  1.59026126442644
 1 -9.81952953795379  4.27571700820082 -0.43755242914291
 1 -10.74492283218322 -2.05116112611261 -1.25160505440544
 1 -2.91788784028403 -1.32999336343634  2.20862265696570
 1 -2.07041760936094  1.37455740684068  1.53067256565657
 1 -2.29393690959096  0.05856327802780  3.72164889018902
 1 -2.62238553885389  1.61704634823482  3.92469157035704
 1 -3.88492907230723  0.38237894019402  3.85383422912291
 1 -2.15667512141214 -1.95669954765477 -0.31656851315132
 1 -2.35077101570157 -0.22285481118112 -0.81964062476248
 1 -0.11470579397940  0.09440356625663  0.97573360386039
 1 -0.37410042294229 -1.63817299729973  1.34603172217222
 1 -4.56853151055105  5.86588472607261  0.34286742474247
 1 -5.51292251105111  6.93455857455745  1.37396299329933
 1 -4.55078685568557  5.63906375577558  2.33378443904390
 1 -7.63759385828583  7.14420145384538  0.93260456675668
 1 -9.42991838463846  5.75128311381138 -1.27751714771477
 1 -9.34387866706671  7.79974525982598 -0.68769847394739
 1 -12.32526707410741  3.76820731923192 -0.59930232883288
 1 -11.59006792909291  3.84491945664566 -2.08312553005301
 1 -12.88604600460046  2.60987660586059 -1.85063811071107
 1 -13.06541136703670 -0.88993912021202 -0.79985455925593
 1 -13.70269101140114  0.28694835623562 -1.28041171847185
 1 -12.07930244524452  0.61535855095510 -3.65935477887789
 1 -11.63575978367837 -0.92514191059106 -3.38390918761876
 1 -13.60977905110511 -0.53303066116612 -3.38539239793979
 1 -9.82444999179918 -4.60597268916892 -0.42354815871587
 1 -9.55278718891889 -4.20907792129213 -2.20902142274227
 1 -8.21944364986499 -5.37852863276328 -1.13327798129813
 1 -3.69616534383438 -3.64593194449445 -0.24757781758176
 1 -2.09138600660066 -6.63315991969197  2.32189789378938
 1 -2.09011558325833 -5.17055679467947  3.45920037033703
 1 -3.61322237763776 -6.21192819281928  3.27335885608561
 1  2.58391018281828 -2.08983572467247 -1.20904803810381
 1  2.33033487638764 -0.47268870687069 -1.85759337863786
 1  4.47414885078508 -1.12842091259126  0.31966101050105
 1  5.00721598609861  2.08278597639764 -2.25649823722372
 1  5.42114907870787  0.57314326952695 -3.04070713781378
 1  3.78112459765977  0.77972077797780 -2.89503486038604
 1  6.45515561266127  1.34741788568857 -0.12814801520152
 1  6.30613843964396 -0.35692127742774  0.66757645174517
 1  7.07324797789779 -1.36315036043604 -1.38128297439744
 1  7.66205595669567  0.38780428502850 -1.91605046274627
 1  8.83673811541154  0.75214306580658  0.12586384488449
 1  8.78473120302030 -0.87832491949195  0.59082193509351
 1  10.07414427972797 -0.41007080878088 -1.83969469236924
 1  9.20259744734473 -2.64058272107211 -1.69085831133113
 1  10.92396925792579 -2.62999467586759 -1.62111785738574
 1  10.06732517431743 -2.93812569006901 -0.08383190469047
 1  11.30499468956896  0.76480410421042  0.14865832843284
 1  11.00452802220222 -0.81543002850285  0.97595811751175
 1  12.81442795079508 -1.59393327232723 -0.98167160996100
 1  12.77338765536554  0.03519624672467 -1.45109842834283
 1  13.79679071457146  1.03735413121312  0.33365853995400
 1  13.55884071957196 -0.47002995699570  1.32830240644064
 1  15.28856035343534  0.00563376317632 -1.28912556235624
 1  14.62876827182718 -2.29761804560456 -0.82955697619762
 1  16.51820855715572 -2.00985682518252 -0.62868426102610
 1  15.58377109470947 -2.28368798739874  0.89818251955195
 1  15.84587177877788  1.61072416111611  0.49892373597360
 1  16.41763808650865  0.36900070917092  1.55763776057606
 1  17.98330440774077 -0.43586206480648 -0.42490717541754
 1  17.41806453185319  1.09330229332933 -1.25718302290229
 1  18.36523822972297  2.89139786748675  0.57314380938094
 1  18.58567158135814  1.36036487328733  1.66003725932593
 1  20.30312854265427  0.70498123182318 -0.51396845974597
 1  19.78802149934993  3.63653578567857 -1.27073204740474
 1  21.08050656785678  2.58712431623162 -1.92900822422242
 1  19.40949918571857  2.06641667826783 -2.10005518671867
 1  21.03384839793980  1.74294384468447  1.95636956475648
 1  22.04704854655466  2.56816493309331  0.61789368916892
 1  20.56001366406641  3.25007467796780  1.30081268566857
 1 -7.22400618311831  1.83187745974598  0.29041229802980
 1 -7.42414378097810 -0.23920879647965 -0.12998631883188

