%nproc=4
%Mem=2GB
# td=(NStates=1) B3LYP/SVP 

TD

0 1
 6 -5.05925877637764 -1.80224003000300  0.47532615771577
 6 -4.84721087928793  2.83052328132813  1.56879355545555
 6 -9.30511975557556  3.30714691099110 -0.28621323752375
 6 -9.77432928402840 -1.53913550815082 -1.10655680108011
 7 -5.20075682368237  0.52611907300730  0.83613107110711
 6 -4.50016811441144 -0.72286126972697  0.84673075867587
 6 -3.04735648934893 -0.55899638313831  1.32285553495350
 6 -3.18276242864286  0.89708482608261  2.06920142554255
 6 -4.45178013611361  1.40481752715272  1.49377128852885
 6 -3.23053955185519  0.77426572757276  3.54407426542654
 6 -2.04768011081108 -0.68061307540754  0.14241084878488
 6 -0.53411179927993 -0.81182003680368  0.60409817491749
 6  0.41835634153415 -0.88475539283928 -0.54162001920192
 8  0.11778151405141 -1.21542123202320 -1.67482993759376
 8  1.66344141934193 -0.81550796929693 -0.07555254725473
 7 -6.99913309430943  2.80678542044204  0.34821541554155
 6 -5.94029821082108  3.36572330483048  0.96709083448345
 6 -6.30504177667767  4.82442052585259  1.00185173687369
 6 -7.51670473497350  4.95582690569057  0.47882311241124
 6 -7.96777222762276  3.66892549144915  0.00153148944895
 6 -5.41477063346335  5.91668545094509  1.63656966086609
 6 -8.06332292049205  6.35210492819282  0.22919797409741
 6 -9.04213173597360  6.60198948954895 -0.60409902620262
 7 -9.15779917921792  0.85595407000700 -0.62980995639564
 6 -9.79286106350635  2.05566886858686 -0.61657046774677
 6 -11.21918815681568  1.81128476797680 -0.91210528182818
 6 -11.36246168666867  0.47051109250925 -1.24830489208921
 6 -10.07200390879088 -0.09316636603660 -0.93491697209721
 6 -12.31768596579658  2.89640220932093 -1.06625105420542
 6 -12.58903900130013 -0.24952405080508 -1.62991522652265
 6 -12.60470494009401 -0.55132977937794 -3.14030121452145
 7 -7.46835996169617 -1.26677099159916 -0.17343368846885
 6 -8.51986797229723 -1.99387600180018 -0.67185411381138
 6 -8.08855246244624 -3.45228983048305 -0.77250098859886
 6 -6.77404943314331 -3.42258814311431 -0.30758286358636
 6 -6.41604014361436 -2.04703650275028  0.02113426752675
 6 -8.93943792889289 -4.47935133513351 -1.24357686448645
 6 -5.62684880638064 -4.19776500340034 -0.00815814621462
 8 -5.45659751585159 -5.42686919561956 -0.20385346494650
 6 -4.44953055765577 -3.28469558225823  0.38835408500850
 6 -3.90034244904490 -3.71964565976598  1.79752163746375
 8 -4.30224283598360 -3.30135109100910  2.91299176317632
 8 -3.11197371307131 -4.78354863616362  1.58333407640764
 6 -2.57041057135714 -5.47275818111811  2.77844431473147
 6  2.65411545494549 -1.20902959355936 -0.99319352465247
 6  4.06245035483548 -0.93527815121512 -0.40073668686869
 6  5.02583488368837 -0.00376132853285 -0.81964736933693
 6  4.83752426262626  0.94652849454945 -2.04694723372337
 6  6.32622633473347  0.08369099739974 -0.04622608570857
 6  7.49747397459746 -0.31050038313831 -0.94171152455246
 6  8.80631410841084 -0.36618182508251 -0.14894977487749
 6  10.05454730943094 -0.75483996659666 -0.87248822872287
 6  9.98667246064607 -2.25742090789079 -1.25591970667067
 6  11.18035871047105 -0.44455412601260 -0.00524299229923
 6  12.65854443904390 -0.62177065546555 -0.62290016721672
 6  13.82140854805481 -0.11123382648265  0.24822118471847
 6  15.19332115321532 -0.20038307410741 -0.43276711251125
 6  15.54943227082708 -1.68369253115312 -0.65708544404440
 6  16.20755335253526  0.62956386758676  0.32177544194419
 6  17.62594943364336  0.65737147104710 -0.32496700450045
 6  18.53138298929893  1.54924354335434  0.50084877777778
 6  20.01046094199420  1.62595822112211  0.06242900330033
 6  20.12394332383239  2.28615804700470 -1.31959836883688
 6  20.89892035763576  2.40574431053105  1.05813221392139
 1 -4.17733590119012  3.52867925222522  2.15786802510251
 1 -9.90087767276728  4.33887332383238 -0.26181485538554
 1 -10.50169850975098 -2.16493250325032 -1.36167606150615
 1 -2.88931498299830 -1.21875223932393  2.02811460616062
 1 -2.26690725832583  1.61597154825483  1.68283778217822
 1 -2.29466698259826  0.38523594529453  3.87948467376738
 1 -3.38432173247325  1.65771041464146  4.04409351055105
 1 -4.07980856025603  0.25596629892989  4.00210905660566
 1 -2.15449490339034 -1.39276315401540 -0.39219607590759
 1 -2.06921285988599  0.07233470777078 -0.65691435213521
 1 -0.11036535993599 -0.11783765786579  1.46392242274227
 1 -0.67417042994299 -1.93770295029503  1.06765388438844
 1 -4.28149280668067  5.70630876847685  1.27192033003300
 1 -5.84367558635864  6.89154427312731  1.61630722772277
 1 -5.54670644764476  5.71829167856786  2.89517057765777
 1 -7.74353445234523  7.06562359605961  1.01485279157916
 1 -9.39045443824382  6.00743872937294 -1.46820621662166
 1 -9.19907418661866  7.71770705600560 -0.63648335243524
 1 -12.65648019541954  3.46510700920092 -0.00633303190319
 1 -12.11940086238624  3.79424438913891 -1.58961617911791
 1 -13.26363376337634  2.52767838603860 -1.44856790369037
 1 -12.62817764366437 -1.16975710201020 -0.86813138693869
 1 -13.55762650495049  0.17860752215221 -1.20141381868187
 1 -12.76108062306231  0.37912492759276 -3.70493933733373
 1 -11.74806101380138 -1.13443283968397 -3.32509330603060
 1 -13.39438751195120 -1.30395775387539 -3.40586444514451
 1 -9.95455300210021 -4.74244633653365 -0.78902470637064
 1 -9.25467737793779 -4.34510152365236 -2.26531705230523
 1 -8.47432913841384 -5.64184496439644 -1.16083073657366
 1 -3.59804553185318 -3.36652400370037 -0.32348540834083
 1 -1.83420028802880 -6.17930453415341  2.37138284228423
 1 -2.14145071677168 -4.52754249324932  3.23222767306731
 1 -3.39835089048905 -6.14061106110611  3.38264978517852
 1  2.66709850165017 -2.18514525562556 -1.08051518481848
 1  2.64184602750275 -0.71648308630863 -1.97785540484048
 1  4.25096653255326 -1.39492756325633  0.50193923832383
 1  5.10064532903290  2.05762346014601 -1.74972756015601
 1  5.57358432223222  0.71807776297630 -2.84641770887089
 1  3.86366285148515  0.81142394829483 -2.49910526742674
 1  6.39255935303530  1.00471361526153  0.40051485108511
 1  6.33216104190419 -0.60515610091009  0.90129982408241
 1  7.32997365046505 -1.26222026742674 -1.52460730683068
 1  7.66481623272327  0.57987349194920 -1.83107196489649
 1  8.95578001960196  0.49947779927993  0.36581784028403
 1  8.69238196809681 -0.88204529152915  0.82136498939894
 1  10.25054191949195 -0.14828463016302 -1.81745246814681
 1  9.00980816841684 -2.34756341914191 -1.88341756725673
 1  10.80318717971797 -2.57947962436244 -1.94944068966897
 1  9.78215665746575 -3.19760163766377 -0.35839936143614
 1  11.20470466056606  0.64956258005801  0.42819628222822
 1  11.26081365076508 -1.00900938643864  0.97995851755176
 1  12.98000450845085 -1.67569144814481 -0.70075351815182
 1  12.61524184078408 -0.27948522142214 -1.59532285078508
 1  13.78781981748175  0.94309470527053  0.69147432153215
 1  13.80669550505051 -0.71446440044004  1.13289286548655
 1  15.16892839023902  0.15491869166917 -1.45055170497050
 1  14.81111650665067 -2.38857714151415 -1.17088110861086
 1  16.50902763906391 -1.88010384988499 -1.24194558715872
 1  15.65233795139514 -2.17658727732773  0.30998369966997
 1  15.64939213081308  1.68902199089909  0.65616946054605
 1  16.02255857855786  0.22726653575358  1.52346434323432
 1  18.28885496279628 -0.25145362396240 -0.20370505520552
 1  17.60778350375038  1.11161412451245 -1.34723202780278
 1  18.08161986788679  2.53608233593359  0.71254774977498
 1  18.53194620882088  1.16099493629363  1.56055731133113
 1  20.21485971577158  0.61614234793479 -0.19439650255025
 1  19.56940963816382  3.30518265036504 -1.32223719791979
 1  21.10288880608061  2.39101470527053 -1.58424374777478
 1  19.67894613041304  1.57608764536454 -2.09367454865487
 1  20.98543355645565  1.96767631793179  2.02219614741474
 1  21.94076791849185  2.64546266286629  0.54951685148515
 1  20.45892355505551  3.48225789628963  1.32937554195420
 1 -6.99130291279128  1.66713098509851  0.23888714551455
 1 -7.76787815441544 -0.32976785238524 -0.17438075827583

