%nproc=4
%Mem=2GB
# td=(NStates=1) B3LYP/SVP 

TD

0 1
 6 -5.12524537503750 -1.97750755675568  0.47035566066607
 6 -4.78593475167517  2.78018824782478  1.29360603670367
 6 -9.33716295989599  3.40476667296730 -0.17698231443144
 6 -9.87348920002000 -1.41951354595460 -1.01777792319232
 7 -5.17982473047305  0.48961542264226  0.77070452845285
 6 -4.52315041264126 -0.76985596919692  0.86432251785179
 6 -3.08987074077408 -0.62958344184418  1.29924317371737
 6 -3.05051920432043  0.77026214381438  1.80122462786279
 6 -4.38853381148115  1.42222926832683  1.19283119451945
 6 -2.94551104900490  0.93447174817482  3.27820767876788
 6 -2.09879522232223 -0.79175418951895  0.07075368306831
 6 -0.58485687378738 -0.72292114691469  0.61772953805381
 6  0.40033453935394 -1.00466738403840 -0.52933879107911
 8  0.16397613351335 -1.46492618251825 -1.64941739633963
 8  1.63416849204921 -0.70353677217722 -0.24459945194519
 7 -7.04886806780678  2.78658340024002  0.46471706570657
 6 -5.99036321732173  3.46813354585459  1.11863598899890
 6 -6.20194146664666  4.93816189999000  0.97092864456446
 6 -7.57310037453745  5.00960228322832  0.46559178927893
 6 -8.05998144854486  3.65822442134213  0.21488282458246
 6 -5.26186534293429  5.94612839523952  1.44334033793379
 6 -8.20914750295029  6.25918563626363  0.40317537183718
 6 -9.17565508830883  6.62449173977398 -0.55792440874087
 7 -9.22494589388939  0.90862933753375 -0.43821079647965
 6 -9.91372314971497  2.13561686338634 -0.50015882658266
 6 -11.30638687668767  1.93245688518852 -0.81707577887789
 6 -11.44117955845585  0.56200024142414 -1.09254931653165
 6 -10.07479418781878  0.07161011161116 -0.86562004240424
 6 -12.34602880008001  3.04959752885289 -0.92118654775478
 6 -12.63284338173817 -0.20024912331233 -1.60559279427943
 6 -12.55775024462446 -0.50564521092109 -3.07897508190819
 7 -7.58190131583158 -1.25120943544354 -0.24510085518552
 6 -8.65789177467747 -2.02879949414941 -0.67746467486749
 6 -8.34248785598560 -3.42583718521852 -0.72159589808981
 6 -6.99195122332233 -3.46062194649465 -0.24807691299130
 6 -6.49521806140614 -2.13498529762976 -0.00143798969897
 6 -9.09658364346435 -4.55389878987899 -1.15631813861386
 6 -5.84762088358836 -4.27439266616662 -0.03054038443844
 8 -5.71220307640764 -5.45386189488949 -0.05050813041304
 6 -4.61670727532753 -3.31573868656866  0.31926717631763
 6 -3.87923033783378 -3.80276397159716  1.59177106240624
 8 -3.95541815351535 -3.23631458735874  2.72307277127713
 8 -3.10346286198620 -4.82850313161316  1.43893963696370
 6 -2.53505703600360 -5.55098600390039  2.47618408870887
 6  2.67967801120112 -1.02934162476248 -1.16358056335634
 6  4.01508561836184 -0.72516714011401 -0.49269588278828
 6  5.06657895809581 -0.09049000140014 -0.94695009960996
 6  5.11000151035103  0.66938077977798 -2.37786032503250
 6  6.33833754585459  0.06682931123112 -0.23158462156216
 6  7.55000922812281 -0.71752108520852 -0.78913626702670
 6  8.81050452745275 -0.49373458035804  0.06392151225123
 6  10.05186704140414 -1.06292077467747 -0.65420640054005
 6  10.10643443684368 -2.63550871667167 -0.65920003470347
 6  11.28519919451945 -0.47466713731373  0.08430596259626
 6  12.76553513811381 -0.67737621602160 -0.57878575577558
 6  13.82186859405940 -0.02107481058106  0.13134949754976
 6  15.25623744484448 -0.17744077987799 -0.37860169596960
 6  15.77745507310731 -1.61331549344934 -0.70754048954895
 6  16.27223982118212  0.54773568476848  0.48898216261626
 6  17.65282212091209  0.91890762466247 -0.30072458025803
 6  18.67023687468747  1.77087570657066  0.61678037093709
 6  20.19089898579858  1.83898952425243  0.07307006740674
 6  20.11416234573457  2.40690012121212 -1.32129853885389
 6  20.93483394899490  2.66032976907691  1.04214061476148
 1 -4.07356552415242  3.53881026532653  1.69805204350435
 1 -10.08204578957896  4.28689812631263 -0.21041971587159
 1 -10.74300264016402 -1.94985099509951 -1.23840373427343
 1 -2.91131718321832 -1.24937530163016  2.11003279797980
 1 -2.17832840044004  1.47503745484548  1.52530202860286
 1 -2.08838635453545  0.51280870257026  3.78983570887089
 1 -3.09227252755276  1.90905554915492  3.87615671687169
 1 -3.78047862726273  0.55956665896590  3.78319716541654
 1 -2.20160961486149 -1.87749162686269 -0.43563041934193
 1 -2.25675161376138 -0.13254578027803 -0.75183384408441
 1 -0.45509983338334  0.28879300520052  1.18664469496950
 1 -0.44982799569957 -1.51814099409941  1.40446756575658
 1 -4.42312697009701  6.04799293689369  0.60888402640264
 1 -5.89068028682868  6.95566068476848  1.59989558655866
 1 -4.66148792579258  5.55111496089609  2.33938499909991
 1 -7.56245634453445  7.15419245294529  0.83453475977598
 1 -9.71754714751475  5.79149713521352 -1.18556795279528
 1 -9.57454173337334  7.62509779507951 -0.30834053815382
 1 -12.58734328172817  3.42635313381338  0.01663926532653
 1 -11.93021194349435  3.79717468216822 -1.55336255375538
 1 -13.33358075807581  2.73784940314031 -1.19954300120012
 1 -12.75217004290429 -1.04362448874887 -1.17470204400440
 1 -13.49123986628663  0.49213887528753 -1.54936861416142
 1 -12.60189470447045  0.34297131223122 -3.76278512191219
 1 -11.80319652735274 -1.19882927932793 -3.32252304900490
 1 -13.50350842404240 -1.09074643274327 -3.47808166686669
 1 -10.01572911971197 -4.84572666456646 -0.47215301920192
 1 -9.51471338153815 -4.33249026252625 -2.23080360096010
 1 -8.68627033253325 -5.58888966886689 -1.23749840334033
 1 -3.87643337063706 -3.61902925422542 -0.48555161496150
 1 -2.13052992099210 -6.57677428112811  2.08771447544754
 1 -1.75929250095010 -4.89554929392939  3.24173862416242
 1 -3.33999505490549 -5.93186018601860  3.20023154335434
 1  2.47316910871087 -2.16003274437444 -1.51287842114211
 1  2.69021086398640 -0.51211264926493 -2.14393201250125
 1  3.96239767566757 -1.10794886538654  0.40088913331333
 1  5.59967523202320  1.54884258205820 -2.26060864826483
 1  5.52482944674467  0.09351530673067 -3.23690675777578
 1  4.16004248944895  0.84022682858286 -2.82274763166317
 1  6.31943204030403  1.13113625752575 -0.07494269466947
 1  6.26817464326433 -0.28231381668167  0.72954264836484
 1  7.32171282438244 -1.66194023942394 -1.01942678877888
 1  7.84672442354235 -0.14271876727673 -1.78093695139514
 1  9.04455889748975  0.59158701020102  0.14150540904090
 1  8.83874660456046 -0.96379346634663  1.11158401130113
 1  10.37192405770577 -0.64818462016202 -1.73340406330633
 1  9.25335252285229 -2.90001866466647 -1.35406463196320
 1  11.00806766776678 -2.93723539993999 -0.96938268386839
 1  9.75049349114911 -3.03645552305231  0.35415189368937
 1  11.11859604970497  0.73092071587159  0.05310877347735
 1  11.35652322172217 -0.55347383288329  1.22685320702070
 1  12.82735924392439 -1.75096897589759 -0.70196363916392
 1  12.72340265686569 -0.18058533143314 -1.74436775527553
 1  13.62680371587159  1.03980437623762  0.33297847194719
 1  13.73700853635364 -0.37103005700570  1.25658523472347
 1  15.14065556295630  0.35386858665867 -1.42611926172617
 1  15.12698809380938 -2.04277256105611 -1.34353837433743
 1  16.89324606090609 -1.38894473397340 -1.33480487308731
 1  15.87381009860986 -2.17944756335634  0.21744444574457
 1  15.84376156775678  1.50604369306931  0.85962980658066
 1  16.48711503420342 -0.13066925782578  1.38027002380238
 1  18.14956103340334 -0.16841532013201 -0.72236692139214
 1  17.38127085248525  1.46173913701370 -1.32932023662366
 1  18.31389309520952  2.73764249194919  0.74135063006301
 1  18.57923093729373  1.35804464126413  1.64334559015902
 1  20.56506473627363  0.84975570927093  0.15997893499350
 1  19.57474017121712  3.35721785388539 -1.28964393859386
 1  21.09043756095609  2.63573917771777 -1.60436575997600
 1  19.67009524532453  1.72282231883188 -1.96240142134213
 1  20.61571658475848  2.26339588988899  2.08340226802680
 1  21.89629347104710  2.81054917151715  0.74947684748475
 1  20.71767943064307  3.63538320882088  0.98002060646065
 1 -7.01036481898190  1.75085935793579  0.21281453825383
 1 -7.59319068566857 -0.17854272987299  0.03170985078508

