%nproc=4
%Mem=2GB
# td=(NStates=1) B3LYP/SVP 

TD

0 1
 6 -5.15561841234123 -1.95536534253425  0.44643326842684
 6 -4.59520567876788  2.63558378737874  1.35523219931993
 6 -9.20490973457346  3.51722791909191 -0.31757637383738
 6 -9.79705155625563 -1.30994258885889 -0.93333947934793
 7 -5.26165291329133  0.40115657675768  0.88189564756476
 6 -4.55812390999100 -0.79821880548055  0.88897498309831
 6 -3.07220897459746 -0.71372185568557  1.28628187758776
 6 -3.11959611201120  0.74724984258426  1.95725023042304
 6 -4.47409236733673  1.28976602200220  1.34986689808981
 6 -2.99576607450745  0.73123142414241  3.44132399039904
 6 -2.16655199799980 -1.00383539763976  0.14225083278328
 6 -0.65711409950995 -1.01524037883788  0.62263002810281
 6  0.34340884678468 -1.30361727902790 -0.46579243644364
 8 -0.02839310341034 -1.82281197109711 -1.47807026162616
 8  1.55186026122612 -0.92474889338934 -0.18697368936894
 7 -7.07386056705671  2.74987972987299  0.42050264426443
 6 -5.78981316231623  3.29244597709771  0.87815194059406
 6 -5.98820009250925  4.69988807260726  1.00680223192319
 6 -7.34587765226523  5.04034535753575  0.36152138223822
 6 -7.93485893629363  3.76538513741374  0.09208054435444
 6 -4.99414857125713  5.74547833023302  1.39135513941394
 6 -7.95284187238724  6.38075779347935  0.36452150645065
 6 -8.86675419821982  6.79741903250325 -0.52764138043804
 7 -9.25029842914291  0.99601807640764 -0.37644461986199
 6 -9.83677545494549  2.22222552425242 -0.51362017271727
 6 -11.25097133513351  2.02435607510751 -0.91022509380938
 6 -11.42176761726173  0.69040308170817 -1.14341440304030
 6 -10.15071177957796  0.09044199479948 -0.87755123552355
 6 -12.19244344154415  3.16385895499550 -1.18109253835384
 6 -12.60555065246525 -0.06123522192219 -1.62794502950295
 6 -12.74927939753976 -0.20659530593059 -3.02545973037304
 7 -7.44931805750575 -1.21617593209321 -0.29056540164016
 6 -8.57819380488049 -1.98774538873887 -0.63487041544154
 6 -8.32810641784178 -3.31997659915992 -0.66917065556556
 6 -6.92681470967097 -3.44944082838284 -0.34740684598460
 6 -6.52300083968397 -2.10210200930093 -0.11724957085709
 6 -9.05758974407441 -4.48389178917892 -1.09948245504550
 6 -5.87780390189019 -4.30207543444345 -0.01997932833283
 8 -5.87215907200720 -5.56684319301930 -0.05356843644364
 6 -4.64413001760176 -3.38664577727773  0.34090934053405
 6 -3.88827124192419 -3.88845254045405  1.64470635593559
 8 -4.11722433413341 -3.42468342424242  2.72992345634563
 8 -3.22676519221922 -5.01261154245425  1.42986872987299
 6 -2.48165169546955 -5.73399430473047  2.56532300260026
 6  2.61596163956396 -1.30796948754876 -1.08092229752975
 6  3.88550266006601 -0.74040866426643 -0.39574618781878
 6  4.89206150635063 -0.08317927032703 -0.96640204480448
 6  4.86400691089109  0.55599944164416 -2.21982452145215
 6  6.18753246534653  0.25637826612661 -0.26251771487149
 6  7.41592581978198 -0.47838717181718 -0.77581493489349
 6  8.76303978097810 -0.08440364726473 -0.04278915881588
 6  10.05269712441244 -0.73573805640564 -0.73985496539654
 6  9.93145693909391 -2.22408757455746 -0.65328944364436
 6  11.29535020962096 -0.24956462706271 -0.00783325132513
 6  12.70050863546355 -0.53469194759476 -0.72388026522652
 6  13.82754916211621  0.15094239113911  0.14660102270227
 6  15.23854567566757 -0.08068110391039 -0.44036787258726
 6  15.76948427602760 -1.49481364326433 -0.41423115861586
 6  16.27761035823583  0.83169408060806  0.31775503990399
 6  17.74244108280828  0.84451018491849 -0.29324383218322
 6  18.55666551755175  1.78862748174817  0.60087878077808
 6  20.06333622952295  1.76582220752075  0.13173593399340
 6  20.32390331983198  2.22821225242524 -1.36924333333333
 6  20.99976044164417  2.63520725682568  0.99382578327833
 1 -3.92181034863486  3.42686907120712  1.70900313861386
 1 -9.82814039903990  4.16896633313331 -0.53015168906891
 1 -10.50599893979398 -1.93502951295130 -1.32206210011001
 1 -2.82092814431443 -1.58301866596660  2.20009180388039
 1 -2.38161872947295  1.28814876597660  1.39740923932393
 1 -1.90968848474847  0.53773119481948  3.60483720902090
 1 -3.38518181848185  1.65669031263126  3.95752485368537
 1 -3.58426900630063  0.01374207650765  3.93609245494549
 1 -2.52521197509751 -2.13287716541654 -0.21664852115212
 1 -2.14035997459746 -0.09251177687769 -0.49797845854585
 1 -0.20520484388439  0.02424655055506  1.05293132363236
 1 -0.45907892079208 -1.79035821582158  1.61100821982198
 1 -4.21486614401440  5.88571670927093  0.57522066006601
 1 -5.40092131093109  6.71945706440644  1.54061965896590
 1 -4.38041981898190  5.52494234363436  2.47717877847785
 1 -7.56999709860986  7.36259329302930  0.87187849414941
 1 -9.38637403020302  6.18968695419542 -1.38567796379638
 1 -9.09079335853585  7.93762904820482 -0.49294899899990
 1 -12.38910345774577  3.50338083658366 -0.21325372397240
 1 -11.90599952225223  3.93828879357936 -1.84373159065907
 1 -13.25577297729773  2.82750836903690 -1.52438548544855
 1 -12.68321314721472 -1.11338146444644 -0.89975454925493
 1 -13.43499424172417  0.53174283568357 -1.11823550085009
 1 -13.05525004000400  0.80276729182918 -3.43052189558956
 1 -11.89636584428443 -0.76507590399040 -3.59643043974398
 1 -13.80490856405641 -0.75381273937394 -3.04505836453645
 1 -9.87607515431543 -4.40897298919892 -0.70770657455746
 1 -9.39786169636964 -4.45725273877388 -2.18921944254425
 1 -8.50505221072107 -5.35961674157416 -0.96965161866187
 1 -3.84731045834583 -3.52140949224923 -0.57369042884288
 1 -1.97095396339634 -6.54282088578858  2.16845254925492
 1 -1.78255482718272 -5.08158789778978  3.17142159245925
 1 -3.45916697209721 -6.06528352835284  3.14907642784278
 1  2.68960075187519 -2.40862760386039 -0.94093122642264
 1  2.45462730563056 -0.92469390739074 -2.18152577187719
 1  4.06095753165317 -1.42068013851385  0.49839888428843
 1  5.25038030253025  1.45489318711871 -2.22516510391039
 1  5.46461342514251  0.10403635883588 -3.19521258835884
 1  3.90862734793479  0.67132993889389 -2.75840119701970
 1  6.04097419451945  1.31804494839484 -0.37118231863186
 1  5.99154698049805 -0.00305589088909  0.81521121522152
 1  7.33394404750475 -1.62534658005801 -0.93831867796780
 1  7.48345809690969 -0.07412190759076 -1.95862472017202
 1  9.01619606120612  1.05233308480848 -0.23102184368437
 1  8.78318104800480 -0.43174026102610  1.17807065996600
 1  10.25544240954095 -0.51246104780478 -1.76492721562156
 1  8.88998618621862 -2.66659532233223 -1.07387661316131
 1  10.84094095509551 -2.64864654105411 -1.50875662126213
 1  10.18480692249225 -2.31667354485449  0.46242272077208
 1  11.53321751185118  0.87803542734273  0.14420788338834
 1  11.39925749514951 -0.47756624212421  1.08297881958196
 1  12.97143365136514 -1.69072295129513 -0.89533297609761
 1  12.80639095569557 -0.07101437433743 -1.65454877337734
 1  13.67442847834783  0.99481987778778  0.29255442954295
 1  13.90731556705671 -0.49975292929293  1.11815139133913
 1  15.39490098749875  0.31696489628963 -1.54674132393239
 1  15.02333772877288 -2.14320260406041 -1.08993301380138
 1  16.72563930023002 -1.71371721122112 -0.78846023862386
 1  15.52194491209121 -1.94473409200920  0.63061576287629
 1  15.85341253285328  1.87240032873287  0.28629247284728
 1  16.33111943464347  0.53720752985299  1.35299729652965
 1  18.32788886618662 -0.09874835343534 -0.21564624932493
 1  17.83635636103610  1.31322428552855 -1.42338964356436
 1  18.07362906880688  2.73895262296230  0.67985448044805
 1  18.33519653385338  1.60257909470947  1.72231348694869
 1  20.42180040984098  0.65140587428743  0.18915185228523
 1  19.55632833003300  3.17913004510451 -1.54285926012601
 1  21.50551906910691  2.59696530033003 -1.39948527192719
 1  20.12006024182418  1.48253829042904 -2.23235841704170
 1  21.09749476257626  2.41046059635964  1.99075300310031
 1  22.03409725142514  2.62375049164916  0.73623552335234
 1  20.66243390609061  3.75234490499050  0.80650325472547
 1 -7.46151993449345  1.84224849684969  0.21421467826783
 1 -7.54357572417242 -0.28014288988899 -0.25020834103410

