%nproc=4
%Mem=2GB
# td=(NStates=1) B3LYP/SVP 

TD

0 1
 6 -5.14409726022602 -1.95540534653465  0.50747937303730
 6 -4.64984114231423  2.74537476647665  1.39746642274227
 6 -9.26543578717872  3.35350154645465 -0.25946056225623
 6 -9.84966681778178 -1.43421501610161 -1.06364250965097
 7 -5.18423517151715  0.48090455155516  0.81135859385939
 6 -4.48305640324032 -0.74811379497950  0.86972305790579
 6 -2.92509426312631 -0.66085656915692  1.21038428782878
 6 -2.93638779117912  0.87722283988399  1.71295580098010
 6 -4.30998595669567  1.37761480688069  1.36069798119812
 6 -2.74837133503350  0.90997929892989  3.32943280128013
 6 -2.10405574837484 -0.78932394649465 -0.02882627492749
 6 -0.57420580868087 -0.85659451425143  0.38222598769877
 6  0.28538304420442 -0.99180609790979 -0.80630648784879
 8  0.02806254215422 -1.31406109600960 -1.83656611121112
 8  1.59184425962596 -0.67653407190719 -0.39142413441344
 7 -6.99125230623062  2.69757449934994  0.53469406340634
 6 -5.88520270127013  3.33272000450045  1.08923304870487
 6 -6.18075934843484  4.73755183898390  1.12356390809081
 6 -7.50126319081908  4.89672099509951  0.74533976407641
 6 -8.06778222862286  3.66248484738474  0.30802213851385
 6 -5.28613777017702  5.77382116451645  1.70172617651765
 6 -8.11791838003800  6.21273099079908  0.60033508780878
 6 -8.97882540534053  6.62117140774077 -0.40740935723572
 7 -9.15532893219322  0.89911838643864 -0.47863483888389
 6 -9.85528730613061  2.08124142584258 -0.51655046574657
 6 -11.17384362236224  1.85172881238124 -1.13248732003200
 6 -11.38465390589059  0.55537957935794 -1.26565662726273
 6 -10.06139284768477 -0.02899994939494 -1.05807928832883
 6 -12.13575777297730  2.95360792989299 -1.33740816991699
 6 -12.51321141854185 -0.18754785318532 -1.74365660066007
 6 -12.54904937453745 -0.35371001740174 -3.25182236663666
 7 -7.51467459315932 -1.25436975147515 -0.15764210931093
 6 -8.56359234473447 -2.04370098429843 -0.64093102150215
 6 -8.18736234343434 -3.46745134663466 -0.57329106760676
 6 -6.94929695789579 -3.35299118341834 -0.18519062436244
 6 -6.47073561316132 -2.06235803490349  0.10551270537054
 6 -9.00034401950195 -4.50463386338634 -0.88196070287029
 6 -5.84420054155416 -4.37278250515052  0.08833150275027
 8 -5.75243709980998 -5.52259876857686  0.11308822922292
 6 -4.61552715731573 -3.36232334503450  0.51799704930493
 6 -4.09606202100210 -3.76838053325333  1.87834972027203
 8 -4.37380999269927 -3.39705066096610  2.97147761176118
 8 -3.13581609730973 -4.78328861016102  1.71358710171017
 6 -2.68053158345835 -5.36453735903590  2.93447991829183
 6  2.66587663106311 -0.83567225782578 -1.38055226052605
 6  3.97676178597860 -0.66706132953295 -0.79674628782878
 6  5.04800710091009  0.04738378597860 -1.21448685328533
 6  5.15325583578358  0.84897873957396 -2.53119565856586
 6  6.35824953705371  0.09086171447145 -0.30259172227223
 6  7.56734096129613 -0.42028136123612 -1.12994034743474
 6  8.85104858185819 -0.38069327622762 -0.23934881478148
 6  10.08025988068807 -0.87127160976098 -0.85987696759676
 6  10.10968476187619 -2.33250841664166 -1.07405151985199
 6  11.29216989158916 -0.37329700030003 -0.02333480148015
 6  12.57778636323632 -0.64202268066807 -0.55261313851385
 6  13.80384679187919 -0.03067577067707  0.24284064666467
 6  15.24858667976798 -0.31408444424442 -0.37272110791079
 6  15.59621694929493 -1.88005216711671 -0.22005174067407
 6  16.15352794999500  0.57094800600060  0.36159942434243
 6  17.58723556225623  0.86770250415041 -0.24253876167617
 6  18.51536138713871  1.58890750975098  0.59513820672067
 6  19.99095899179918  1.74456008130813  0.18878163856386
 6  19.99888081758176  2.58294772597260 -1.14118052705271
 6  20.81331179677968  2.50448418451845  1.23631003170317
 1 -3.89076724432443  3.46189257355736  1.80874311261126
 1 -10.11782936793679  4.10737017351735 -0.29947862176218
 1 -10.67487582748275 -2.03101911191119 -1.29610950485048
 1 -2.73104915641564 -1.33782414651465  2.03180497519752
 1 -2.08131869946995  1.43275322642264  1.25979547794779
 1 -1.80912842874287  0.62951037273727  3.59246597189719
 1 -2.88256155645565  1.89579422302230  3.67690679187919
 1 -3.56383696309631  0.26112681498150  3.72176102180218
 1 -2.33635308920892 -1.83300717841784 -0.25967282358236
 1 -2.50008594719472 -0.26474900060006 -1.00437909860986
 1 -0.27467179057906  0.19007313321332  0.85477150765076
 1 -0.41804481738174 -1.64169334933493  1.03599071807181
 1 -4.17319197659766  5.58667680528053  1.31460459845985
 1 -5.63085430423042  6.72140725942594  1.19924552155215
 1 -5.47624940194019  5.89855970537054  3.06230729132913
 1 -7.90129022792279  7.01115814951495  1.23812511881188
 1 -9.12233762656266  5.83877186268627 -1.37344674067407
 1 -9.60266454565457  7.53042832813281 -0.43541324542454
 1 -11.98881342874287  3.81825232373237 -0.55073747234723
 1 -12.04225314761476  3.60492545724572 -2.28878609610961
 1 -13.27575497549755  2.38263388158816 -1.30672371927193
 1 -12.64772959885989 -1.04244437073707 -1.13783835763576
 1 -13.56269701200120  0.53339300070007 -1.62906658395840
 1 -12.38319283428343  0.67632464756476 -3.84161300470047
 1 -11.89297550525053 -1.01146054245425 -3.82479327602760
 1 -13.57621569476948 -0.79251660976098 -3.55354921362136
 1 -9.65604315111511 -4.65306739863986 -0.15068087198720
 1 -9.80462237243724 -4.39862687618762 -1.75746626722672
 1 -8.41162286778678 -5.41233201310131 -0.93049770327033
 1 -3.78307403470347 -3.70748810011001 -0.34910797059706
 1 -2.41093796179618 -6.51540814451445  2.44931063506351
 1 -1.76243281498150 -4.73026276527653  3.25606005630563
 1 -3.49806086148615 -5.33053005300530  3.84955647584758
 1  2.36494828662866 -2.06094283538354 -1.58718585188519
 1  2.57695953885389 -0.12328376637664 -2.14734235353535
 1  3.92880431633163 -1.42514058455846  0.24866391079108
 1  5.58105336983698  1.74346204400440 -2.12121470887089
 1  5.67277424122412  0.07708366356636 -3.31041410851085
 1  4.09158564376438  1.11325413131313 -2.74666002290229
 1  6.57641773887389  1.19030217411741 -0.02463766416642
 1  6.13086091189119 -0.39130471577158  0.73071276537654
 1  7.20920157325733 -1.41512555795580 -1.43156800290029
 1  7.83530328142814  0.03400890549055 -2.00563942164216
 1  9.05764020562056  0.65622347384739  0.15314657315732
 1  8.69265199509951 -1.03526061306131  0.70132298519852
 1  10.10638750405040 -0.31008080978098 -1.82213293619362
 1  9.18699588718872 -2.47229589238924 -1.60653987948795
 1  11.09753661466147 -2.65929760616062 -1.40851659725973
 1  9.95259370117012 -2.72801467896790  0.09188566706671
 1  11.31339552965296  0.87560518431843  0.13324678727873
 1  11.01767933733373 -0.73632211771177  1.03354387608761
 1  12.71744825282528 -1.57585146414641 -0.77847128992899
 1  12.62566288288829 -0.32966023892389 -1.51973529202920
 1  13.72331336683668  1.11595199099910  0.30043521762176
 1  13.92477731323132 -0.49298225222522  1.37204678087809
 1  15.19484098149815 -0.17795459565957 -1.53558020782078
 1  15.30193558855886 -2.59058734253425 -1.08409242974297
 1  16.67404414071407 -2.11820766026603 -0.55459685228523
 1  15.36460917851785 -2.19396901550155  0.83735643694370
 1  15.61661885348535  1.56241933063306  0.39129297289729
 1  16.39944626732673  0.02940674977498  1.43415541234123
 1  18.00147622492249 -0.07773625222522 -0.53188787348735
 1  17.39517224262426  1.39783274637464 -1.37122442704270
 1  18.26091779767977  2.71720044774477  0.77200369536954
 1  18.49519253345334  1.10553939073907  1.71547280288029
 1  20.49763799359936  0.75479621332133 -0.11498856175618
 1  19.75178787598760  3.73873600570057 -1.02877785198520
 1  21.04929344654465  2.73010861466147 -1.52738806220622
 1  19.63233146894689  2.03753378997900 -2.07613279447945
 1  20.76702171527153  1.71481103140314  2.10552448024802
 1  21.72976681838184  2.65901401800180  0.78516041584158
 1  20.46396405910591  3.51051072157216  1.38064066846685
 1 -7.15403918641864  1.65893016501650  0.39637289408941
 1 -7.60722208880888 -0.11381625722572 -0.19004232443244

