%nproc=4
%Mem=2GB
# td=(NStates=1) B3LYP/SVP 

TD

0 1
 6 -5.21531438193819 -1.97512731873187  0.47665629072907
 6 -4.64947110531053  2.73236346534653  1.46168284438444
 6 -9.22108135173517  3.49238543484348 -0.27600221642164
 6 -9.87416926802680 -1.43138473307331 -0.80393653905391
 7 -5.23203995199520  0.41596805790579  0.76698415641564
 6 -4.57127522512251 -0.79097808140814  0.88810489608961
 6 -3.04952670637064 -0.65757624112411  1.29023227262726
 6 -3.07922207460746  0.86234135173517  1.80152465786579
 6 -4.42062702080208  1.38066511191119  1.36505841724172
 6 -2.91888838673867  0.81151945294529  3.37893775177518
 6 -2.06739208200820 -0.88397341144114  0.15415202290229
 6 -0.68827721582158 -0.81267012181218  0.49425719081908
 6  0.38125263116312 -1.20448736603660 -0.50566642384238
 8  0.09853958985899 -2.00681037093709 -1.44161661626163
 8  1.59785486068607 -0.81635805430543 -0.21549654165417
 7 -6.93509669066907  2.81585632753275  0.41670226422642
 6 -5.81362554355436  3.45896262876288  1.05416954235423
 6 -6.09997126962696  4.75617370117012  1.08289984168417
 6 -7.28596166066607  5.07634895789579  0.56500173027303
 6 -7.94193964436444  3.77368596749675  0.23565490179018
 6 -5.10822997939794  5.81380516291629  1.51804780868087
 6 -7.85724231243124  6.42564228192819  0.46273132743274
 6 -8.99516703950395  6.79912920352035 -0.23305192149215
 7 -9.13856725602560  0.93932240684068 -0.32354933033303
 6 -9.78623040044004  2.19770307200720 -0.53880269096910
 6 -11.24360059805981  2.00652429192919 -1.12355642694269
 6 -11.31773721422142  0.74359840124012 -1.32124218581858
 6 -10.02733944234424 -0.04796184558456 -0.82182566296630
 6 -12.08680287748775  3.12016458555856 -1.24732916201620
 6 -12.58393849124912 -0.09208830723072 -1.75618785378538
 6 -12.61612608220822 -0.43322796919692 -3.27411459585959
 7 -7.56550967666767 -1.24146846134613 -0.22707905300530
 6 -8.62456844234423 -1.96221283548355 -0.49558648704870
 6 -8.25604921212121 -3.32788739023902 -0.66914065256526
 6 -6.95575760396040 -3.47932381668167 -0.13425553085309
 6 -6.52396093569357 -2.09298109720972  0.13053520762076
 6 -9.07978196329633 -4.54225762576258 -1.06415892269227
 6 -5.89832595409541 -4.34867009390939  0.18034070367037
 8 -5.83359521562156 -5.61806831553155 -0.00572365196520
 6 -4.55183078767877 -3.36623373607361  0.38503375297530
 6 -3.86803921872187 -3.83623731893189  1.72180406570657
 8 -4.14114672637264 -3.50815177107711  2.80672113611361
 8 -3.04355687138714 -4.80880116141614  1.35237098009801
 6 -2.42310584088409 -5.44130503580358  2.40144661496150
 6  2.54528457185719 -1.20345903650365 -1.20961516681668
 6  3.79368347814781 -0.61209583298330 -0.61409802300230
 6  4.97550985118512 -0.09254020642064 -1.33623902850285
 6  4.88423893409341  0.29952379407941 -2.82532507150715
 6  6.28401211331133  0.24174680298030 -0.52771423452345
 6  7.45292952015201 -0.52223155625563 -1.08768612201220
 6  8.71813529052905 -0.19728493539354 -0.24439931983198
 6  10.00307216191619 -0.87573205580558 -0.72161314121412
 6  10.00330412381238 -2.40791595739574 -0.54928904360436
 6  11.22550322492249 -0.25246491709171  0.15577310931093
 6  12.57718630323032 -0.44700317871787 -0.67048492569257
 6  13.83619002620262 -0.08741144424442  0.23211957455746
 6  15.29628144924492 -0.18450148594859 -0.35782961876188
 6  15.73268059565957 -1.65213937583758 -0.44950468596860
 6  16.26252885008501  0.61144205540554  0.38337160156016
 6  17.62593943264326  0.79818555245525 -0.19168367616762
 6  18.56201605260526  1.70449906890689  0.69892858575858
 6  19.95927582348235  1.82693831913191  0.15050781118112
 6  20.12041297079708  2.59462889408941 -1.21394780378038
 6  20.67862832843284  2.76369010511051  1.12171857255726
 1 -3.97719588718872  3.34908129242924  2.12399463776378
 1 -9.97357494249425  4.22415185168517 -0.28519719361936
 1 -10.61264960486049 -2.12243825382538 -1.23853374727473
 1 -2.76712276377638 -1.39268963306331  2.14916671137114
 1 -2.20110067766777  1.27290724182418  1.43928342674267
 1 -1.83585110101010  0.30533795549555  3.62724945024502
 1 -3.13318661896190  1.86349099269927  3.80949005020502
 1 -3.69124970437044  0.39106980928093  3.85074392009201
 1 -2.38158761266127 -1.85316919461946 -0.34623147944795
 1 -2.11432737133713 -0.29028155385539 -0.59814847554755
 1 -0.53135745914591  0.17758188408841  0.82985901640164
 1 -0.48514152705271 -1.42200138013801  1.54883200220022
 1 -4.40603526092609  5.99424756235624  0.72999613761376
 1 -5.55991721052105  6.78968408710871  1.64243984098410
 1 -4.59355113211321  5.58382823222322  2.52840390099010
 1 -7.40073017191719  6.90594762846285  1.13278458475848
 1 -9.47759315211521  6.02015000050005 -0.90490988698870
 1 -9.48906318551855  7.83625891119112 -0.16349605370537
 1 -12.00620516791679  3.82387288578858 -0.28990138873887
 1 -11.97493641594160  3.59691465616562 -2.05585280278028
 1 -13.26410381038104  3.03692931113111 -1.31407445434543
 1 -12.73204803070307 -1.05180530683068 -1.15502007580758
 1 -13.55163590589059  0.39112877427743 -1.55478915621562
 1 -12.65844035903590  0.43977099219922 -4.07634647804780
 1 -11.50653686138614 -0.87938733513351 -3.48405920262026
 1 -13.49370744394439 -1.15285264336434 -3.31056491519152
 1 -10.38209575637564 -4.61867395929593 -0.79184498839884
 1 -8.89935184538454 -4.56339335283528 -2.30971149174918
 1 -8.68847055255526 -5.64379515941594 -0.81614626812681
 1 -3.63907963526353 -3.33637098839884 -0.39854291409141
 1 -1.60946781478148 -6.13873047674767  1.96812251625162
 1 -2.07660423212321 -4.76512625162516  3.09917436773677
 1 -3.20917197259726 -6.09122612261226  2.91877339753975
 1  2.49688147994799 -2.15781252235224 -1.53376050935094
 1  2.31954379727973 -0.50876231423142 -2.23609122842284
 1  4.06609804570457 -0.90900897139714  0.33594263866387
 1  5.44586985148515  1.16603430123012 -3.01492407980798
 1  5.66536350015001 -0.35609965476548 -3.32471553865386
 1  3.89394587978798  0.06909971587159 -3.36760211711171
 1  6.43274337143714  1.28732187608761 -0.33786898729873
 1  6.02533035883588 -0.25165075037504  0.61751144524452
 1  7.40409106220622 -1.72031607700770 -1.16606145224522
 1  7.48293804490449 -0.22845734113411 -2.02786164386439
 1  8.89500394199420  0.89430728222822 -0.19178792029203
 1  8.54795752565257 -0.66546363336334  0.79319217211721
 1  10.23871073637364 -0.63140294199420 -1.84487521042104
 1  9.36608379597960 -3.22571123392339 -1.13921314681468
 1  11.03219008000800 -2.87108878527853 -0.65813155875588
 1  9.95739418121812 -2.69156103360336  0.59370584908491
 1  11.08992318241824  0.81775939973997  0.22003546614661
 1  11.34711228062806 -0.93988247374737  1.01287180888089
 1  12.62652916091609 -1.52264614361436 -1.49284272707271
 1  12.51146146274627  0.19762248934893 -1.57757107560756
 1  13.64973600910091  1.03644404020402  0.35616079017902
 1  13.80489532503250 -0.79008196219622  1.18484806100610
 1  15.21932342974297  0.23069626942694 -1.36424307410741
 1  15.03250864586459 -2.26453473727373 -1.10481450195019
 1  16.65946268256826 -1.85570140964096 -1.14938633123312
 1  15.92976569416942 -2.04522414101410  0.59301200250025
 1  16.00483767536754  1.69512260096010  0.61191503510351
 1  16.28526484918492  0.21721553065307  1.39352134893489
 1  18.28921499879988 -0.23906238483848 -0.33025771047105
 1  17.42809553495350  1.02503546664666 -1.32335964056406
 1  18.34086579247925  2.72801152885289  0.92176867186719
 1  18.51265427962796  1.31684052085209  1.74971622722272
 1  20.31420965076508  0.84233496719672  0.09261219831983
 1  19.79349204640464  3.64089622172217 -1.10512548674867
 1  21.12031054825482  2.65055065886589 -1.60166548994900
 1  19.52252048784878  2.06838687528753 -2.03538872007201
 1  20.77532254535454  2.13409295959596  2.23625755355536
 1  21.65317915961596  2.75726384298430  0.79118101790179
 1  20.46796445914591  3.73019268976898  1.21425402980298
 1 -7.02923670617062  1.80744501650165  0.18140139693969
 1 -7.53310467706771 -0.27758263386339  0.11718839863986

