%nproc=4
%Mem=2GB
# td=(NStates=1) B3LYP/SVP 

TD

0 1
 6 -5.09664251475148 -1.93412321832183  0.36653527862786
 6 -4.47231338953895  2.69251948094810  1.48553522962296
 6 -9.14807405100510  3.42026822312231 -0.26819143534353
 6 -9.85889774087409 -1.31487308190819 -1.00301644704470
 7 -5.08702545054506  0.46516297739774  0.91102856085609
 6 -4.48635673327333 -0.81674065766577  0.71073715931593
 6 -3.09402115581558 -0.70529101260126  1.23242649204920
 6 -2.99430358275828  0.70287540514051  1.86530103550355
 6 -4.24344930303030  1.33611065646565  1.33752566396640
 6 -2.84736123402340  0.74102240324032  3.40197005500550
 6 -1.95605094789479 -0.97427244134413  0.13577018471847
 6 -0.53587197529753 -1.09371822662266  0.55746351145115
 6  0.37512201810181 -1.41239815711571 -0.59441529872987
 8 -0.01872213631363 -1.75369505940594 -1.72425488008801
 8  1.66681175637564 -1.12374879337934 -0.24953994599460
 7 -6.85060824182418  2.70132487438744  0.46692728672867
 6 -5.70723490449045  3.39609634213421  1.11857598299830
 6 -6.12001327382738  4.71367945174517  1.23964551625163
 6 -7.30696376087609  4.92818414141414  0.65082031213121
 6 -7.95177062746275  3.65947454635464  0.23002433873387
 6 -5.19945910231023  5.93260704310431  1.71059706360636
 6 -7.99430601880188  6.23201291899190  0.47542259655966
 6 -8.73713123592359  6.65064435503550 -0.50681929822982
 7 -9.17847124642464  1.00468894349435 -0.52983995939594
 6 -9.80098187558756  2.18799210091009 -0.60111892259226
 6 -11.16788302630263  2.00134377387739 -0.93843791509151
 6 -11.41903734423442  0.67771181258126 -1.16488655025503
 6 -10.05239194759476  0.10213316391639 -0.86704018441844
 6 -12.26647084428443  3.13454602370237 -1.26429085818582
 6 -12.62486258365837  0.04574547614762 -1.72538477347735
 6 -12.53478794839484 -0.19040368676868 -3.31774895929593
 7 -7.48649177487749 -1.20500481498150 -0.20859720482048
 6 -8.62962894839484 -1.92026864106411 -0.65422235063506
 6 -8.24646825402540 -3.35206980848085 -0.72130586908691
 6 -6.92894492269227 -3.41968785308531 -0.23215532083208
 6 -6.45563410301030 -2.06794859395940 -0.01938978487849
 6 -9.19708369346935 -4.42270567056706 -1.08195070187019
 6 -5.85383150465046 -4.30372559945995  0.00500316991699
 8 -5.81828368446845 -5.53322983168317  0.08589550995100
 6 -4.61776738133813 -3.44893200590059  0.51964721432143
 6 -4.09049146394639 -3.89002269746975  1.84172605790579
 8 -4.39136174787479 -3.32768372427243  2.83551401540154
 8 -3.27185970167017 -4.97193747504750  1.72360810381038
 6 -2.85926945724572 -5.58842974827483  2.89285575587559
 6  2.68570861426143 -1.27631632223222 -1.23490769606961
 6  3.95585969576958 -0.98514313771377 -0.56124273747375
 6  4.89545184538454 -0.17682863526353 -1.20951635623562
 6  4.73927443764376  0.43874771647165 -2.57551009000900
 6  6.25103881598160  0.25234786308631 -0.47496895999600
 6  7.45324955215522 -0.35445477857786 -1.13061041444144
 6  8.72084556155616 -0.18855406230623 -0.29059393929393
 6  10.07345920062006 -0.70107459005901 -0.90041102100210
 6  10.03071686508651 -2.26534169997000 -1.08426254095410
 6  11.27186786138614 -0.18736840744074  0.01373890589059
 6  12.64302288688869 -0.47323580198020 -0.65436331353135
 6  13.72394880208021  0.15224252115212  0.25446180878088
 6  15.20375219631963 -0.07789082488249 -0.24651848764876
 6  15.77593492109211 -1.62587674957496 -0.15014474997500
 6  16.18873147034704  0.85611652285228  0.46429969436944
 6  17.54461129982998  0.90504623852385 -0.08325283308331
 6  18.46503635463546  1.97819643864386  0.55645433833383
 6  20.02347224312431  1.85574119941994  0.14641740214021
 6  20.33988491799180  2.22960239143914 -1.34707111611161
 6  20.82324278987899  2.66348008410841  1.11364776547655
 1 -3.90485865346535  3.22199858415842  2.14825706400640
 1 -9.85286287128713  4.06985642214222 -0.50569924382438
 1 -10.51029936983698 -2.03071908190819 -1.35653554745475
 1 -3.09778583008301 -1.51692205630563  2.10308210291029
 1 -2.01974254185419  1.18889884098410  1.43297279567957
 1 -1.81170868676868  0.19910733243324  3.56920364566457
 1 -2.82927622792279  1.88966360996100  3.77692679387939
 1 -3.70304088348835  0.22045274757476  3.91349019471947
 1 -2.22022147604760 -1.75530940864086 -0.49535639193919
 1 -2.07102304090409 -0.21121364706471 -0.56283494419442
 1 -0.24925924932493 -0.13118899299930  0.98243427392739
 1 -0.35206821972197 -1.76521570157016  1.46623374237424
 1 -4.26862151955195  5.90359849744974  0.92890602860286
 1 -5.63837505630563  6.81455657435744  1.44110970797080
 1 -5.07122889988999  5.71995184458446  2.73844490509051
 1 -7.65426552545255  7.13104013771377  1.15785709200920
 1 -8.83805919871987  6.12047003250325 -1.50553994999500
 1 -9.13835811501150  7.65148043334333 -0.58842854695470
 1 -12.38747329472947  4.03139363786379 -0.44547694629463
 1 -11.89629855215522  3.47145210991099 -2.06022323982398
 1 -13.36073347334734  2.89390500870087 -1.49047209410941
 1 -12.64804963086309 -0.93639376567657 -1.28930350415041
 1 -13.59865060736074  0.53341300270027 -1.58602227952795
 1 -12.42805732073207  0.76707372247225 -4.00234907830783
 1 -11.53748995669567 -0.62612200860086 -3.49414021072107
 1 -13.51535960916092 -0.62400975907591 -3.50445430413041
 1 -9.94467201400140 -4.30240233213321 -0.45931173507351
 1 -9.71388329852985 -4.33240025352535 -2.04155467606761
 1 -8.52624432993299 -5.32676345624562 -1.02766742024202
 1 -3.82482821012101 -3.55570292159216 -0.29371243104310
 1 -2.50563743174317 -6.44295089878988  2.64410011401140
 1 -2.32124869656966 -4.80204994399440  3.70629507980798
 1 -3.72173322872287 -5.86861386138614  3.57413893409341
 1  2.46577836963696 -2.30402714381438 -1.55736286958696
 1  2.39810165306531 -0.50411184918492 -2.10259787908791
 1  4.25700713661366 -1.58633670417042  0.40329937433743
 1  4.66201146564656  1.63483118091809 -2.36953954135414
 1  5.54095105890589  0.09205516071607 -3.27474054115412
 1  3.56831331653165  0.16734954085409 -2.85100045694569
 1  6.26312640974097  1.32070521442144 -0.49041424182418
 1  6.05502332813281 -0.14901048634864  0.53417311141114
 1  7.40271092419242 -1.44057810321032 -1.21273611971197
 1  7.62566231733173  0.15435093969397 -2.06967582528253
 1  8.96237067866787  0.78056590809081 -0.00182892439244
 1  8.42375510541054 -0.60233732073207  0.58837169006901
 1  10.02547941324132 -0.26918672037204 -2.04786550945095
 1  9.09771695929593 -2.41727038983898 -1.78660788628863
 1  10.99320618161816 -2.45681735813581 -1.57072281788179
 1  9.79869831163116 -2.72883476097610 -0.00700422192219
 1  11.24106829692969  0.82272989678968  0.03372683528353
 1  11.21690926032603 -0.64593307880788  1.06018654035404
 1  12.77435394339434 -1.68862274127413 -0.75106854965497
 1  12.72469278587859 -0.02653992689269 -1.67821113961396
 1  13.63904493999400  1.23211360716072  0.18399357345735
 1  13.57131196669667 -0.16127908190819  1.25285486168617
 1  15.26187768516852  0.09380258005801 -1.30648729852985
 1  15.22304769976998 -2.29103738753875 -0.81203522402240
 1  16.65019175547555 -1.75135097459746 -0.81952334493449
 1  16.02628534613461 -2.14308392699270  0.75800850215021
 1  15.76837402900290  1.92491558025803  0.56659050265026
 1  16.04253057575758  0.63118692779278  1.52089408620862
 1  17.85915199249925 -0.23577205580558 -0.03915860056006
 1  17.34265699109911  1.15540850395039 -1.18011531613161
 1  18.15202690859086  3.05803453115312  0.24041053605361
 1  18.40829384358436  1.89031786858686  1.68557981358136
 1  20.19448767856786  0.58317905160516  0.44244718181818
 1  20.33030572777278  3.56675880798080 -1.49054402860286
 1  21.37777629482948  2.00410601440144 -1.60011533493349
 1  19.67705594139414  1.77977801440144 -2.17469265046505
 1  20.64721973507351  2.42678222852285  2.16902082988299
 1  21.96257009870987  2.38191630823082  0.99901180098010
 1  20.84066172887289  3.67638730923092  1.15533813821382
 1 -7.19272305480548  1.71440571257126  0.20134339113911
 1 -7.57804917151715 -0.24634951055106 -0.02021534173417

