%nproc=4
%Mem=2GB
# td=(NStates=1) B3LYP/SVP 

TD

0 1
 6 -5.12750560106011 -1.94147395339534  0.44226285138514
 6 -4.68172433063306  2.67294752375238  1.43175985208521
 6 -9.28692793639364  3.49545574187419 -0.28656327252725
 6 -9.78583043414341 -1.34655625022502 -0.90291643704370
 7 -5.26070281828183  0.42797925902590  0.85491294929493
 6 -4.52821091869187 -0.82359134273427  0.88401448704871
 6 -3.14025577927793 -0.60146062956296  1.32029527892789
 6 -3.09177332973297  0.77990310791079  2.00125463086309
 6 -4.36773173127313  1.39057610301030  1.31927383878388
 6 -2.95129162706271  0.71475977697770  3.47337719571957
 6 -2.06180152295229 -0.82634764886489  0.24036064376438
 6 -0.58422681078108 -0.77311616641664  0.59108687378738
 6  0.35646015191519 -1.12907982528253 -0.53993985118512
 8 -0.06506677077708 -1.55730542044204 -1.56389884448445
 8  1.67502257745775 -1.04767118561856 -0.15956094809481
 7 -6.92962614361436  2.75652039393939  0.39645023902390
 6 -5.84363854485449  3.45756248874887  1.03419754515452
 6 -6.17942921542154  4.79627771157116  1.19730128182818
 6 -7.39284234873487  5.02427375037504  0.63745897599760
 6 -7.97936338673867  3.67677627652765  0.10305164146415
 6 -5.22183133953395  5.88695247764776  1.79484548844884
 6 -8.08693528172817  6.29748946664666  0.53670872517252
 6 -9.00907843064306  6.76839613021302 -0.40657927422742
 7 -9.08806220552055  0.95943441804180 -0.54380135553555
 6 -9.68761053845385  2.18699200090009 -0.74810362106211
 6 -11.12887912591259  1.97538117761776 -1.09738380968097
 6 -11.27546298679868  0.61527556895690 -1.30767082868287
 6 -9.97972468086809  0.03225617621762 -0.94971845224522
 6 -12.14333853105311  3.07793036213621 -1.27658208730873
 6 -12.54220431783178 -0.09618871727173 -1.82687492249225
 6 -12.56218068766877 -0.29757440384038 -3.27692487688769
 7 -7.44904803050305 -1.24175849034903 -0.27720406550655
 6 -8.54953093859386 -1.98860547474747 -0.71979890829083
 6 -8.17013062026203 -3.40671527302730 -0.62476621512151
 6 -6.84424645284528 -3.47755363966397 -0.22986509180918
 6 -6.44239277887789 -2.06776857595760 -0.03191103700370
 6 -9.04501848694869 -4.56689008900890 -1.03468597539754
 6 -5.73146926842684 -4.29768499539954  0.16203887348735
 8 -5.64016587268727 -5.55066157485749  0.01851877227723
 6 -4.62130773537354 -3.37634474717472  0.57371262086209
 6 -3.94331674647465 -3.85473916911691  1.78595048034803
 8 -4.15703831553155 -3.37517847374737  2.86129659365937
 8 -3.16154867056706 -4.95309559085909  1.51713745674567
 6 -2.75554908520852 -5.67231813711371  2.69894636493649
 6  2.60120016341634 -1.31619030963096 -1.20709491479148
 6  3.97794190399040 -0.85197982138214 -0.62635924912491
 6  4.89272157235724 -0.05958691109111 -1.28970437503750
 6  4.76158666886689  0.50805464716472 -2.68902144114411
 6  6.22421613371337  0.32180480878088 -0.47199866296630
 6  7.42649687688769 -0.41750108320832 -0.97162451585159
 6  8.72683616061606 -0.17243245014501 -0.27150203010301
 6  10.04291614631463 -0.75619010161016 -0.68708968886889
 6  10.06160995439544 -2.29591475727573 -0.78573268796880
 6  11.29611028562856 -0.17062673327333 -0.06964943294329
 6  12.65938452305230 -0.39721820022002 -0.59949782698270
 6  13.85002140934093  0.11683898079808  0.27170353295330
 6  15.06778859995999 -0.19207224302430 -0.32234607040704
 6  15.51502883048305 -1.66671083298330 -0.29940967646765
 6  16.25642824002400  0.63877478867887  0.42038530293029
 6  17.65815265396540  0.75585131903190 -0.10396490429043
 6  18.56092594359436  1.69789840884088  0.61676036893689
 6  20.00462035793579  1.76731235653565 -0.01888912851285
 6  20.14213514301430  2.38967839903990 -1.37061347034703
 6  20.94156462206221  2.45741947804780  0.91486788748875
 1 -3.90774894249425  3.52698908320832  1.81598383668367
 1 -10.08009559455946  4.26077551405141 -0.38324699859986
 1 -10.59901824172417 -2.08527453745375 -1.27562745664567
 1 -2.88140419191919 -1.44895525962596  2.07105890059006
 1 -2.19599016661666  1.37363731483148  1.65378487688769
 1 -1.91267878377838  0.33331075277528  3.67656438173817
 1 -3.25309861016102  1.69412405600560  3.94591369256926
 1 -3.79103968336834  0.05411611391139  3.88359720542054
 1 -2.18994844874487 -1.82716659435944 -0.21455831213121
 1 -2.32786872547255 -0.13980650635063 -0.67404606530653
 1 -0.33354767816782  0.11798592449245  0.95038106860686
 1 -0.30030304320432 -1.32798197819782  1.57297441644164
 1 -4.35644030143014  6.32489062666267  1.07340047804780
 1 -5.71219243804380  6.79619473817382  2.30947654465447
 1 -4.67024880188019  5.36428627802780  2.70561162176218
 1 -7.98024812371237  7.10758779247925  1.23386469276928
 1 -9.08485387818782  6.02487047254725 -1.28461785778578
 1 -9.41678595779578  7.68372365766577 -0.45115481958196
 1 -12.34814936233623  3.60864136263626 -0.33178557715772
 1 -11.90292921522152  3.79265423012301 -2.06594381188119
 1 -13.21341874187419  2.64818043624362 -1.64094714161416
 1 -12.62122694859486 -1.11427155345535 -1.45527010081008
 1 -13.46319706200620  0.30592025342534 -1.48797247454745
 1 -12.41404591959196  0.65352236733673 -4.06266510991099
 1 -11.73056926462646 -0.69382877927793 -3.85972676937694
 1 -13.37467554075408 -0.60802816091609 -3.70494435313531
 1 -9.72030957775778 -4.52252434433443 -0.27183298719872
 1 -9.44845675587559 -4.64487150065007 -1.94668518911891
 1 -8.53629533503350 -5.56430721062106 -0.79428408190819
 1 -3.94947067436744 -3.70068742004200 -0.23663672347235
 1 -2.28889575757576 -6.78141474517452  2.18226393039304
 1 -1.91746831853185 -5.24585432443244  3.34350880118012
 1 -3.72154320972097 -5.81742874287429  3.21123264346435
 1  2.57361915371537 -2.46622336343634 -1.47088422172217
 1  2.50419226212621 -0.67338877687769 -1.96821444074407
 1  4.23446488238824 -1.20005807630763  0.48427747214721
 1  4.98580384488449  1.59520721852185 -2.68967155455546
 1  5.63060002380238  0.08824477967797 -3.19761282838284
 1  3.59790627582758  0.41240404630463 -3.07751310821082
 1  6.37397749484948  1.35394853875388 -0.53711891229123
 1  5.80620844664466  0.16758117281728  0.59419911401140
 1  7.08587924102410 -1.35569961536154 -0.98618346444644
 1  7.48738848994899 -0.37298179357936 -2.17242610031003
 1  8.87053149474947  0.83160101160116 -0.06155489698970
 1  8.59074180408041 -0.43725081208121  0.85941879477948
 1  10.09059592489249 -0.38276807850785 -1.73750447334733
 1  9.09067625522552 -2.59798846164616 -1.10450967646765
 1  10.97668452945295 -2.95622729912991 -1.45249099469947
 1  9.88030647244724 -2.63794567206721  0.33440991949195
 1  11.15236942704270  0.93513113691369 -0.02849938733873
 1  11.20438800820082 -0.42908139363936  0.99136965866587
 1  12.81343785178518 -1.58749262826283 -0.70393383618362
 1  12.74458477507751 -0.06761403430343 -1.61346466496650
 1  13.84203523902390  1.34835523132313  0.33434860896090
 1  13.58327316281628 -0.10705365936594  1.23454303050305
 1  14.95697719511951  0.10925412521252 -1.43919056885689
 1  14.86393178817882 -2.15506379017902 -1.10946496699670
 1  16.55000173647365 -1.71794763426343 -0.84420581318132
 1  15.42306502410241 -2.15899551815182  0.61654435573557
 1  15.71453864546455  1.62867595629563  0.74864870847085
 1  16.37021334403440  0.29251306040604  1.28150014681468
 1  18.28337441474147 -0.29466794539454  0.02249756505651
 1  17.62953567896790  0.99870283338334 -1.14052135673567
 1  18.11203290919092  2.55773450115012  0.74165066006601
 1  18.96654966916692  1.59592842964296  1.78414967056706
 1  20.25807403720372  0.77743847754775  0.07511044814481
 1  19.82455515271527  3.36028816091609 -1.36129110331033
 1  21.15009352655265  2.52589819361936 -1.60426574997500
 1  19.55798403420342  1.79263930053005 -2.20780596179618
 1  21.08080309340934  2.07419696999700  2.07943187098710
 1  21.96642048374837  2.28709682628263  0.66804870467047
 1  20.35418308100810  3.51037070757076  1.31222382678268
 1 -6.77990177267727  1.79481375337534  0.07204046084608
 1 -7.38035940254025 -0.31666654225423 -0.04684800500050

