%nproc=4
%Mem=2GB
# td=(NStates=1) B3LYP/SVP 

TD

0 1
 6 -5.12912576307631 -1.96595640164016  0.58098672377238
 6 -4.60946710491049  2.69794002300230  1.40747742384238
 6 -9.35051429502950  3.35353154945495 -0.17228184438444
 6 -9.89592144324432 -1.45098669326933 -1.01126727212721
 7 -5.12842959095910  0.46001246234623  0.79552701070107
 6 -4.46604470207021 -0.78926791039104  0.84678076367637
 6 -3.04329608330833 -0.58156864036404  1.36575982538254
 6 -3.13158731113111  0.83344846244624  1.89239374477448
 6 -4.34992995109511  1.39239628502850  1.31686359775978
 6 -2.95386188408841  0.93247154815482  3.35185504350435
 6 -2.05192053485349 -0.86809182328233  0.10595720342034
 6 -0.56636502460246 -0.77479633443344  0.40851861696170
 6  0.34122862876288 -0.99741665896590 -0.70717657485749
 8  0.13750348624862 -1.54545423532353 -1.78945139973997
 8  1.58843391859186 -0.61131755025503 -0.23648864086409
 7 -6.87819100010001  2.74604934683468  0.35497609160916
 6 -5.82405658665867  3.40703743624362  0.96805093049305
 6 -6.16454772727273  4.73284136793679  1.12855440714071
 6 -7.51167423192319  4.97652897589759  0.72801803190319
 6 -7.91688713911391  3.63799239813981  0.20159149544954
 6 -5.26154531093109  5.84414819721972  1.57940394429443
 6 -8.23202979117912  6.22218193589359  0.57406246054605
 6 -9.07589511231123  6.64841413201320 -0.39715833213321
 7 -9.25148854815482  0.92165063966397 -0.45238221362136
 6 -9.80378215561556  2.09179248094809 -0.42402121282128
 6 -11.24828106610661  1.89693333283328 -0.94549862116212
 6 -11.35689112961296  0.51609565096510 -1.27181724332433
 6 -10.10672738113811 -0.01537858725873 -0.98360184058406
 6 -12.28163236043604  2.99896246534653 -1.14780921002100
 6 -12.62906300370037 -0.13268236663666 -1.91286352135214
 6 -12.46307077667767 -0.26687133353335 -3.41500868526853
 7 -7.43498662436244 -1.25261957645765 -0.26227257235724
 6 -8.55363134863486 -2.00389700390039 -0.72907983638364
 6 -8.15346895409541 -3.42643724522452 -0.77039077757776
 6 -6.88422045024502 -3.44503038733873 -0.23623572887289
 6 -6.47790633023302 -2.08048984808481  0.02975512961296
 6 -8.93449743484348 -4.59399279927993 -1.17343985078508
 6 -5.77363348484849 -4.40952617951795  0.10497316691669
 8 -5.73514537063706 -5.56500300900090  0.13259017941794
 6 -4.59842544714471 -3.42417953065307  0.51513676327633
 6 -3.98556097089709 -3.86072976817682  1.83507539283928
 8 -4.31459407110711 -3.41751270717072  2.94006447044704
 8 -3.12950546624662 -4.92100238153815  1.70962670567057
 6 -2.50383391369137 -5.42889379467947  2.85241171147115
 6  2.65604564796480 -0.96197488808881 -1.18671287658766
 6  3.99187329712971 -0.62918754215422 -0.56516312951295
 6  5.01909420962096  0.10943999159916 -1.14256966156616
 6  4.95971648184818  0.64329817151715 -2.55469800880088
 6  6.27568128022802  0.30662329062906 -0.41826328942894
 6  7.38323255045505 -0.38794812791279 -1.02877023042304
 6  8.77345082208221 -0.18771397829783 -0.22485736563656
 6  10.05785764046405 -0.83909839243924 -0.88463944384438
 6  9.88153194659466 -2.38636380218022 -0.74202831753175
 6  11.22420309490949 -0.19520919151915 -0.06210867886789
 6  12.61970055465546 -0.73975245364536 -0.60044792199220
 6  13.72422883008301  0.02541983888389  0.15743210581058
 6  15.24724654575457 -0.16359939573957 -0.40314415021502
 6  15.62035936353635 -1.68589275117512 -0.39274901040104
 6  16.27711030823082  0.55314622582258  0.40648391279128
 6  17.65194203290329  0.63675940984098 -0.21047555535554
 6  18.66495634663466  1.56995561456146  0.63271196409641
 6  19.98508840474047  1.73077870317032  0.10606336673667
 6  20.26534746424642  2.46081551275128 -1.30230663966397
 6  20.84586505210521  2.41110484658466  1.14760116081608
 1 -3.95176334393439  3.45952233653365  2.15809804810481
 1 -10.08898648364836  4.19287872437244 -0.02282095599560
 1 -10.57696603650365 -1.99327533753375 -1.54040393429343
 1 -2.87383343484348 -1.17242760686069  2.18434022872287
 1 -2.12201276887689  1.26044599569957  1.39825932433243
 1 -1.98878639453945  0.70922834453445  3.87706443174317
 1 -2.86240954125413  1.98130277387739  3.79003810501050
 1 -3.72566314571457  0.41713241554155  4.00219906560656
 1 -2.54129358325833 -1.86425030273027 -0.39297615391539
 1 -2.20183612221222  0.04553202750275 -0.65331399209921
 1 -0.14448877227723  0.06045017091709  1.02417844834483
 1 -0.67947095999600 -1.47318649864987  1.19562668166817
 1 -4.28952360976098  6.07393553115312  0.90727386538654
 1 -5.97162838163816  6.79127424612461  1.63135873287329
 1 -4.95374715171517  5.89624947434744  2.61323238383838
 1 -7.92278237713771  6.99579661336134  1.24416572287229
 1 -9.33693908670867  5.89449743524352 -1.22026142214221
 1 -9.38285256445645  7.63044833013301 -0.37572727682768
 1 -12.26252079947995  3.72440293879388 -0.23320571917192
 1 -12.11164008630863  3.65607057175718 -2.07975519301930
 1 -13.24072147214722  2.56305192339234 -1.06237928482848
 1 -12.79453427932793 -1.09121924822482 -1.57936251005101
 1 -13.30396113841384  0.55028468986899 -1.66056973427343
 1 -12.40924543954395  0.68547556265627 -3.82618146154615
 1 -11.48201440914091 -0.82791218761876 -3.79159995669567
 1 -13.14582265546555 -1.05220257835784 -3.99645350405041
 1 -9.79792733953395 -4.54886697859786 -0.57990379427943
 1 -9.33460537073707 -4.45764277777778 -2.01842236283628
 1 -8.45211691719172 -5.64370515041504 -0.84807946144614
 1 -3.77196292359236 -3.67851520282028 -0.25265832563256
 1 -1.50861772977298 -5.95096169986999  2.51063676767677
 1 -2.00270684238424 -4.72977271627163  3.58681313161316
 1 -3.21282233763376 -6.05893289328933  3.36345786598660
 1  2.29377116891689 -2.18495523662366 -1.00556769006901
 1  2.37637948084809 -0.48607004500450 -2.13552117141714
 1  3.91958339423942 -1.11452952345235  0.59045809020902
 1  5.16377164166417  1.64386208400840 -2.30649323672367
 1  5.77145410921092  0.49336529172917 -3.13558662576258
 1  4.04347083228323  0.37074988088809 -3.36143150005000
 1  6.37528762586259  1.54790793469347 -0.53354855525553
 1  6.29131695749575  0.20600501520152  0.56399609370937
 1  7.08579923302330 -1.51303534893489 -1.29527437353735
 1  7.59490924202420  0.03270877547755 -2.06506536423642
 1  8.93726816841684  0.92513036453645 -0.20658940044004
 1  8.58801153105311 -0.74439152615262  0.77105995889589
 1  10.02923978927893 -0.46150595229523 -1.86745746864686
 1  8.92365955355536 -2.68233689648965 -1.27225645114511
 1  10.73123998499850 -2.98536021242124 -1.06882262786279
 1  9.69999844164417 -2.74196607410741  0.25710218871887
 1  11.28013220332033  0.85697332113211 -0.40629716711671
 1  11.26041361076108 -0.49382786828683  1.00741126282628
 1  12.66261276927693 -1.91599547854786 -0.29082252505251
 1  12.68738905550555 -0.42846011891189 -1.79558287678768
 1  13.38139917541754  1.11547194299430  0.33372854695470
 1  13.67291212671267 -0.48026098009801  1.21394097029703
 1  15.11493299069907  0.30059325912591 -1.45003165296530
 1  15.07356275127513 -2.27710599439944 -1.13310733123312
 1  16.63995073137314 -1.72138797829783 -0.76430782338234
 1  15.43441615921592 -2.15462508110811  0.71435413671367
 1  15.90963815541554  1.51944503320332  0.54051789538954
 1  16.22530885358536 -0.07950414131413  1.39358135493549
 1  18.17907398469847 -0.46368484708471 -0.21165585028503
 1  17.68234095949595  0.97081004410441 -1.12446975157516
 1  18.00990269616962  2.33766249394940  0.74775127012701
 1  18.60789380358036  1.01010984778478  1.61706296189619
 1  20.53575180498050  0.65326606030603  0.05311824892489
 1  20.03945664286429  3.51082321442144 -1.31524649884989
 1  21.24247276447645  2.39316492029203 -1.84976029942994
 1  19.53936217201720  1.99429946654665 -2.12189737093709
 1  20.94848986208621  1.86080563086309  2.09442337013701
 1  22.03516735843584  2.47355547214721  0.82341424122412
 1  20.63773143584358  3.50630030053005  1.47233983838384
 1 -7.08821260376038  1.79963423542354  0.36789004580458
 1 -7.41484285088509 -0.32216709230923 -0.03825714591459

