%nproc=4
%Mem=2GB
# td=(NStates=1) B3LYP/SVP 

TD

0 1
 6 -5.18428127862786 -1.92700250625063  0.61897052215222
 6 -4.79926608480848  2.84671490049005  1.41760843694369
 6 -9.44852409600960  3.36415261156116 -0.15818043424342
 6 -9.81749360046005 -1.42269386398640 -0.87179332473247
 7 -5.21390813881388  0.50149661076108  0.92631008900890
 6 -4.55148324592459 -0.68325730933093  0.85910199579958
 6 -3.14548630233023 -0.45728621212121  1.27623087248725
 6 -3.18753290569057  0.97174229182918  1.94656916231623
 6 -4.45850080818082  1.44651169656966  1.43951586298630
 6 -2.98255475337534  0.89270757175718  3.42266212421242
 6 -2.10996633943394 -0.64822983708371  0.12220882858286
 6 -0.56955534363436 -0.73502235703570  0.64489225432543
 6  0.37105161106111 -0.97114403170317 -0.51848770597060
 8  0.09482921882188 -1.48751844174417 -1.54168662326233
 8  1.52329740494049 -0.73265968446845 -0.17604259625963
 7 -7.09104228522852  2.80373511541154  0.55850644464446
 6 -5.88940312131213  3.49942667516752  1.02890701610161
 6 -6.32029330183018  4.91009909370937  1.19275082678268
 6 -7.55127819231923  4.99313063606361  0.61346657675768
 6 -8.18682413281328  3.63807240614061  0.23617495379538
 6 -5.40389954635464  5.91000478287829  1.65692169606961
 6 -8.20067665586559  6.28433815151515  0.35425047934793
 6 -9.02090961376138  6.64134342494249 -0.68676729302930
 7 -9.16615001430143  0.87965644024402 -0.39765674107411
 6 -9.91223300070007  2.04500780248025 -0.50888969966997
 6 -11.24449068706871  1.82275591509151 -1.11707577887789
 6 -11.37141258175818  0.51813585498550 -1.22278233983398
 6 -10.03372008040804 -0.09215626502650 -0.85065854625463
 6 -12.30685488268827  2.86577914701470 -1.24738916801680
 6 -12.58008810621062 -0.28972807120712 -1.71651388638864
 6 -12.30433490309031 -0.60551519791979 -3.30754793919392
 7 -7.52931605730573 -1.28161247574757 -0.15701204630463
 6 -8.52968895439544 -2.05990260446045 -0.54440136853685
 6 -8.08505211241124 -3.38071267276728 -0.72916665516552
 6 -6.78919094729473 -3.39973585788579 -0.26442854815482
 6 -6.36772531213121 -2.07686948604860  0.09706186028603
 6 -9.02558654375438 -4.54506790679068 -0.93318582538254
 6 -5.58211433293329 -4.23770899779978 -0.04292162256226
 8 -5.51360321642164 -5.45038154685469 -0.14743782338234
 6 -4.46937254185418 -3.28500561326133  0.37732298189819
 6 -3.92543495829583 -3.92447614281428  1.63171505680568
 8 -4.15397800950095 -3.54240519641964  2.79972043604360
 8 -3.05322783848385 -4.70787106840684  1.40377612061206
 6 -2.43841737203720 -5.47350825612561  2.56149261956196
 6  2.57165720912091 -1.05730442104210 -1.06481068636864
 6  3.99206331613161 -0.70089471287129 -0.60536714991499
 6  4.95572787298730  0.02981202880288 -1.13866927152715
 6  4.73127363756376  0.68114195589559 -2.52489502850285
 6  6.23717742984298  0.31454408270827 -0.39754121722172
 6  7.51786601380138 -0.30936026912691 -1.09452680608061
 6  8.71613509050905 -0.28301350825083 -0.23268814871487
 6  10.14645650035004 -0.78528301090109 -0.88405938583858
 6  10.04827862126213 -2.22870803660366 -1.27301141584158
 6  11.23775445004500 -0.49241891249125  0.04579211121112
 6  12.67176576117612 -0.62272075047505 -0.66372424962496
 6  13.82487889508951 -0.10000270337034  0.24982134473447
 6  15.27608943004300 -0.30210324612461 -0.33755759155916
 6  15.57887521512151 -1.78598276017602 -0.32469220472047
 6  16.18567116431643  0.74329524072407  0.53545681008101
 6  17.67367420612061  0.80792652655266 -0.03170767856786
 6  18.63071292229223  1.61190980998100  0.68710740364036
 6  20.09835973187319  1.53007863316332  0.08673143354335
 6  20.35078600810081  1.92785221642164 -1.30086649564957
 6  21.03982444804480  2.51405514161416  0.97606400710071
 1 -4.01345951355136  3.45902228652865  1.87074931323132
 1 -10.31862944794480  4.09434887138714 -0.38630730463046
 1 -10.74904324422442 -2.09804581458146 -0.88082797669767
 1 -2.75699175067507 -1.23288365246525  1.98307010171017
 1 -2.24418498609861  1.44795474657466  1.50750024842484
 1 -1.97933544944495  0.69652707440744  3.45285201050105
 1 -3.50686398669867  1.79894453805381  3.79255835703570
 1 -3.74754533393339  0.21225192749275  3.92851169686969
 1 -2.45017447134714 -1.36777065476548 -0.43203005930593
 1 -2.17893383198320  0.14600207450745 -0.70137879857986
 1 -0.39320364376438  0.23876800270027  1.12693872437244
 1 -0.34166717961796 -1.44085326532653  1.41489860886089
 1 -4.72879753715372  6.37486562416242  0.78184132213221
 1 -5.98011923072307  6.68230334903490  2.29530512751275
 1 -4.71593337033703  5.38823867326733  2.46224728532853
 1 -7.66595669456946  7.13255028872887  1.01822312861286
 1 -9.33909930273027  6.03102108760876 -1.42798219421942
 1 -9.49446372557256  7.54506979227923 -0.97205690979098
 1 -12.06324087148715  3.53641413991399 -0.43661606020602
 1 -12.34900382268227  3.36283124782478 -2.18155537303730
 1 -13.33053045304531  2.35385100330033 -1.31482452935294
 1 -12.79252407830783 -1.26368649494950 -1.39737431123112
 1 -13.61399214151415  0.19336899829983 -1.41681535883588
 1 -12.33210772577258  0.48149516461646 -3.70620946434643
 1 -11.50733694139414 -1.09011840824082 -3.72204300100010
 1 -13.26952502570257 -0.98219557765777 -3.78129198789879
 1 -9.84608215501550 -4.50299239113911 -0.28625442934293
 1 -9.62752466266627 -4.48203521702170 -1.89374989558956
 1 -8.66709841534153 -5.55182596249625 -0.89830448394839
 1 -3.32258798609861 -3.33810116141614 -0.33316637643764
 1 -1.86353322132213 -6.41558816251625  2.11908761276128
 1 -2.01703827552755 -4.62633237223722  3.14288873917392
 1 -3.24926598199820 -5.93128012801280  3.13396491669167
 1  2.50933272507251 -2.07353409450945 -1.23999113241324
 1  2.31319316221622 -0.53482492049205 -2.16634425372537
 1  4.14894633053305 -1.06521459195920  0.41526057045705
 1  5.12633789828983  1.78401609940994 -2.46167875527553
 1  5.57005396919692  0.22960891609161 -3.11142420952095
 1  3.79457594279428  0.66470927682768 -3.06917227412741
 1  6.52637273437344  1.49476262016202 -0.21001620202020
 1  6.21750957675768 -0.07725331063106  0.64066376047605
 1  7.36503715681568 -1.27675172057206 -1.44048889498950
 1  7.60186993809381  0.21368687328733 -2.11511036873687
 1  9.02171661326133  0.78259611111111 -0.03967270877088
 1  8.66236896679668 -0.76710379737974  0.72887574047405
 1  10.02840970627063 -0.25167496919692 -1.89168989188919
 1  9.29772696029603 -2.46694535733573 -2.01802102760276
 1  11.05872273327333 -2.75405708210821 -1.67560330593059
 1  9.81130957275728 -2.95425730323032 -0.53133665516552
 1  10.91743593369337  0.64061168496850  0.24476793939394
 1  11.08485605500550 -1.00173865936594  0.93519404110411
 1  12.81484799279928 -1.57461134013401 -0.99157260006001
 1  12.79779009560956  0.04053678077808 -1.54381770027003
 1  13.50691172667267  0.99553994979498  0.30482565666567
 1  13.88473330883088 -0.40490344434443  1.04611418761876
 1  14.95932743014301  0.02802600240024 -1.33767041684168
 1  14.97998339333934 -2.56034431823182 -0.79144316481648
 1  16.46346308260826 -1.92858869836984 -0.86414780738074
 1  15.62886560416042 -2.20449006760676  0.83536623792379
 1  15.71970916251625  1.79501258995900  0.70479432303230
 1  16.32217854055406  0.27151096019602  1.54556655345535
 1  18.27797387468747 -0.22176065466547  0.16370168546855
 1  17.71719444484448  1.13136609970997 -1.10910821542154
 1  18.14541624752475  2.68084681238124  0.54309080408041
 1  18.64531754595460  1.34710354715472  1.78517977357736
 1  20.51943017281728  0.48710944464446  0.27869080618062
 1  20.18486118331833  3.04999713181318 -1.53575855005501
 1  21.51128964616462  1.87322292609261 -1.33670899429943
 1  19.82276051185119  1.32660269686969 -2.19617479867987
 1  21.20103511661166  1.97077662796280  2.12609653745375
 1  22.09266310801080  2.43510162676268  0.72706460626063
 1  20.60081774447445  3.57766743724372  1.20979358375838
 1 -7.23693747624762  1.68117238923892  0.32505576237624
 1 -7.57502886948695 -0.21896677227723  0.14502118191819

