%nproc=4
%Mem=2GB
# td=(NStates=1) B3LYP/SVP 

TD

0 1
 6 -5.13188603910391 -1.94849465546555  0.43835246034603
 6 -4.72220837903790  2.76516674567457  1.52497917401740
 6 -9.26383562716272  3.37102329862986 -0.28694331053105
 6 -9.87022887398740 -1.43469506410641 -1.02541868726873
 7 -5.18072482048205  0.36223268436844  0.73900135813581
 6 -4.56855495309531 -0.80766975057506  0.88608469406941
 6 -3.06563831753175 -0.65517600110011  1.32224547394739
 6 -3.12232638503850  0.74847996559656  1.94507901330133
 6 -4.45396035413541  1.37995504090409  1.49052096349635
 6 -2.97629412731273  0.68858715971597  3.49588944694469
 6 -2.09660500330033 -0.81789680378038  0.12592920062006
 6 -0.62541092919292 -0.72083093789379  0.56329409450945
 6  0.38042254815482 -0.99026594389439 -0.52405826302630
 8  0.10464019991999 -1.27801749164916 -1.68354080868087
 8  1.64283935913591 -0.85119153765377 -0.04001899389939
 7 -7.03599678067807  2.79659440134013  0.56106670067007
 6 -5.91414559555956  3.45528226072607  1.07753187858786
 6 -6.18664993749375  4.84926301010101  1.05276682838284
 6 -7.37010007450745  5.02056337933793  0.51087631773177
 6 -7.92697814821482  3.75285388428843  0.21394273057306
 6 -5.21939109550955  5.88491227362736  1.49291529542954
 6 -8.13526011421142  6.36960667836784  0.36482153645365
 6 -9.03753127592759  6.65119441004100 -0.42889150545055
 7 -9.13066646594659  0.87361583618362 -0.50781775717572
 6 -9.81439321672167  2.11723502520252 -0.57768657935794
 6 -11.23254949294929  1.94321796129613 -1.06406047734773
 6 -11.36607204770477  0.59674371577158 -1.26653671527153
 6 -10.10747745614561  0.00738368896890 -0.92234571497150
 6 -12.18176237343734  3.06441901100110 -1.37611204030403
 6 -12.58943904130413 -0.16808590699070 -1.77132936793679
 6 -12.69676414601460 -0.27840248664866 -3.29444662906291
 7 -7.44346747244724 -1.28462277677768 -0.24237058215822
 6 -8.59265525102510 -1.98766538073807 -0.84133106150615
 6 -8.19246285348535 -3.41245584708471 -0.79369310781078
 6 -6.85220724892489 -3.51212709700970 -0.42917502280228
 6 -6.44888342794279 -2.18228002710271 -0.08636648254826
 6 -9.05731971707171 -4.53462686268627 -1.13318582538254
 6 -5.74405052655266 -4.41361658855886 -0.02863019341934
 8 -5.69511136723672 -5.63659016771677 -0.11089416901690
 6 -4.57262286688669 -3.40124723742374  0.48643389298930
 6 -3.89601201600160 -3.86516021122112  1.77633951925193
 8 -4.21662427412741 -3.44611556745675  2.92912337633763
 8 -3.03643615931593 -4.87733801510151  1.45705144814481
 6 -2.50552408270827 -5.51247215251525  2.65738220852085
 6  2.68509855325533 -1.14556324692469 -0.99846405170517
 6  3.96032014181418 -0.77242186558656 -0.37571418461846
 6  4.92065436563656  0.11648069566957 -0.82488789338934
 6  4.89085959615962  0.81286512821282 -2.27071961096110
 6  6.22081579367937  0.41184381268127 -0.06044750785079
 6  7.36339056625663 -0.39657899099910 -0.62612996639664
 6  8.73306678367837 -0.12849805670567  0.09511463156316
 6  9.98895074977498 -0.78492297489749 -0.51757273717372
 6  9.86256004940494 -2.29024419021902 -0.54651876657666
 6  11.38378905350535 -0.27141681228123  0.15552308430843
 6  12.68106669126913 -0.70084856325633 -0.57983586078608
 6  13.85186159335934 -0.08656135923592  0.11873823642364
 6  15.31850367146715 -0.27959099489949 -0.52900673647365
 6  15.57811513911391 -1.77087124902490 -0.40921065656566
 6  16.28793139033904  0.52314322552255  0.21140440484048
 6  17.74646148484848  0.57943367726773 -0.33522803060306
 6  18.55758560956096  1.75964458345835  0.36845553845385
 6  19.99865976187619  1.79005463076308 -0.13610084968497
 6  20.10665159465947  2.28889832103210 -1.57173358235824
 6  20.93924439003900  2.65365910201020  0.79646604730473
 1 -4.09134730233023  3.39991637593759  1.97328956725673
 1 -9.80574815981598  4.16762619911991 -0.52063073697370
 1 -10.65238357825783 -2.14827083708371 -1.51473136703670
 1 -2.70726677817782 -1.51649201330133  1.98539033373337
 1 -2.33541410901090  1.41537148824883  1.54741423982398
 1 -2.01140865676568  0.06020344204420  3.91827855315531
 1 -3.13711701200120  1.60326497009701  3.89926902810281
 1 -3.83466404580458  0.00917161946195  3.84932377807781
 1 -1.87869732363236 -1.78842271997200 -0.35706256255626
 1 -2.58497443604360 -0.41094362006201 -0.83661232193219
 1 -0.37848217161716  0.31081520742074  0.98962499299930
 1 -0.57015002790279 -1.63456263626363  1.25263238223822
 1 -4.17419207660766  6.02198033563356  0.84445758375838
 1 -5.49817103590359  6.97062218091809  1.63661925892589
 1 -5.01569334633463  5.41826167556756  2.58763982458246
 1 -7.75158525742574  6.96365339903990  1.11821312761276
 1 -9.41349674247425  5.78700668616862 -1.08623801980198
 1 -9.68185246444644  7.61696698199820 -0.53898360246025
 1 -12.27433198059806  3.92962346084609 -0.40058245684568
 1 -11.73304222652265  3.75707067176718 -2.28063528102810
 1 -13.14425182518252  2.94276989518952 -1.63601664856486
 1 -12.57550237613761 -1.06078620492049 -1.30449502330233
 1 -13.44711545384538  0.43100276167617 -1.56709038633863
 1 -12.73900841584158  0.72515953105311 -3.84784362776278
 1 -11.84142034973497 -0.98508790519052 -3.95603640034003
 1 -13.55267334053405 -1.00222758085809 -3.76997085578558
 1 -9.93705125192519 -4.40928302020202 -0.59693549744975
 1 -9.21371328152815 -4.56213322682268 -2.10501102170217
 1 -8.56257796329633 -5.54476525642564 -0.79358401190119
 1 -3.79751547884788 -3.50089744104410 -0.27178023782378
 1 -1.78868573657366 -5.91112771647165  2.18609431343134
 1 -2.09626619831983 -4.99877961696170  3.45454990529053
 1 -3.23557461286129 -6.15828282828283  2.89489100930093
 1  2.64998679047905 -2.23831057215722 -1.27817495079508
 1  2.31164300720072 -0.55051648964896 -1.85436305560556
 1  4.18684011991199 -1.37569564006401  0.58760780518052
 1  5.02573783828383  1.88139583738374 -2.04148673607361
 1  5.59733669746975  0.77688364356436 -3.22579564666467
 1  3.96530301550155  0.86524933083308 -2.86627198409841
 1  6.31861195829583  1.46885002890289 -0.15795099549955
 1  6.01090891669167  0.12465688038804  0.96684637873787
 1  7.09112976607661 -1.62292633803380 -0.73863870997100
 1  7.41891164226423 -0.16596109150915 -1.76943580128013
 1  8.87101154275427  1.04862271377138  0.07646890539054
 1  8.87962069196920 -0.55718280528053  1.22304515741574
 1  10.05647251255125 -0.48383818551855 -1.54186490939094
 1  9.02492968056806 -2.20860952375238 -1.09988921442144
 1  10.71367822882288 -2.91578325472547 -1.12006775237524
 1  9.61715015681568 -2.82958483598360  0.45781225972597
 1  11.54286847694769  0.72755037883788  0.35530899349935
 1  11.42947051645164 -0.42860134563456  1.28898942064206
 1  12.93673018101810 -1.76294017301730 -0.72269571237124
 1  12.58195851245124 -0.20029730263026 -1.54481780028003
 1  13.79810084558456  1.08134853065307  0.37166234033403
 1  13.98822365786579 -0.66573952795280  1.04968454465447
 1  15.22354385178518  0.02157535733573 -1.62455910571057
 1  15.00319571457146 -2.21881016481648 -1.21462548304830
 1  16.60984772107211 -1.98970480998100 -0.89731112371237
 1  15.32519523712371 -1.96910652925292  0.76008871017102
 1  16.00930812241224  1.62058514721472  0.19915375897590
 1  16.28893521622162  0.11220502960296  1.33329532633263
 1  18.39404548184818 -0.31323980258026 -0.01810649534953
 1  17.68335106050605  0.75657862096210 -1.30686799139914
 1  17.91756346224622  2.82465119281928  0.22003849884989
 1  18.57124013821382  1.52257109390939  1.49036029162916
 1  20.32632086188619  0.65353608730873 -0.41907897079708
 1  19.95794849204920  3.24330646274627 -1.66458143234324
 1  21.06229474667467  1.96798240204020 -1.90253557695770
 1  19.30574881068107  1.73484352095209 -2.17495267646765
 1  20.94809982308231  2.17650720102010  1.77462138993899
 1  21.95144898659866  2.69655777237724  0.45829772957296
 1  20.49621728442844  3.60489015951595  0.86085869026903
 1 -7.03986776927693  1.88489276127613  0.46399965676568
 1 -7.33430479707971 -0.24315919151915 -0.00240356055606

