%nproc=4
%Mem=2GB
# td=(NStates=1) B3LYP/SVP 

TD

0 1
 6 -5.16393924442444 -1.91726153215321  0.42606123122312
 6 -4.65414157235724  2.69411964096410  1.30642731883188
 6 -9.28934817841784  3.49711590789079 -0.18065268146815
 6 -9.78689054015402 -1.21155274987499 -1.05719186458646
 7 -5.11052780078008  0.32472893399340  0.90158761676168
 6 -4.48677677527753 -0.87131611521152  0.82327841344134
 6 -3.04383613731373 -0.67119760326033  1.26060931033103
 6 -2.95871002340234  0.85835095269527  1.70142464786479
 6 -4.34337929602960  1.34671171657166  1.32090400180018
 6 -2.84308080598060  0.96698499949995  3.33129298729873
 6 -2.02144748754875 -1.02877789188919  0.08314492219222
 6 -0.56313470157016 -1.21137999279928  0.58048581368137
 6  0.38298280418042 -1.60668758605861 -0.58974483168317
 8  0.17468720462046 -2.08530822072207 -1.55903835843584
 8  1.62284735993599 -1.12237865636564 -0.15136012801280
 7 -6.94927810881088  2.82639738163816  0.38424901890189
 6 -5.85523970497050  3.38285501800180  0.93480760616062
 6 -6.07846911941194  4.79584766856686  1.04185573727373
 6 -7.29769283378338  5.07798912191219  0.51102633273327
 6 -7.94455990639064  3.82039063796380  0.22589392569257
 6 -4.95634479087909  5.77195097749775  1.42366837073707
 6 -7.86433302150215  6.35139485718572  0.42211726602660
 6 -9.01961948474847  6.74698398899890 -0.28547716401640
 7 -9.08400179947995  1.04103257785779 -0.56406338173817
 6 -9.82423420082008  2.25064836653665 -0.50888969966997
 6 -11.24419065706571  2.12923656315632 -0.94557862916292
 6 -11.39687512801280  0.82005604700470 -1.18465852745275
 6 -10.08071477987799  0.10807375797580 -0.93289677007701
 6 -12.21173537073707  3.12263483258326 -0.93554798389839
 6 -12.62648274567457 -0.04623372177218 -1.61396363136314
 6 -12.97538200780078 -0.18732337873787 -3.06170335473547
 7 -7.53480660636064 -1.14950926542654 -0.23269961506151
 6 -8.59647563306331 -1.86916353055306 -0.75941286968697
 6 -8.27942154935494 -3.27994259575958 -0.74343808230823
 6 -6.98249027722772 -3.31859774407441 -0.31754385968597
 6 -6.48104664426443 -2.01767356645665 -0.00131797769777
 6 -9.26617060216022 -4.43417681768177 -0.96634914171417
 6 -5.92766888838884 -4.39269449634964  0.05751842144214
 8 -5.88646050215022 -5.60237674637464  0.02202912331233
 6 -4.58024362896290 -3.41183829652965  0.39593484308431
 6 -4.07719013381338 -3.85960965616562  1.73241512681268
 8 -4.17534014571457 -3.42887384328433  2.85861632563256
 8 -3.25692820852085 -4.94732501380138  1.50927667066707
 6 -2.71638516881688 -5.54147505280528  2.73860033033303
 6  2.66203624702470 -1.31098978957896 -1.11145535083508
 6  3.93891800160016 -0.88720334373437 -0.50218683188319
 6  4.96883918411841 -0.23151410381038 -1.17401280588059
 6  4.89051956215622  0.23595743744374 -2.65761830083008
 6  6.20421413351335  0.06085871417142 -0.52863432653265
 6  7.42000622782278 -0.69858919201920 -1.02825017841784
 6  8.78566204320432 -0.27433264016402 -0.22346722662266
 6  10.00226208090809 -0.78080256285629 -0.85305628552855
 6  10.13069686308631 -2.40534570037004 -0.96885099979998
 6  11.23827450205020 -0.23640331093109 -0.03474594259426
 6  12.68410699529953 -0.57163564196420 -0.56614449164916
 6  13.82777918511851  0.02231952885289  0.20306666926693
 6  15.25660748184818 -0.09926296209621 -0.36154999079908
 6  15.69996732433243 -1.56353051495149 -0.59373910941094
 6  16.22901549874988  0.81078198939894  0.53734699909991
 6  17.61636847554755  1.08196393029303 -0.06475098289829
 6  18.55488533953395  1.90431905090509  0.78147684058406
 6  20.03805370127013  2.01657728302830  0.26780954135414
 6  20.08949987948795  2.59822925412541 -1.20831724072407
 6  20.91791225682568  2.83483721982198  1.20140654135414
 1 -4.11159932753275  3.41327771207121  1.92821505980598
 1 -9.74909249424942  4.35121455795580 -0.35297397129713
 1 -10.78002634253425 -1.91690770077008 -1.39166906080608
 1 -2.65945199669967 -1.20268063216322  2.15419721442144
 1 -2.09945051265127  1.31551150225023  1.16118561696170
 1 -1.93039055495549  0.52382980468047  3.55733245854585
 1 -2.97380068036804  1.88898354195420  3.79661876307631
 1 -3.50193077247725  0.21365206750675  3.63895274097410
 1 -2.35376483038304 -1.88914279197920 -0.57882473877388
 1 -2.13590952955296 -0.16001852755275 -0.65785444614461
 1 -0.28617294069407 -0.13205908000800  0.80082611311131
 1 -0.40763377627763 -2.08590777077708  1.39298641764176
 1 -3.94086874427443  5.63623176077608  0.82399553755376
 1 -5.34705592439244  6.77561267996800  1.51414701170117
 1 -4.59656143314331  5.57766761616162  2.40824188478848
 1 -7.45597569646965  7.20716775047505  1.01466277257726
 1 -9.32432782558256  5.98690667616762 -0.84920431643164
 1 -9.38249252845285  7.75214049934994 -0.36838654275428
 1 -12.56350089748975  3.59441994049405  0.07864546594659
 1 -12.02878180048005  3.90640560526053 -1.72502972047205
 1 -13.21491889188919  2.78620423862386 -1.13989703660366
 1 -12.36346117201720 -1.11398152445245 -1.15570014381438
 1 -13.68411915421542  0.50632029342934 -1.13225690299030
 1 -12.98595311031103  0.98752576767677 -3.42283112651265
 1 -11.94650085778578 -0.72440183658366 -3.74817561426143
 1 -13.90471854505451 -0.78346570467047 -3.23154701340134
 1 -9.74932247904790 -4.86511860376038 -0.00224602850285
 1 -9.97909982018202 -4.26910392389239 -1.84125464606461
 1 -8.65633733923393 -5.35954673457346 -1.43758841234123
 1 -3.84755048234824 -3.61602895419542 -0.44761782158216
 1 -2.52481934993499 -6.75142174587459  2.47672337633763
 1 -1.84262083378338 -4.94469420842084  3.10913536383638
 1 -3.43814486988699 -5.67384438443844  3.45403692389239
 1  2.76457824962496 -2.31702844394439 -1.70191732503250
 1  2.47854969786979 -0.80177161516152 -2.01363898319832
 1  4.10535197109711 -1.27288535903590  0.42991203560356
 1  5.19144440894089  1.23299099689969 -2.70636322372237
 1  5.60356732053205 -0.19792383718372 -3.34630769786979
 1  3.87335382058206  0.19619242514251 -3.03041839873987
 1  6.51316141324132  1.26973011691169 -0.58057325772577
 1  6.37622544834483  0.05171958665867  0.69402909700970
 1  7.28347900100010 -1.96476052145215 -0.87686253235324
 1  7.66411616271627 -0.53035753115312 -2.14377323502350
 1  8.77954239583958  0.87055490699070 -0.14944368586859
 1  8.61322405230523 -0.69767685468547  0.90592344524452
 1  10.08994585988599 -0.44060386208621 -1.92046276917692
 1  9.31416860446045 -2.92138080088009 -1.48613783928393
 1  11.07370423142314 -2.33339501590159 -1.66666241184118
 1  10.45126356815682 -2.72775465296530  0.06262274077408
 1  11.37639182928293  0.96184380818082  0.09231269386939
 1  10.91882945234523 -0.67156564206421  0.91400192189219
 1  12.70381688968897 -1.79427330633063 -0.79993343614361
 1  12.54317463406340 -0.04374164706471 -1.53604692319232
 1  13.65017605310531  1.10019041484148  0.30447562166217
 1  13.79666450195020 -0.32755570957096  1.15421499769977
 1  15.31439293669367  0.36441964176418 -1.50534718451845
 1  15.18811420642064 -2.00208849264926 -1.31506552705271
 1  16.64265100140014 -1.43917975747575 -1.02230362296230
 1  15.82540525812581 -2.19150876947695  0.27979068036804
 1  15.55335252685268  1.72533562226223  1.11253509710971
 1  16.37462378507851  0.24796860596060  1.50799279607961
 1  18.02565864316432  0.00226174757476 -0.13749843454345
 1  17.37971069646965  1.55975893899390 -1.01965927052705
 1  18.07234894079408  2.94194292199220  0.73521001600160
 1  18.47211022522252  1.68800763756376  1.70450170577058
 1  20.67494572437244  1.15605633933393  0.23399633673367
 1  19.45527822502250  3.57154928702870 -1.29314428862886
 1  21.03454197139714  2.88894449824982 -1.66930225362536
 1  19.52504073987399  1.88481851845185 -1.85602078327833
 1  21.11554656775678  2.42450200050005  2.15548947674767
 1  21.89548339003900  2.87242535913591  0.43973587338734
 1  20.58698636133613  3.95845551605160  1.26661926632663
 1 -7.15346912941294  1.68937320932093  0.25107836463646
 1 -7.26974834143414 -0.06565144074407 -0.19864318451845

