%nproc=4
%Mem=2GB
# td=(NStates=1) B3LYP/SVP 

TD

0 1
 6 -5.16307915841584 -2.02150195619562  0.41868049314932
 6 -4.66250240844084  2.59956018501850  1.50502717881788
 6 -9.22380162376238  3.46310250655065 -0.29820443664366
 6 -9.91767361846185 -1.35359695429543 -0.96782292769277
 7 -5.15635238323832  0.31850831193119  0.87168462646265
 6 -4.46687478507851 -0.88409739333933  0.83029911551155
 6 -3.12600435413541 -0.68546903040304  1.35003825322532
 6 -3.14275842824282  0.71002612021202  1.93836834223422
 6 -4.40045500360036  1.29567661306131  1.39201111251125
 6 -3.07854435233523  0.66170447144714  3.49913977197720
 6 -2.07936327912791 -0.85349036313631  0.14090069776978
 6 -0.60209859795980 -0.78008686348635  0.66000376547655
 6  0.33372787868787 -1.24673159045905 -0.42898875607561
 8  0.04012374827483 -1.72682237213721 -1.52752520712071
 8  1.58996407160716 -0.81701812031203 -0.16305129712971
 7 -6.90213339433943  2.75340008190819  0.47953854785479
 6 -5.78750293129313  3.34011074357436  0.98875300070007
 6 -6.09267053955396  4.72871095489549  1.08431998369837
 6 -7.28232129662966  5.02454377737774  0.55452068216822
 6 -7.93611906230623  3.74674327322732  0.22619395569557
 6 -5.10232938933893  5.74276805920592  1.48703470737074
 6 -7.92594918311831  6.33457317501750  0.42166722102210
 6 -8.83659118191819  6.64989428002800 -0.56626524282428
 7 -9.15887928722872  1.04275274987499 -0.48155513091309
 6 -9.77320909830983  2.19343264496450 -0.58395720642064
 6 -11.09054529252925  2.00942458195820 -1.11663573487349
 6 -11.33357879837984  0.77089113051305 -1.37841790339034
 6 -10.14902161056106  0.09570252085208 -0.87723120352035
 6 -12.05392959015902  3.17654022312231 -1.36329075817582
 6 -12.60331042844284  0.15338624022402 -1.77017925292529
 6 -12.71981645124512 -0.27838248464846 -3.21010819521952
 7 -7.60542366806681 -1.30631494599460 -0.15268161326133
 6 -8.69181516701670 -2.05857247144714 -0.64724165256526
 6 -8.34423803100310 -3.45651025252525 -0.68571230973097
 6 -7.00916294449445 -3.47851373567357 -0.31770387568757
 6 -6.57774631423142 -2.05493729282928  0.01750390449045
 6 -9.29611359645964 -4.58955235523552 -1.01786429322932
 6 -5.88144426592659 -4.35976120302030  0.05612828242824
 8 -5.93142499859986 -5.53037954665467  0.02200912131213
 6 -4.63715932053205 -3.36918403110311  0.50055530513051
 6 -4.06580899569957 -3.92639633483348  1.79449133443344
 8 -4.19393200490049 -3.50085104100410  2.89056952095209
 8 -3.22194471017102 -4.99927020832083  1.43229897289729
 6 -2.67210074037404 -5.69378028332833  2.54679114941494
 6  2.68331837523752 -1.00698938953895 -1.17524172947295
 6  3.85792990279028 -0.65983060646065 -0.55039165236524
 6  4.99268156835684 -0.05541649404941 -1.04262966756676
 6  4.93643415361536  0.55523936563656 -2.43152569156916
 6  6.25544925702570  0.25365799409941 -0.22752421552155
 6  7.48797302450245 -0.59434876797680 -0.82780013341334
 6  8.85362883988399 -0.22042724962496 -0.10631551145114
 6  10.06047790249025 -0.70071455405541 -0.77103808370837
 6  10.10429422282228 -2.22435760156016 -1.00302441714171
 6  11.30004067866787 -0.13095276587659 -0.14332680068007
 6  12.64894347894790 -0.41417989638964 -0.64726260346035
 6  13.88711511871187  0.08363566046605  0.20968733133313
 6  15.27898972007201 -0.10102313811381 -0.31493532933293
 6  15.73626095369537 -1.55016917881788 -0.26683641914191
 6  16.26947954515452  0.75069598079808  0.44140740514051
 6  17.69420625932593  0.78599433333333 -0.27857236503650
 6  18.57071692269227  1.77283590259026  0.52648134103410
 6  20.05593548944895  1.80691631693169  0.04308706910691
 6  20.28246917641764  2.31528095929593 -1.45432184118412
 6  20.92321278687869  2.64311804790479  0.95015141584158
 1 -3.89000716831683  3.14870125442544  1.98943118141814
 1 -9.79759734473447  4.43031246774677 -0.42031070497050
 1 -10.60521886178618 -1.99897590759076 -1.38045793969397
 1 -2.73627967946795 -1.34572493659366  2.13174496919692
 1 -2.09966053365336  1.04891484258426  1.57383688208821
 1 -2.18565608150815  0.42542996469647  3.97658438373837
 1 -3.32715601590159  1.61983662726273  3.79498860006001
 1 -3.77607818721872  0.01307200950095  4.01979082478248
 1 -2.37175662956296 -1.75824970267027 -0.18337519381938
 1 -2.37263320192019 -0.13629615531553 -0.65966462716272
 1 -0.38460278367837  0.16142026792679  1.20390642114211
 1 -0.61685469836984 -1.66949612961296  1.47574469346935
 1 -4.23013767116712  5.63825196279628  0.75287842584258
 1 -5.56896811561156  6.81132625132513  1.48197379437944
 1 -4.51113289028903  5.48258810821082  2.45889695029503
 1 -7.39399949884989  7.10940797449745  1.09146045234523
 1 -9.15519091189119  5.91916990249025 -1.32207160316032
 1 -9.18371265046505  7.78213349864986 -0.55662536663666
 1 -11.99564411181118  4.02925342384238 -0.52504490309031
 1 -11.96940586288629  3.72996796149615 -2.45525274277428
 1 -13.08777617761776  2.72313793199320 -1.33189623652365
 1 -12.79729455535554 -0.94544467076708 -1.25288986278628
 1 -13.43166390869087  0.73915357675768 -1.55801947924793
 1 -12.48725324032403  0.53057007210721 -4.00094893829383
 1 -11.93854006170617 -1.19439883628363 -3.44833563026303
 1 -13.65118319151915 -0.76500385848585 -3.53958781748175
 1 -9.96046359315932 -4.69292138403840 -0.19397520142014
 1 -9.80532244244424 -4.53018003150315 -1.97577809840984
 1 -8.49596130163016 -5.62680346024603 -0.95830048354835
 1 -3.88377410471047 -3.67579493079308 -0.09991305110511
 1 -1.90684755275528 -6.30152675637564  2.31184688868887
 1 -2.28100467216722 -5.08729846884688  3.41930638093809
 1 -3.53486454185419 -6.33332033203320  3.05085660586059
 1  2.58627041884188 -2.13781052215222 -1.32480961426143
 1  2.33012485538554 -0.60123156115612 -2.19116673597360
 1  4.00103153905391 -1.12447051755176  0.50689973437344
 1  5.21368663316332  1.62776047384738 -2.40718330573057
 1  5.63211017481748  0.10854680988099 -3.32299536663666
 1  3.84004048924893  0.51594440034003 -2.88278363526353
 1  6.33540363746375  1.38800194409441 -0.06029122952295
 1  6.03135096089609 -0.28354393969397  0.85252494659466
 1  7.30782143524352 -1.60470451585158 -0.70890573667367
 1  7.45530528162816 -0.35697019241924 -1.83191204890489
 1  8.88707314891489  0.87523537503750  0.03471472997300
 1  9.00398312821282 -0.68455554255426  0.94425727862786
 1  9.86390325562556 -0.28383818551855 -1.64464518741874
 1  9.31041822942294 -2.71133979677968 -1.64703392889289
 1  11.04158101910191 -2.71308298469847 -1.55499124472447
 1  10.05416385818582 -2.80252212971297 -0.11140466196620
 1  11.29617380748075  0.95604322812281  0.10482394499450
 1  11.30955852525253 -0.38456694219422  1.08675919761976
 1  12.90425693369337 -1.40064394339434 -0.74356779957996
 1  12.72323263986399  0.15650837793779 -1.77626094459446
 1  13.76555759125913  1.23699409520952  0.26629180328033
 1  13.83069790529053 -0.25081803580358  1.22553212941294
 1  15.36001749914992  0.17665086488649 -1.20395704550455
 1  15.20081547654766 -2.41988027182718 -0.80990501100110
 1  16.86385312161216 -1.72723856335634 -0.53176456905691
 1  15.68663138073807 -2.02412203080308  0.73401610291029
 1  15.86894408600860  1.82099518821882  0.43088693229323
 1  16.58848517121712  0.15061887098710  1.42908490529053
 1  18.08474455175518 -0.16788526712671 -0.13770845554555
 1  17.67749047444745  1.05561852495250 -1.49167647224722
 1  18.42690439633963  2.91061978967897  0.48256475147515
 1  18.45430844504451  1.58916775357536  1.61677293289329
 1  20.43253148294830  0.61090182388239 -0.01691875477548
 1  19.83729642684268  3.26447857995800 -1.54762973717372
 1  21.35335385258526  2.36506211001100 -1.84914023742374
 1  19.97251548734873  1.71293132973297 -2.16544172537254
 1  21.06458147124713  2.19397894819482  2.04829875767577
 1  22.06013985568557  2.72766088268827  0.59919181898190
 1  20.54828249094910  3.62004167466747  0.98301090549055
 1 -7.28534231673167  1.83059733173317  0.30035329212921
 1 -7.60622198879888 -0.20818569416942 -0.09970329052905

