%nproc=4
%Mem=2GB
# td=(NStates=1) B3LYP/SVP 

TD

0 1
 6 -5.20453330383038 -1.88359816581658  0.30584921002100
 6 -4.82352851105111  2.78062829182918  1.54324100020002
 6 -9.33520276387639  3.35604180048005 -0.26262087828783
 6 -9.94818666976698 -1.40913250785079 -0.99529567496750
 7 -5.18500524852485  0.51806826792679  0.71781923992399
 6 -4.47668576617662 -0.70477946154615  0.76629271487149
 6 -3.10318207190719 -0.53931441494149  1.32341559095910
 6 -3.11770592299230  0.82643776137614  1.77284178957896
 6 -4.44559951805180  1.40617766316632  1.27414932633263
 6 -2.86460295819582  1.06298459945995  3.33700355835584
 6 -1.95150049284928 -0.96426144024402  0.22684929262926
 6 -0.49173756185619 -0.75156401120112  0.62358012311231
 6  0.41067557345735 -1.14627154445445 -0.52758861606161
 8  0.08288802470247 -1.61457114701470 -1.59119157375738
 8  1.67874294949495 -0.76494291279128 -0.19363435543554
 7 -7.13014619561956  2.77398214011401  0.60273086708671
 6 -5.99312349334934  3.36941367386739  1.09695382078208
 6 -6.25494676717672  4.81614969876988  1.15466701840184
 6 -7.57142020652065  4.99702102510251  0.63755898599860
 6 -8.15941139153916  3.67021562046205  0.27772910921092
 6 -5.23526268266827  5.76142992539254  1.49753575747575
 6 -8.15379196739674  6.32589230693069  0.44134918921892
 6 -9.02461998479848  6.76207549814982 -0.57421603790379
 7 -9.30999439873987  0.88760723532353 -0.50625760116012
 6 -9.90684246164616  2.06495979767977 -0.48297710841084
 6 -11.29518575657566  1.85747938743874 -0.90629470077008
 6 -11.50217565806581  0.55435947734773 -1.23424348594859
 6 -10.10530723912391 -0.07046409580958 -0.89045252565257
 6 -12.31574577177718  3.00036260536054 -1.01944637373737
 6 -12.78646874427443 -0.12709180758076 -1.66443867886789
 6 -12.78833330293029 -0.41132577897790 -3.09884706910691
 7 -7.57354047974798 -1.25680999549955 -0.23462980808081
 6 -8.68716470197020 -1.96463307750775 -0.61821875027503
 6 -8.32755636283628 -3.39215381688169 -0.62831657015702
 6 -7.00074210241024 -3.44431031533153 -0.33862596789679
 6 -6.51612015161516 -2.09308110721072 -0.04659250515051
 6 -9.17382136723672 -4.55874927492749 -1.00956346314631
 6 -5.83238936043604 -4.32322754965497  0.00165283488349
 8 -5.72492434853485 -5.50664717341734  0.02779970037004
 6 -4.67909351395140 -3.28555566826683  0.38825407500750
 6 -3.92937535233523 -3.71438513371337  1.63328521382138
 8 -3.99755236693669 -3.30355131103110  2.76260672467247
 8 -3.09614212991299 -4.76847712901290  1.38981472447245
 6 -2.55777930823082 -5.48409931523152  2.46133260356036
 6  2.74532457585759 -1.19481817241724 -1.20973517881788
 6  4.05732984278428 -0.82601722512251 -0.62805941914191
 6  5.08150045024502 -0.11230218261826 -1.16360176477648
 6  4.96940745094509  0.45874971667167 -2.61748428742874
 6  6.35442915501550  0.20329295759576 -0.34128559165917
 6  7.63054728192819 -0.35606493959396 -1.03141049444944
 6  8.88194167116712 -0.20141534843484 -0.07075195509551
 6  10.26139799449945 -0.76279076167617 -0.70555153505351
 6  10.30316410981098 -2.28845401120112 -0.83075719041904
 6  11.50159083368337 -0.33231290189019  0.17650518251825
 6  12.73892247684769 -0.66684516291629 -0.55592346954695
 6  13.90533694089409 -0.10600330343034  0.25272163476348
 6  15.25765758685868 -0.23425646144614 -0.32527636343634
 6  15.71802913051305 -1.66574073597360 -0.44957469296930
 6  16.27340993819382  0.65231614281428  0.46903016741674
 6  17.76438327702770  0.72383811771177 -0.21528603640364
 6  18.61637148814881  1.66870548954896  0.66318501140114
 6  20.12417231313131  1.69390501580158  0.00999375977598
 6  20.10797172667267  2.24082351355136 -1.33837024602460
 6  20.85866633223322  2.65168890499050  1.08765516621662
 1 -4.18098626622662  3.46493287758776  2.04295653395340
 1 -10.02198978397840  4.32210164666467 -0.43295196909691
 1 -10.77548588848885 -2.01993800380038 -1.33195308920892
 1 -2.95302135363536 -1.35631599569957  2.13546534123412
 1 -2.51843241084108  1.59242919401940  1.15516501490149
 1 -1.64644216011601  0.61541896359636  3.65838256355635
 1 -2.86395969626963  2.11278592219222  3.65546464766477
 1 -3.68948952835284  0.46937764006401  3.79257810351035
 1 -1.99114856875688 -2.09156303400340 -0.39995685198520
 1 -2.10914685328533 -0.21430395609561 -0.50273893459346
 1 -0.30269459285929  0.16607073297330  1.07847387788779
 1 -0.41787480038004 -1.50157933793379  1.39362648164816
 1 -4.30149480688069  5.90128826642664  0.86831996999700
 1 -5.72826404520452  6.69778489718972  1.59134473147315
 1 -4.75394717171717  5.60390023942394  2.47216827742774
 1 -7.76648674757476  7.17557459115911  1.12825413171317
 1 -9.42991838463846  6.18052603810381 -1.26177557355736
 1 -9.35318959815982  7.75637092239224 -0.56979668376838
 1 -12.24696924432443  3.78555905440544 -0.12744514311431
 1 -12.13441236353635  3.55027999269927 -1.92335955345535
 1 -13.20659805980598  2.56536215441544 -1.15859890679068
 1 -12.69244407030703 -1.22761288758876 -1.30621519531953
 1 -13.88244898719872  0.27665732713271 -1.48654233153315
 1 -12.89601411641164  0.38845586068607 -3.83123196659666
 1 -12.04328053575358 -0.97715711211121 -3.63492428912891
 1 -13.64410248344835 -1.03479083718372 -3.37629148784878
 1 -9.96371391819182 -4.61369346124612 -0.34283008690869
 1 -9.64339624982498 -4.62292930643064 -1.96538705930593
 1 -8.64394610011001 -5.45414619451945 -0.93027768126813
 1 -3.91720744804480 -3.57041439273927 -0.43417647744774
 1 -2.10906777477748 -6.39707631133113  1.82321802580258
 1 -1.87621419311931 -4.87341708070807  3.10062451275128
 1 -3.21488254365437 -5.70307730773077  3.36083760396040
 1  2.45642743454345 -2.32104884598460 -1.41254838813881
 1  2.57282912581258 -0.51032247024702 -2.10864848414841
 1  4.24589602550255 -1.34371244174417  0.28526757115712
 1  5.60876614111411  1.40110780858086 -2.74466705410541
 1  5.51590855465547 -0.12851689648965 -3.37253032013201
 1  3.91111759695970  0.67097990389039 -2.91048640554055
 1  6.42361245834583  1.24516766066607 -0.18822402280228
 1  6.34419224502450 -0.28909449474947  0.73928362246225
 1  7.31860251335134 -1.41720576597660 -1.25961080718072
 1  7.78567831893189  0.06235173977398 -2.16802566026603
 1  9.11137557915792  0.78549640114011 -0.00841958345835
 1  8.55107783768377 -0.70089717671767  0.88870172307231
 1  10.21895876117612 -0.37250705240524 -1.75384610751075
 1  9.55642282988299 -2.70296895969597 -1.24486371187119
 1  11.27199406040604 -2.56019769616962 -1.04974071967197
 1  10.33816225802580 -2.64794667216722  0.07523400190019
 1  11.36317050715071  0.76802442624262  0.20321378397840
 1  11.49168673807381 -0.69544803030303  1.22645316701670
 1  12.89633614161416 -1.68101198019802 -0.51126456925693
 1  12.81058137473747 -0.24744201710171 -1.59120243874387
 1  13.63293432893289  1.07031742754275  0.51737691179118
 1  13.91330616611661 -0.49770272427243  1.32657223342334
 1  15.43637513491349  0.22927612741274 -1.23671032083208
 1  14.83348874387439 -2.20377866166617 -1.20886490699070
 1  16.67130386668667 -1.67604344384438 -0.76411780438044
 1  15.82448516611661 -2.20806042464246  0.51447414871487
 1  16.11399859145915  1.80571366006601  0.49443328692869
 1  16.38625494819482  0.19733354245425  1.61010300710071
 1  18.20837691499150 -0.29088756735674 -0.34109879457946
 1  17.61653437883788  1.21391435453545 -1.12773007760776
 1  18.39135084098410  2.77316604430443  0.62205870087009
 1  18.51610462466247  1.39813865066507  1.60602185778578
 1  20.55820405020502  0.61605233893389  0.29424236133613
 1  19.64180687788779  3.30160229232923 -1.34876985118512
 1  21.07129564676467  2.23630923472347 -1.66832215561556
 1  19.27132536833683  1.39983001960196 -1.88751393259326
 1  20.81434644774478  2.35706525682568  2.09388331613161
 1  21.95882972467247  2.80932904950495  0.94439633943394
 1  20.39257692039204  3.60572024252425  1.23571617601760
 1 -7.23021680418042  1.75407967996800  0.68165142194219
 1 -7.50149151575158 -0.26989186478648 -0.32235555575558

