%nproc=4
%Mem=2GB
# td=(NStates=1) B3LYP/SVP 

TD

0 1
 6 -5.16089894039404 -1.92252205820582  0.48814743984398
 6 -4.73449960816082  2.81706193519352  1.52097877397740
 6 -9.32352159575958  3.37095329162916 -0.26887150335034
 6 -9.78954080518052 -1.40530212481248 -0.83286943234323
 7 -5.18366511451145  0.49512597369737  0.70857831583158
 6 -4.56303440104010 -0.75523450705070  0.87857394299430
 6 -3.13142489618962 -0.68449893339334  1.41216446584658
 6 -3.07814196659666  0.84611972957296  1.81776628202820
 6 -4.35594055215522  1.41180822622262  1.24960687208721
 6 -2.98538503640364  0.97351565256526  3.35805566356636
 6 -2.13868921172117 -0.87514252835284  0.15484209190919
 6 -0.66259464756476 -0.65132398719872  0.53562132723272
 6  0.37110161606161 -1.09636655395540 -0.55807166436644
 8 -0.00170043414341 -1.50826051595159 -1.67510996559656
 8  1.54489956515652 -0.68440485898590 -0.31446643864386
 7 -6.94822800380038  2.75442018391839  0.51830242424242
 6 -5.85899008000800  3.41548828132813  1.12334646004600
 6 -6.22013328582858  4.86138422222222  1.07913946564656
 6 -7.40140320482048  5.06367769076908  0.48599382948295
 6 -8.04269972037204  3.75501410031003  0.19090042634263
 6 -5.19236839323932  5.82068585098510  1.58604460836084
 6 -8.01169775797580  6.35605532323232  0.30560561486149
 6 -8.99091661446145  6.74812410301030 -0.54916353265327
 7 -9.16896029532953  0.98393686828683 -0.41681865726573
 6 -9.83187496489649  2.13578688038804 -0.52439124982498
 6 -11.20274651265126  2.00526416591659 -1.03239731103110
 6 -11.41947738823882  0.56234027542754 -1.12627268886889
 6 -10.12943965236524 -0.01011806120612 -0.69846332673267
 6 -12.14251844904491  3.09867243634363 -1.36490091919192
 6 -12.62658275567557 -0.13425252365237 -1.61741397639764
 6 -12.66549101870187 -0.33370801720172 -3.14980216461646
 7 -7.69943306900690 -1.27264157865787 -0.10951729682968
 6 -8.61769775527553 -2.05866248044804 -0.62328925732573
 6 -8.29521312851285 -3.42138674017402 -0.71954569306931
 6 -6.90897292549255 -3.37635351965197 -0.32019412471247
 6 -6.52921146074607 -2.13194499359936  0.03804595869587
 6 -9.14153813891389 -4.48403180318032 -1.07147965476548
 6 -5.84291041254125 -4.25581080798080 -0.03041037143714
 8 -5.84898675477548 -5.46514302300230 -0.17435051465147
 6 -4.57379298389839 -3.34786189888989  0.33867911751175
 6 -3.84148656345635 -3.84791848704870  1.69218110341034
 8 -3.94666727842784 -3.51290224612461  2.80538100210021
 8 -2.89089160486049 -4.78788907020702  1.39576531953195
 6 -2.33514704500450 -5.58055896119612  2.46664313461346
 6  2.61635167856786 -1.21046973757376 -1.23706791209121
 6  3.95789989978998 -0.97622224562456 -0.57088370157016
 6  4.99604190439044 -0.18004895729573 -0.95768117271727
 6  4.97501801200120  0.59335317701770 -2.31565410441044
 6  6.31973568566857 -0.16702407410741 -0.23773523662366
 6  7.52742696989699 -0.73981331443144 -0.87008436183618
 6  8.72129560656066 -0.53311851875187 -0.07298217811781
 6  10.07568942364236 -0.98539302190219 -0.60312129202920
 6  10.08905269866987 -2.52564773057306 -0.90634474917492
 6  11.25782645724572 -0.50393006360636  0.27535506750675
 6  12.71382996759676 -0.63309178757876 -0.48130600780078
 6  13.78503491069107 -0.10345304840484  0.30819718231823
 6  15.23525534663466 -0.19754279007901 -0.34976881268127
 6  15.80055738333833 -1.61660582248225 -0.47010674617462
 6  16.20525312251225  0.71576248744874  0.47680094449445
 6  17.62281912061206  0.98020375427543 -0.13571807960796
 6  18.60819067006700  1.81304992399240  0.58961765466547
 6  20.03651354725472  1.94621024632463  0.00340310071007
 6  20.06731766126613  2.66893632483248 -1.41810821982198
 6  20.99617008260826  2.71594533063306  0.88956535723572
 1 -3.95574374197420  3.31362774707471  2.02813505180518
 1 -10.19297688268827  4.18846828332833 -0.36343501740174
 1 -10.82317065696570 -2.03996000600060 -1.36998689258926
 1 -3.00606665816582 -1.24011437553755  2.32247404210421
 1 -2.32501306890689  1.34444439553955  1.18309780818082
 1 -2.19422693859386  0.20412783448345  3.73755048034803
 1 -2.82519581988199  2.00045468906891  3.74260336153615
 1 -3.73910448984899  0.55274597689769  3.89532837853785
 1 -2.20889034293429 -1.67668154585458 -0.25758261456146
 1 -2.66544248284828 -0.28227075277528 -0.61085974667467
 1 -0.46993131653165  0.35405953185319  0.89350538103810
 1 -0.36451946484648 -1.40735991599160  1.35250236923692
 1 -4.24664932233223  5.97777591519152  0.95126826482648
 1 -5.75127634643464  6.74954007270727  1.70626622362236
 1 -4.79766154315432  5.26450630003000  2.47720878147815
 1 -7.45433553245325  7.10677771147115  0.93000430673067
 1 -9.65904129692969  6.18119610511051 -1.36160555655566
 1 -9.11817609680968  7.75214049934994 -0.32769247334733
 1 -12.51983653105311  4.00802130063006 -0.69952235083508
 1 -11.97097601990199  3.61921688638864 -2.40187740524052
 1 -13.23274067406741  2.81437705590559 -1.66055910281028
 1 -12.72275710161016 -1.24242436873687 -1.21709628342834
 1 -13.62596333863386  0.30302996439644 -1.16837051435143
 1 -13.00073458845885  0.64317133223322 -3.59468831223122
 1 -11.91887809550955 -0.76338573497350 -3.60892168886889
 1 -13.66132420562056 -0.95233259135914 -3.17671152985299
 1 -10.09805735253525 -4.41841393329333 -0.58713451735174
 1 -9.34005591579158 -4.57996501000100 -2.24551507210721
 1 -8.61472317781778 -5.43975475537554 -0.93403805730573
 1 -3.77020274757476 -3.53458080938094 -0.35306836663666
 1 -1.37623449144914 -6.01581818551855  1.98523422742274
 1 -2.04364093579358 -4.88794853385339  3.37171162146215
 1 -3.23517457285729 -6.18399539953995  2.88583010321032
 1  2.33611540334033 -2.27728446954695 -1.41663879717972
 1  2.43378522142214 -0.64794623262326 -2.29333695299530
 1  3.79661109700970 -1.45800387088709  0.40119916431643
 1  5.21687695219522  1.57385508330833 -2.30100268766877
 1  5.80873783758376  0.16541249644964 -3.00260332743274
 1  4.05909239443944  0.90706351225123 -2.90467582448245
 1  6.56461655875588  0.88324146804681 -0.34915011541154
 1  6.06422424822482 -0.62019760506051  0.64643433753375
 1  7.16409706280628 -1.71607565296530 -1.11704655075508
 1  7.65131488258826 -0.70350484588459 -1.92728158585859
 1  8.76859130073007  0.57346519801980  0.11882314081408
 1  8.62298502840284 -1.09535662266227  1.06418927182718
 1  10.36932379767977 -0.35029483118312 -1.63548427132713
 1  9.29655684328433 -2.72101076387639 -1.53414263976398
 1  11.00823768476848 -2.98017969436944 -1.43846959255926
 1  9.91712015381538 -3.03692557005701 -0.02584610611061
 1  11.12344653475347  0.66382400620062  0.45261872447245
 1  11.10150772017202 -1.23681216671667  1.12876339803980
 1  12.77713422142214 -1.75112899189919 -0.59725316811681
 1  12.75216553315332 -0.40882815571557 -1.52161548004800
 1  13.73583461896190  0.97238763456346  0.26248142224222
 1  14.07333216871687 -0.79970292429243  1.19686926312631
 1  15.20650214761476  0.13874707450745 -1.45538218801880
 1  14.90302569756976 -2.10131841564156 -0.83870789128913
 1  16.65008174447445 -1.69314515401540 -0.94135552815281
 1  16.01461417901790 -2.13402302090209  0.47831053235324
 1  15.79311650325032  1.69690277897790  0.44897874147415
 1  16.21312763546355  0.27546135523552  1.38774077087709
 1  18.05834191149115 -0.08159663826383 -0.17430211491149
 1  17.52403512891289  1.17453041614161 -1.21777908250825
 1  18.21104281018102  2.91641036873687  0.66928342334233
 1  18.58616163036304  1.71656049284928  1.70007126272627
 1  20.40448867866787  0.88458919261926 -0.12177924082408
 1  19.99189188638864  3.80661279337934 -1.59629460366037
 1  21.27429594679468  2.43765936973697 -2.18303362676268
 1  19.15334357015702  2.29674971157116 -2.00180536173617
 1  20.90459547264727  2.35220477077708  1.89729365716572
 1  22.02795663736374  2.72988110471047  0.41295319511951
 1  20.66327399009901  3.81163083358336  0.84449705410541
 1 -7.21690547304730  1.70901517351735  0.36873012981298
 1 -7.54367573417342 -0.21141601720172 -0.04851817201720

