%nproc=4
%Mem=2GB
# td=(NStates=1) B3LYP/SVP 

TD

0 1
 6 -5.14930778127813 -1.83986379237924  0.44928355345535
 6 -4.56747290549055  2.85917614661466  1.37207388348835
 6 -9.20657990159016  3.33645984228423 -0.26795141134113
 6 -9.85271712281228 -1.46419801440144 -0.80313645904590
 7 -5.10814756275628  0.46657311841184  0.86052351035104
 6 -4.49035713331333 -0.76471545514551  0.83070915651565
 6 -3.01361311501150 -0.63640412391239  1.23536678607861
 6 -3.05131928432843  0.84940005760576  1.91405591099110
 6 -4.33270822892289  1.43373041844184  1.30786269766977
 6 -2.94979147704770  0.88140644164416  3.44196405440544
 6 -1.94607995079508 -0.74956997109711  0.01434804250425
 6 -0.51995038313831 -0.72913176797680  0.45266303140314
 6  0.40998550445045 -0.99567648494849 -0.64812066926693
 8  0.09065880178018 -1.70022971287129 -1.59555200980098
 8  1.62783785898590 -0.57479389788979 -0.36580157215722
 7 -6.92945612661266  2.78421316321632  0.44793538753875
 6 -5.77806198719872  3.37701443394339  0.93999812521252
 6 -6.15225649814981  4.76886497029703  1.08691024272427
 6 -7.38640170467047  5.04961628462846  0.61825705580558
 6 -7.90504595499550  3.70710930983098  0.20095143144314
 6 -5.14274343074307  5.76428021042104  1.48316432033203
 6 -8.18373496169617  6.34546426412641  0.60849590389039
 6 -9.11425894869487  6.70509980058006 -0.20318893519352
 7 -9.08570196949695  0.90532900750075 -0.47644461986199
 6 -9.75126690409041  2.00092339403940 -0.53390220092009
 6 -11.12845908390839  1.86083972347235 -0.96356042734273
 6 -11.26537197769777  0.52933697509751 -1.13854391599160
 6 -10.05621232963296 -0.06765381478148 -0.87959143954395
 6 -11.95954015121512  3.03790635973597 -1.19977440654065
 6 -12.48792889028903 -0.21748084648465 -1.71996423142314
 6 -12.38487295689569 -0.67952259865987 -3.16749393379338
 7 -7.46254938063806 -1.25184949944995 -0.23962030713071
 6 -8.55143112861286 -2.06063267746775 -0.66508343674367
 6 -8.11634524172417 -3.51603620512051 -0.77550128862886
 6 -6.76829885808581 -3.46594247854786 -0.46253835913591
 6 -6.40196873647365 -2.12176397549755 -0.07395524142414
 6 -8.96946093119312 -4.63510691069107 -1.34776728352835
 6 -5.67207332883288 -4.27870309720972 -0.00603793419342
 8 -5.63408526462646 -5.51107761646165 -0.15900898049805
 6 -4.57808341294129 -3.37081419411941  0.54073932353235
 6 -4.09977239203920 -3.79227292249225  1.85858774407441
 8 -4.22179479117912 -3.24928588448845  2.92067253125313
 8 -3.29059157485749 -4.92150243154315  1.76220196319632
 6 -2.59323285358536 -5.41800270557056  2.89571604190419
 6  2.71079112251225 -0.98903759435944 -1.27024122942294
 6  4.03604771457146 -0.55667029042904 -0.61925853905391
 6  4.91141344154415  0.19681872947295 -1.24124952955296
 6  4.78431894209421  0.86356019771977 -2.55963850285029
 6  6.19945365746575  0.36280890919092 -0.44799626272627
 6  7.34901912911291 -0.43716304940494 -1.01727908130813
 6  8.65934941194119 -0.23881908880888 -0.09275415531553
 6  9.99698155285529 -0.85069955255526 -0.63193417331733
 6  9.90475426882688 -2.38105327112711 -0.82189630433043
 6  11.22378305290529 -0.35573524412441  0.18447597959796
 6  12.54149273387339 -0.67037551595160 -0.41732961016102
 6  13.62821922912291 -0.05505820892089  0.31190755335534
 6  15.06978879998000 -0.30067310311031 -0.28770260606061
 6  15.44625195279528 -1.75825998789879 -0.52736247174717
 6  16.11838443564357  0.44461537273727  0.53681694609461
 6  17.51739857855786  0.79791552545255 -0.20932544034403
 6  18.48203805480548  1.61054967396740  0.68753744664466
 6  19.89361925782578  1.73245887118712 -0.04744198379838
 6  19.92317324682469  2.45639507070707 -1.37753416241624
 6  20.81748221382138  2.38316205230523  0.93372977367737
 1 -3.70950911851185  3.48354473877388  1.83826606490649
 1 -9.70832841784178  4.11014045054505 -0.45815448934894
 1 -10.69016735663566 -2.13289929992999 -1.19900979487949
 1 -2.90785683718372 -1.50134049814982  2.00913270797080
 1 -2.00619118671867  1.44300425152515  1.63315281368137
 1 -2.04832234813481  0.31217863956396  3.52437916321632
 1 -2.84459776007601  1.88932357595760  3.63075217641764
 1 -3.92397297669767  0.29592029432943  3.80966981268127
 1 -1.99132858675868 -1.63160703840384 -0.65676253255326
 1 -2.13773971257126  0.16128360266027 -0.74732339303930
 1 -0.19034335773577  0.28068219411941  1.06089211971197
 1 -0.75252826572657 -1.48252743274327  1.23882100110011
 1 -4.51302595999600  5.95713385098510  0.61972511051105
 1 -5.58795001380138  6.86960207890789  1.59286488348835
 1 -4.72406418341834  5.67473732313231  2.38488954955496
 1 -7.72898299719972  7.14395142884288  1.42544385068507
 1 -9.28163355615562  5.90565855135514 -0.90310970697070
 1 -9.57809208840884  7.64428971427143 -0.18198790289029
 1 -11.96183073047305  3.65568606710671 -0.40285268386839
 1 -11.42713163546355  3.59333429812981 -2.07271448894889
 1 -13.10944834483448  2.90794641284128 -1.65190823772377
 1 -12.68370319621962 -0.95229535583558 -0.72342691649165
 1 -13.25826656895690  0.55466512791279 -1.69522319961996
 1 -12.77910242524252  0.24593160826083 -3.72209105250525
 1 -11.32461866956696 -0.99840923732373 -3.30828162486249
 1 -13.17290536373637 -1.54599195729573 -3.43302716141614
 1 -9.84063160996100 -4.86111820372037 -0.67908371227123
 1 -9.10743265346535 -4.09160617411741 -2.40743126372637
 1 -8.31827353285329 -5.61824260416042 -1.36335098859886
 1 -3.81015674297430 -3.68623597489749 -0.28211127092709
 1 -1.96649351735174 -6.16445304900490  2.38671437543754
 1 -1.81808838053805 -4.41816155515552  3.07665211551155
 1 -3.30304135953595 -5.54070107010701  3.98615013521352
 1  2.51212300410041 -2.26165290639064 -1.39353648694870
 1  2.60955279817982 -0.38152959095910 -2.07901552085209
 1  4.36672810871087 -1.01401947244724  0.45491453585359
 1  4.79700496499650  1.95099279707971 -2.39480206760676
 1  5.65471243504350  0.56809276447645 -3.36814988208821
 1  3.74606109130913  0.50257306320632 -3.11617697459746
 1  6.71655175227523  1.43000614451445 -0.28596379677968
 1  6.04181200700070 -0.03103868916892  0.65077477157716
 1  7.16107676077608 -1.40427447284728 -1.16141098719872
 1  7.73664341544154 -0.07637213261326 -2.08921777947795
 1  8.77473191479148  0.94381223272327  0.02635389388939
 1  8.49003173307331 -0.41841892889289  0.96406925982598
 1  10.02785965126513 -0.44593439513951 -1.78845956885689
 1  8.83567075467547 -2.75286394919492 -1.16130535603560
 1  10.85871273227323 -2.76105778217822 -1.37632337793779
 1  9.78064650645065 -2.75067694519452  0.27160363886389
 1  11.15248943904390  0.78045566936694  0.52528599119912
 1  11.26070363976398 -0.95251373687369  1.22062258395840
 1  12.70834734273427 -1.79941382038204 -0.46099954275428
 1  12.60291060766077 -0.36243351625163 -1.45702902140214
 1  13.25748678417842  1.08694909070907  0.53377855195520
 1  13.91246608210821 -0.43159611361136  1.31586116231623
 1  14.89359085648565  0.04093729352935 -1.40958760856086
 1  14.68782417741774 -2.18606689048905 -1.13422744324432
 1  16.36670340664066 -1.89454529402940 -1.30239163176318
 1  15.65062778037804 -2.27911753035304  0.42222492379238
 1  15.59528672027203  1.51740482918292  0.96964080768077
 1  16.57572389508951 -0.21463765466547  1.52718471527153
 1  17.96781285858586 -0.23581205980598 -0.49911459615962
 1  17.29433215861586  1.38193115621562 -1.17652495709571
 1  18.06468817471747  2.40444917261726  0.73193968896890
 1  18.70003301750175  1.03081191799180  1.70871212681268
 1  20.38058628842884  0.80803153685369 -0.47019408230823
 1  19.49590228742874  3.47968010011001 -1.36473144734473
 1  21.03182169936994  2.47360296409641 -1.70580590399040
 1  19.36695493129313  2.05729576617662 -2.27206238743874
 1  20.98813382648265  1.69959951025103  1.77326125392539
 1  21.71105494719472  2.50356847344734  0.46453835363536
 1  20.54863252595260  3.55198486898690  1.36384898929893
 1 -7.25223900640064  1.78673294529453  0.01545480228023
 1 -7.69717108370837 -0.43096797239724  0.27347402720272

