%nproc=4
%Mem=2GB
# td=(NStates=1) B3LYP/SVP 

TD

0 1
 6 -5.18799164966497 -1.79720952695270  0.51230985608561
 6 -4.79236539473947  2.68453868286829  1.53895057115712
 6 -9.24303354695470  3.34946114241424 -0.21169578577858
 6 -9.87829968106811 -1.39899149374938 -0.96716286168617
 7 -5.18509525752575  0.39172563366337  0.78762622062206
 6 -4.49676777437744 -0.69783876747675  0.91330741634163
 6 -3.07713946764677 -0.67704818831883  1.25523877327733
 6 -3.02848700110011  0.84872999059906  1.79158366376638
 6 -4.28314327242724  1.42654970037004  1.33298520992099
 6 -2.93121961986199  0.92423072407241  3.34603446144614
 6 -2.08414375717572 -1.01425643974397  0.18506511421142
 6 -0.67479586768677 -0.97950680548055  0.74864262936294
 6  0.30057456335634 -1.13307022432243 -0.39536539373937
 8 -0.03041330543054 -1.27707739763976 -1.52656511111111
 8  1.67182225742574 -1.07754417291729  0.02587759575958
 7 -6.94765794679468  2.70928567046705  0.52376297029703
 6 -5.93071725272527  3.33916064856486  1.06700082548255
 6 -6.22315358785879  4.72162024582458  1.21530308200820
 6 -7.45245831033103  5.04130545354535  0.69079430953095
 6 -8.01534698509851  3.72049064796480  0.27553889018902
 6 -5.10630978737874  5.81764554695470  1.58534453835384
 6 -8.04132072027203  6.30506022372237  0.34131918621862
 6 -9.00614813761376  6.75290458105811 -0.59988860516052
 7 -9.20148354765477  0.94424289888989 -0.54368134353435
 6 -9.77381915931593  2.09415271697170 -0.65257406810681
 6 -11.15290152815282  1.94922856235624 -1.15136920822082
 6 -11.31963740424042  0.67205124652465 -1.42575263686369
 6 -10.05134184258426  0.03028597919792 -0.96119960036004
 6 -12.01705590279028  3.11213378247825 -1.39817424652465
 6 -12.56165626302630 -0.05404450285029 -1.87003923892389
 6 -12.55150962056206 -0.43694834123412 -3.31702888728873
 7 -7.56326945264526 -1.23396771127113 -0.26614295939594
 6 -8.68217420292029 -2.05493210741074 -0.67641456985699
 6 -8.25190879807981 -3.44860946244624 -0.71535527402740
 6 -6.95448747694769 -3.40331621592159 -0.20972307760776
 6 -6.46688522812281 -2.05426722582258  0.13884603870387
 6 -9.09570355545554 -4.58669206920692 -1.12600510731073
 6 -5.74654077557756 -4.23958918581858 -0.11555888628863
 8 -5.73673552965297 -5.46358286698670 -0.22788586818682
 6 -4.53199880448045 -3.26556366906691  0.48493374297430
 6 -4.06810922572257 -3.87782147734774  1.81183306860686
 8 -4.28306091779178 -3.44143509940994  2.90457092109211
 8 -3.21377389308931 -4.92540282158216  1.60019576257626
 6 -2.66251978227823 -5.55485639093909  2.78769523982398
 6  2.68173821722172 -1.23947263786379 -0.92318652395240
 6  3.99315342514251 -0.87049167256726 -0.33623023622362
 6  4.96960926112611 -0.05737669006901 -0.84332973757376
 6  4.80228073827383  0.75826966866687 -2.04848738773877
 6  6.21450516261626  0.01294392269227 -0.15019648274827
 6  7.39252347954795 -0.59567890099010 -0.89291664506451
 6  8.73567704470447 -0.32937814471447 -0.23310819071907
 6  10.07135899059906 -0.78980346294629 -0.87824880478048
 6  10.09704349774977 -2.30430559635964 -0.97603171787179
 6  11.25779645424542 -0.29843951455146  0.01312884488449
 6  12.69339792439244 -0.51496997539754 -0.68850672787279
 6  13.80986739393939  0.09002629952995  0.05181154375438
 6  15.21048286938694 -0.07331036683668 -0.62849668546855
 6  15.60739806740674 -1.55664982688269 -0.66919665516552
 6  16.19689228642864  0.68448936013601  0.29011227562756
 6  17.74348118681868  0.81446718061806 -0.23416792459246
 6  18.56240609160916  1.71825044404440  0.47182587548755
 6  20.13110300620062  1.82248787408741  0.07454021442144
 6  20.27809873937394  2.40436986818682 -1.33229963896390
 6  20.96285675127513  2.58165190129013  1.04690109080908
 1 -4.00838900650065  3.45160154445445  2.01378361666167
 1 -9.83623120812081  4.23888332483248 -0.47595626952695
 1 -10.70121846174618 -2.11005701570157 -1.24057395129513
 1 -2.90954700620062 -1.49067943204320  1.87478927362736
 1 -2.11981254885489  1.45467541864186  1.46938643704370
 1 -1.98211572747275  0.68033545524552  3.80052677797780
 1 -2.91354465476548  1.87965260886089  3.74666376757676
 1 -3.94525510491049  0.52963366566657  3.79457830353035
 1 -2.27532698659866 -1.97220109780978 -0.22934979127913
 1 -2.10214615321532 -0.15575810151015 -0.47864652535254
 1 -0.52929725312531  0.05842996889689  1.12845887638764
 1 -0.60384339723972 -1.94351353135314  1.50572769176918
 1 -3.98849350675067  5.22675081268127  1.37793093109311
 1 -5.43426464526453  6.74838995769577  1.11672726972697
 1 -5.03551532853285  5.81097094649465  2.84930599119912
 1 -7.84206430533053  7.01237827152715  1.02917422372237
 1 -9.56263165596560  6.23663164866487 -1.31483087908791
 1 -9.22590686988699  7.87423270857086 -0.47262696679668
 1 -12.15506005340534  4.01282178067807 -0.56717911651165
 1 -11.67873679597960  3.64079904460446 -2.33462067956796
 1 -13.13111051105111  2.66839245744574 -1.54930797769777
 1 -12.60768559445945 -1.08519864616462 -1.21408598239824
 1 -13.45654639693969  0.46811647304731 -1.66613029032903
 1 -12.65656017101710  0.46438345344534 -4.07466631003100
 1 -11.72995920362036 -1.26097549394940 -3.68861965866587
 1 -13.59402747594759 -0.91454881298130 -3.47497135583558
 1 -9.90530807760776 -5.02855494739474 -0.35722152605261
 1 -9.32115402560256 -4.31326834033403 -2.22722324292429
 1 -8.60947265276528 -5.67008778867887 -0.99406405990599
 1 -3.66668239553955 -3.40251760306031 -0.25165822562256
 1 -1.66452332033203 -6.07691429512951  2.40003570757076
 1 -2.29090566226623 -4.66704644364436  3.63341779207921
 1 -3.24883593899390 -6.31385838583858  3.32529404960496
 1  2.73581537333733 -2.23973071417142 -1.14372150545054
 1  2.09541138403840 -0.61724316231623 -1.88540615991599
 1  4.36043747964797 -1.43052112261226  0.54797384178418
 1  4.99604486898690  1.77687538533853 -1.91234382178218
 1  5.45760272407241  0.28823477867787 -2.89651271837184
 1  3.80751723692369  0.56228903480348 -2.54075943284328
 1  6.55745584268427  1.15556870077008 -0.06389158955896
 1  6.03739156495650 -0.29032461776178  0.86626632073207
 1  7.25010566366637 -1.63373741914191 -1.21663650975098
 1  7.48206795789579 -0.15046954235424 -1.82038089578958
 1  8.92026646824682  0.80043789528953 -0.11025976747675
 1  8.62744547444745 -0.57804489148915  0.98190104300430
 1  10.13387025232523 -0.32786258795880 -1.87946866976698
 1  9.34981216881688 -2.85211387418742 -1.55649487498750
 1  11.01176803780378 -2.38778045444544 -1.49668541414141
 1  10.06148459025903 -2.99694157165717 -0.06438996049605
 1  11.11372556265627  0.65984360816082  0.10621408400840
 1  11.26029359875988 -0.71781026652665  1.08537905960596
 1  12.66706321432143 -1.66192007100710 -1.11344478727873
 1  12.61897221382138 -0.01522879577958 -1.71392471097110
 1  13.49507054255426  1.22900329612961  0.25328050215022
 1  13.81943677917792 -0.31565451945195  1.08016759295930
 1  15.23195469286929  0.27136033583358 -1.61554820462046
 1  14.95598099309931 -2.18998728252825 -1.20042406290629
 1  16.66763349964997 -1.56421226072607 -1.03741513411341
 1  15.71559427702770 -2.09696931553155  0.31622432373237
 1  15.93324051565156  1.77539062776278  0.44501834543454
 1  16.20560688338834  0.00295410451045  1.24111610841084
 1  18.09829590689069 -0.46438491709171 -0.13099778447845
 1  17.78381110651065  0.97536049914992 -1.24701200580058
 1  18.21080278617862  2.76904563226323  0.34604109910991
 1  18.34016703090309  1.47793663046305  1.56684794039404
 1  20.49091732153216  0.77196793049305  0.20174311141114
 1  19.79155185238524  3.36638877097710 -1.43834880908091
 1  21.36115463266326  2.35050065386539 -1.80033535693569
 1  19.77840607640764  1.76367640424042 -2.13383856505651
 1  20.82302731583158  1.98634818511851  2.00746467426743
 1  22.08130197189719  2.60426854345434  0.95556745654565
 1  20.52680034273428  3.60992066256626  1.12241484588459
 1 -6.90681446394639  1.61648592059206  0.51959521632163
 1 -7.53335470207021 -0.31610648624862 -0.29937325752575

