%nproc=4
%Mem=2GB
# td=(NStates=1) B3LYP/SVP 

TD

0 1
 6 -5.18617146764676 -2.13925373137314  0.43347197229723
 6 -4.50877703590359  2.64249447844785  1.60163683978398
 6 -8.96372561616162  3.49294549084909 -0.32042665886589
 6 -9.79001085218522 -1.24852644724472 -1.01517766316632
 7 -5.09253600160016  0.30649711081108  0.80167762576258
 6 -4.58803690129013 -0.87083606720672  0.86528261386139
 6 -3.21092284598460 -0.85428591209121  1.28378162756276
 6 -3.08948310071007  0.57667278487849  1.95056956235624
 6 -4.32490744884488  1.23309035443544  1.35112702410241
 6 -2.99468596649665  0.55517381838184  3.44825468346835
 6 -2.02143748654865 -1.09669468356836  0.27784439213921
 6 -0.62967135523552 -1.08428728352835  0.70794855995600
 6  0.46364086998700 -1.43689060636064 -0.27090294749475
 8  0.10640037593759 -1.85577526742674 -1.42973542814281
 8  1.71768684388439 -1.25262168066807  0.08487349534953
 7 -6.88096127712771  2.73950869276928  0.61868246224622
 6 -5.65196937793779  3.30157689018902  1.06871099649965
 6 -5.79267053955396  4.72551063486349  1.05052660436044
 6 -6.98713177767777  5.02375369836984  0.46222145224522
 6 -7.70003545394540  3.76165476437644  0.16714805110511
 6 -4.80213937033703  5.68309209160916  1.56894289818982
 6 -7.59054564276428  6.32455217291729  0.31478653295330
 6 -8.46391391419142  6.89841913251325 -0.48492710901090
 7 -9.03845724502450  1.03685215981598 -0.60376735213521
 6 -9.59302107950795  2.23650695239524 -0.62957176787679
 6 -11.01413765176518  2.16584022352235 -1.16220029132913
 6 -11.32476791729173  0.80954499589959 -1.31087114871487
 6 -10.02821953035304  0.22259521012101 -0.98808228862886
 6 -11.81132532973297  3.39078164726473 -1.51406583568357
 6 -12.55453555095510  0.16846774837484 -1.72097433243324
 6 -12.61592606220622 -0.13338798519852 -3.23649083348335
 7 -7.54967809350935 -1.22995731023102 -0.22288863396340
 6 -8.65490147564756 -1.91767838203820 -0.58102503090309
 6 -8.33189679687969 -3.30619522102210 -0.73878761726173
 6 -7.05798782698270 -3.47500338463846 -0.24394649994999
 6 -6.56078461806181 -2.11691349044904  0.16005815991599
 6 -9.32423640874087 -4.40818421842184 -1.04654716151615
 6 -5.93781990349035 -4.39191441834183 -0.11107843824382
 8 -5.81944380048005 -5.62295880458046 -0.31131421102110
 6 -4.67966357095710 -3.49154626732673  0.47474272387239
 6 -4.14574698949895 -3.96736043124312  1.72843472877288
 8 -4.29198180988099 -3.43662461836184  2.80910137413741
 8 -3.27961047674768 -4.97545782708271  1.58693443644364
 6 -2.98512204250425 -5.55499640494049  2.83839030933093
 6  2.75539558295830 -1.49750844144414 -0.89086329162916
 6  4.01158526832683 -1.05932055545555 -0.43447006020602
 6  4.79677197739774 -0.07040799319932 -0.96029143374337
 6  4.58309882008201  0.52633647534753 -2.30447298629863
 6  6.16469018111811  0.24853748204820 -0.38293975707571
 6  7.35064929212921 -0.60645997909791 -0.92047940134013
 6  8.59792326932693 -0.24343955085509 -0.18564344424442
 6  9.92429428412841 -0.75483996659666 -0.85731671157116
 6  10.02178597199720 -2.28703386918692 -0.92327644234423
 6  11.11166184078408 -0.20710038063806 -0.08068053605361
 6  12.58569715431543 -0.51714019241924 -0.58561643884388
 6  13.72383879107911  0.08241553845385  0.18181454405441
 6  15.10022184328433 -0.05692872867287 -0.41913574937494
 6  15.67171449904991 -1.60021418331833 -0.38415815131513
 6  16.04515711291129  0.89813072427243  0.38093135753575
 6  17.52894973367337  1.02828856275628 -0.17705221302130
 6  18.31842169316932  1.93472209120912  0.62000069296930
 6  19.80440033593359  2.14109973527353 -0.10509774937494
 6  19.79180010951095  2.77557698889889 -1.49685609460946
 6  20.78805927152715  2.92167590369037  0.79702610331033
 1 -3.71743991159116  3.28784516881688  1.98436067436744
 1 -9.53607119211921  4.35360479697970 -0.35868454235424
 1 -10.62475081498150 -1.94120013001300 -1.64764465836584
 1 -3.21436748824882 -1.73611397549755  2.05339713441344
 1 -2.15745631323132  1.14813476457646  1.56460595899590
 1 -2.19197671357136 -0.02353493179318  4.06313303860386
 1 -2.81469476977698  1.69428407200720  3.68300740194019
 1 -4.00757133653365  0.09436013831383  3.98021686738674
 1 -1.97172662656266 -2.10485436313631 -0.33556041234123
 1 -2.07572351095110 -0.68663118881888 -0.70442910361036
 1 -0.23238756215622 -0.02412828692869  0.98502453295330
 1 -0.44156716961696 -1.55930511051105  1.51313843284328
 1 -3.92161681908191  5.74890302790279  0.94852799079908
 1 -5.10996221502150  6.85644076277628  1.41782737973797
 1 -4.69159093609361  5.44977482688269  2.55413647424743
 1 -7.18507860676068  7.08223525722572  0.97081838813881
 1 -8.69681507430743  6.18160614611461 -1.25012440844084
 1 -8.71795607480748  7.92909819511951 -0.44126383048305
 1 -11.72712726012601  3.99797029552955 -0.62429482808281
 1 -11.48228715101510  4.02520748544854 -2.57803502100210
 1 -12.73675107510751  3.01155677387739 -1.58224127102710
 1 -12.72189701560156 -0.81752187848785 -1.17727230103010
 1 -13.53437417971797  0.71944160556056 -1.52981665896590
 1 -12.41977649264927  0.57914492959296 -3.80885972937294
 1 -11.65699190689069 -0.74577397379738 -3.71008180488049
 1 -13.37915598879888 -0.70485784388439 -3.50657451615161
 1 -10.14485203200320 -4.38098018991899 -0.29427523142314
 1 -9.76200811101110 -4.37561457495750 -2.12291281188119
 1 -8.79521122662266 -5.37985876577658 -1.21725637913791
 1 -3.87208293559356 -3.50872822412241 -0.38660171997200
 1 -2.26381324932493 -6.40780738443844  2.63939964396440
 1 -2.51326789848985 -5.03578331733173  3.70867531783178
 1 -3.87623867926793 -5.79889688968897  3.42272379257926
 1  2.86485827762776 -2.55166190729073 -0.82243937723772
 1  2.37098894179418 -1.32743418141814 -1.86777439673967
 1  4.32442387828783 -1.46711478197820  0.60022906730673
 1  4.53929919441944  1.56476417421742 -2.33431601900190
 1  5.48261522532253  0.19514546974697 -2.78828189528953
 1  3.67404388958896  0.32012481838184 -2.83640899779978
 1  6.57569766686669  1.34881802570257 -0.48753395379538
 1  5.98998682448245  0.28258267296730  0.70408010211021
 1  7.12574322742274 -1.75375942134213 -0.79521436753675
 1  7.55867561866187 -0.45158965436544 -1.97175603330333
 1  8.75196963856386  0.88191604310431 -0.08823756525653
 1  8.55721845174518 -0.53388047504750  0.87359021192119
 1  9.97289415471547 -0.29313911561156 -1.82903362626263
 1  9.24371155875588 -2.75919458225823 -1.43766299179918
 1  10.73731059205921 -2.69501117751775 -1.54689043464346
 1  10.30899934173417 -2.81955383288329  0.20174665316532
 1  11.14811900200020  1.02291991579158  0.20015347794779
 1  11.28510608000800 -0.61374986048605  0.94645516721672
 1  12.72544905290529 -1.65582946194619 -0.76418986178618
 1  12.47219753635363  0.02988571567157 -1.54888820732073
 1  13.25130616611661  0.98119851565157  0.43780895499550
 1  13.69206404190419 -0.37919087308731  1.00458003420342
 1  15.20105160256026  0.18661186098610 -1.53454010381038
 1  14.66305170017002 -2.17927621142114 -0.86425044554455
 1  16.39910664696470 -1.92173801330133 -1.01392278487849
 1  15.64188690629063 -2.21755137373737  0.60649335063506
 1  15.73402059365936  1.83922701140114  0.48874271787179
 1  16.09073539623963  0.45337914701470  1.45103710051005
 1  17.97813389068907 -0.01828030663066 -0.09030371507151
 1  17.45755848124812  1.33139610271027 -1.22040934553455
 1  17.61498320422042  2.91063979167917  0.78364485948595
 1  18.43095610981098  1.60975981278128  1.63670492609261
 1  20.19252748254826  1.08386912061206 -0.29958702160216
 1  19.45470816801680  4.01506363846385 -1.30391536573657
 1  20.85966448364836  2.87347295109511 -2.07998332173217
 1  19.10171840764076  2.35670570717072 -1.96749193039304
 1  21.15255026812681  2.53011256155616  1.78196212401240
 1  21.78827266896689  3.06404452105211  0.33145504530453
 1  20.49630729342934  3.95301497199720  1.06534913931393
 1 -7.15056883938394  1.84765903790379  0.82085534233423
 1 -7.40054142074207 -0.18872374797480 -0.19550287048705

