%nproc=4
%Mem=2GB
# td=(NStates=1) B3LYP/SVP 

TD

0 1
 6 -5.07793064356436 -1.93950375637564  0.43104172927293
 6 -4.65104126232623  2.71807203620362  1.36931360746075
 6 -9.21422066566657  3.27139333563356 -0.19146376257626
 6 -9.87921977307731 -1.47984957955796 -0.80381652705271
 7 -5.16021276927693  0.38714517561756  0.91184864286429
 6 -4.48824692229223 -0.74111309490949  0.85789187478748
 6 -2.97138889258926 -0.52376285978598  1.16808005740574
 6 -3.09103325572557  0.77739285688569  1.80910541594159
 6 -4.34712967106711  1.34666171157116  1.37675958735874
 6 -2.95053155105511  0.82102040304030  3.33507336533653
 6 -1.98265360816082 -0.80352536663666  0.08709531723172
 6 -0.58436682478248 -0.93635249004900  0.50943870897090
 6  0.43621812771277 -1.08337525482548 -0.65701155835584
 8  0.03020275617562 -1.45001469136914 -1.74539699429943
 8  1.59977505270527 -0.57103352185219 -0.33646863886389
 7 -6.92472565356536  2.81853659555956  0.59366996099610
 6 -5.78994317531753  3.48641537403740  0.95658978437844
 6 -6.13910518301830  4.82712079587959  1.05533708540854
 6 -7.52389545404541  4.96858818181818  0.58027325742574
 6 -7.90281573197320  3.54362296119612  0.25894723102310
 6 -5.22043119951995  5.84445822822282  1.46757276117612
 6 -8.11142773097310  6.18273799149915  0.38630368466847
 6 -8.94312183498350  6.48339763036304 -0.71833044934493
 7 -9.24859825912591  0.88109658425843 -0.37852482788279
 6 -9.89842161956196  2.04274757645765 -0.53890270097010
 6 -11.28649488748875  1.91313495299530 -0.89254332563256
 6 -11.40715615611561  0.50467450885089 -1.04594465606561
 6 -10.15025173357336 -0.07115416481648 -0.81496497689769
 6 -12.25010920812081  3.10019258835884 -1.11647607670767
 6 -12.62652274967497 -0.22586168456846 -1.51180341534153
 6 -12.63845831543154 -0.61219586598660 -3.00363754815482
 7 -7.50557368306831 -1.27805211971197 -0.18811515661566
 6 -8.59788577407741 -2.00309692389239 -0.53592052045205
 6 -8.17069067626763 -3.38642324382438 -0.62530626912691
 6 -6.84687671587159 -3.46183206750675 -0.06875898119812
 6 -6.44557309690969 -1.99482128122812  0.08947110121012
 6 -9.08575256035603 -4.57521092109211 -0.95472797959796
 6 -5.86320244174417 -4.35117034393439  0.01147381698170
 8 -5.72760461656166 -5.55566207490749 -0.12261534113411
 6 -4.54231983658366 -3.39946705940594  0.40666591619162
 6 -3.93771618641864 -3.90545424062406  1.59559144444444
 8 -4.14477708940894 -3.42142309820982  2.71441190519052
 8 -3.02281479717972 -4.86300658195820  1.44148989198920
 6 -2.44049758005801 -5.42942384768477  2.63174964526453
 6  2.73699374277428 -0.89348803940394 -1.26622082738274
 6  3.95147925772577 -0.48620324372437 -0.67451406460646
 6  4.94835713591359  0.17168621622162 -1.25098050265027
 6  4.77624813501350  0.66975081678168 -2.68910144914491
 6  6.24245795789579  0.51215384368437 -0.52084354745475
 6  7.37272149934994 -0.38228756185619 -1.00578793219322
 6  8.73120659765977  0.12382717581758 -0.25988086798680
 6  10.01442329702970 -0.54054853745375 -0.88226920682068
 6  9.97550134353435 -2.12148731453145 -0.87293140784078
 6  11.24478515311531 -0.06704637523752 -0.09468193619362
 6  12.64452303690369 -0.51858033643364 -0.65858373557356
 6  13.74344075127513  0.21315861276128  0.14269063166317
 6  15.17552937403740 -0.16646968276828 -0.30371420722072
 6  15.55420274787479 -1.72562672457246 -0.27560729622962
 6  16.15699829702971  0.57727863906391  0.56477974237424
 6  17.63901073977398  0.48876461036104  0.06234172637264
 6  18.57344719571957  1.55220383938394  0.73607230013001
 6  20.06266616251625  1.43269889518952  0.29226198659866
 6  20.24351528102810  1.75742517371737 -1.28292470147015
 6  20.92679314491449  2.30635437153715  1.22577897859786
 1 -3.67711587918792  3.33288967326733  1.65143738203820
 1 -9.88511609660966  4.07789722622262 -0.46560523442344
 1 -10.60309864976498 -2.27241325132513 -1.03669356325633
 1 -2.94590064156416 -1.21885224932493  2.18547034173417
 1 -2.08508907650765  1.39254920602060  1.52060155855586
 1 -2.14601211711171  0.29132655435544  3.60944767006701
 1 -3.20164346464646  1.71580622422242  3.73119222042204
 1 -3.56789736913691  0.25513621592159  3.57835668136814
 1 -2.58070752465247 -1.68218209590959 -0.61665852215222
 1 -2.06554249284929  0.13043051735174 -0.64554321502150
 1 -0.37712203560356 -0.14394026812681  1.16081211171117
 1 -0.56548956185619 -1.62174135413541  1.16419353835384
 1 -4.28849350675068  6.09020715831583  0.95582872087209
 1 -5.78281950075008  6.91575669436944  1.40960655765577
 1 -5.05740751775178  5.59510936033603  2.59878093869387
 1 -7.95265536443644  7.15883291699170  1.08022932923292
 1 -9.19971536433643  5.81259924542454 -1.51808120412041
 1 -9.38892317151715  7.54168945424542 -0.84124382848285
 1 -12.24140868826883  3.83123362186219 -0.23599599819982
 1 -11.69524844714472  3.56485144984498 -1.96168338583858
 1 -13.21714911491149  2.62028764696470 -1.38021106800680
 1 -12.71923674957496 -1.07640776707671 -0.88995356915692
 1 -13.42938368066807  0.39304896629663 -1.24286796409641
 1 -12.27185170017002  0.20351736683668 -3.63389223262326
 1 -11.88248445614562 -1.33688308470847 -3.35280607730773
 1 -13.66580465366537 -0.95626298439844 -3.28963282198220
 1 -10.32749029582958 -4.72979507140714 -0.59318512241224
 1 -9.24187609780978 -4.55472248574858 -2.13918443904390
 1 -8.79695140064007 -5.51495227512751 -0.76609126262626
 1 -3.67962368966897 -3.49587693899390 -0.36137919771977
 1 -1.43497036503650 -5.93679028272827  2.14110981498150
 1 -2.36320289198920 -4.62235197419742  3.51292574287429
 1 -3.19175023042304 -6.22910991099110  2.96959848004800
 1  2.75860765256526 -1.93103984508451 -1.53794092739274
 1  2.58883072597260 -0.24671610961096 -2.24747236653665
 1  4.10228166406641 -0.89454752525253  0.31373041744174
 1  5.11979724422442  1.82529022682268 -2.57728031543154
 1  5.30866783058306  0.20149610481048 -3.47340040714071
 1  3.72446893209321  0.70290309620962 -3.14281963886389
 1  6.60597069416942  1.63110625452545 -0.77119231963196
 1  6.13407123292329  0.28067248194819  0.56551624572457
 1  7.26674732783278 -1.44471851725173 -0.99981482758276
 1  7.67988773987399 -0.09320381578158 -2.10422928062806
 1  8.79862430403040  1.32769062056206 -0.12733147464747
 1  8.82269499939994 -0.32914000100010  0.76748960186019
 1  10.13057992329233 -0.35868567026703 -2.01339206210621
 1  9.39869705730573 -2.50285894869487 -1.53153237873787
 1  10.97634449544955 -2.75015669206921 -1.07158290389039
 1  9.73352179397940 -2.51863374087409  0.03349982848285
 1  11.29360355045504  1.02267989178918  0.13764722732273
 1  11.24140170957096 -0.70799928542854  0.91681220292029
 1  12.88757526552655 -1.70109398839884 -0.61309475227523
 1  12.83700401700170 -0.11537881078108 -1.71805512401240
 1  13.63251428692869  1.33286368216822  0.24143931803180
 1  13.73100793629363 -0.01430438443844  1.15993556975698
 1  15.37141863926393  0.11123432323232 -1.39155580538054
 1  14.80763615861586 -2.23960224402440 -0.92365638613861
 1  16.44678141444145 -1.89585542504250 -0.78156954955496
 1  15.53626634423442 -2.08403802240224  0.54752745404540
 1  15.92053924552455  1.70907399609961  0.58362220582058
 1  16.02098842154216  0.33546735583558  1.74332632943294
 1  18.25678175547555 -0.29558803740374  0.00825614091409
 1  17.78471119651965  0.75309827292729 -0.97056436103610
 1  18.17454916081608  2.73939266696670  0.63354984998500
 1  18.43372638683869  1.47372620942094  1.97406866246625
 1  20.25691392119212  0.44919565326533  0.38083102020202
 1  20.08308100530053  2.92022415451545 -1.34348932313231
 1  21.33004152135213  1.58963456725672 -1.69347467086709
 1  19.71075931173117  1.00471050765077 -1.92043722492249
 1  20.89285429852985  2.08131768206821  2.35084901270127
 1  21.91524536623662  2.26678479507951  1.04421632143214
 1  20.50259792249225  3.34162383288329  1.36485909030903
 1 -6.96308009050905  1.72414668666867  0.64025728252825
 1 -7.64853622022202 -0.27752262786279 -0.09368268846885

