%nproc=4
%Mem=2GB
# td=(NStates=1) B3LYP/SVP 

TD

0 1
 6 -5.11874472497250 -1.93606341234123  0.37502612771277
 6 -4.90019617781778  2.75390561956196  1.49945662176218
 6 -9.43902314591459  3.24923111941194 -0.22660727692769
 6 -9.85038688978898 -1.50506210081008 -0.89741588698870
 7 -5.25613236123612  0.50739720082008  0.73441089908991
 6 -4.50390848844884 -0.73113209680968  0.81100718631863
 6 -3.02110386408641 -0.53518400190019  1.32785603500350
 6 -3.19302345474547  0.83150826842684  1.91468597399740
 6 -4.49012397049705  1.41745879127913  1.34116602800280
 6 -3.08245474337434  0.95125342634263  3.46644650265026
 6 -2.09935527832783 -0.63257827192719  0.16636324402440
 6 -0.59072746084608 -0.61873072787279  0.54855262036204
 6  0.39012351825183 -0.83012993029303 -0.56264212141214
 8  0.16861659755976 -1.26964665456546 -1.73700615521552
 8  1.61759683488349 -0.61666808530853 -0.19192418441844
 7 -7.24437761876188  2.68810355225523  0.75639623362336
 6 -6.07926210721072  3.37626435893589  0.99555368076808
 6 -6.33252452495250  4.84212229602960  0.90365191689169
 6 -7.64644770927093  4.91762308530853  0.44964019411941
 6 -8.18169361976198  3.65364396329633  0.24634597089709
 6 -5.30862001840184  5.91354513691369  1.31159716361636
 6 -8.30795738393839  6.20326004370437  0.31668672297230
 6 -9.35484300710071  6.53920321092109 -0.58079669596960
 7 -9.37225062436244  0.76074454905491 -0.28285526092609
 6 -9.99231100850085  1.96212951465146 -0.47508631933193
 6 -11.29423566156616  1.83853749324933 -0.99603367466747
 6 -11.45960140064006  0.49613365476548 -1.10594065566557
 6 -10.20642735113511 -0.09947699709971 -0.69285276567657
 6 -12.26701089828983  2.84048661776178 -1.18469289838984
 6 -12.65621571897190 -0.28833793219322 -1.81796403140314
 6 -12.59397386698670 -0.45301994839484 -3.34393157755776
 7 -7.49389251495150 -1.27397171167117 -0.28688503360336
 6 -8.55405139063906 -2.06309292349235 -0.63551047944794
 6 -8.18352195939594 -3.42216681818182 -0.74646838533853
 6 -6.84150617881788 -3.42145803010301 -0.18110021532153
 6 -6.42299083868387 -2.10480227932793 -0.01710955685569
 6 -8.91921590669067 -4.68644204420442 -1.11342384918492
 6 -5.73857997949795 -4.35090031693169 -0.01061839223922
 8 -5.60620247634763 -5.49611612031203 -0.14316739633963
 6 -4.47477308190819 -3.34432154485449  0.46719196879688
 6 -3.84158657345735 -3.78224191939194  1.73352523782378
 8 -3.89942255395540 -3.25556651255126  2.85614607860786
 8 -3.16929944564456 -4.85214549584959  1.51561730473047
 6 -2.55906943724372 -5.64632553785379  2.73543001330133
 6  2.63440348374837 -0.89592828342834 -1.10249445474548
 6  4.01815592539254 -0.53224784818482 -0.60028664186419
 6  4.94766706690669  0.29297834543454 -0.99124452905291
 6  4.94927543774377  1.19421326302630 -2.15691823082308
 6  6.23331704380438  0.31417404570457 -0.22918438153815
 6  7.54804903210321 -0.18372770587059 -0.94331168456846
 6  8.83235671267127 -0.20363557045705 -0.05866074597460
 6  10.12432428712871 -0.60704518711871 -0.76044702460246
 6  10.00908470187019 -2.17801296709671 -1.05796991169117
 6  11.29093976857686 -0.24360403100310  0.03432096409641
 6  12.77246583118312 -0.47915639403940 -0.56019389658966
 6  13.98078448564856 -0.02708541164116  0.25995235783578
 6  15.34309613071307 -0.25857889368937 -0.31446528232823
 6  15.64262158975898 -1.63145730763076 -0.54387412291229
 6  16.45426802400240  0.51022193339334  0.51525478987899
 6  17.77566440514051  0.50575630953095 -0.18974348214821
 6  18.75690554155415  1.35402402140214  0.59213790669067
 6  20.24951484738474  1.38302392769277  0.02201496189619
 6  20.34711564106411  1.85242467366737 -1.45211162016202
 6  21.19214968056806  2.11512524862486  0.98168456915692
 1 -4.11533970157016  3.52936932123212  1.81155339363936
 1 -10.19014659965997  4.06677611411141 -0.47465613951395
 1 -10.65555389528953 -2.12553856385639 -1.16808670257026
 1 -2.81492754425442 -1.32424278837884  2.16184797949795
 1 -2.47460802840284  1.67047699879988  1.35085458385839
 1 -2.07283479937994  0.52068949064907  3.78865559085909
 1 -3.31710501080108  1.95484012761276  3.89930903210321
 1 -3.96787736713671  0.15204590689069  3.84946379207921
 1 -2.20753020692069 -1.72841671937194 -0.46893374967497
 1 -2.19605554415442  0.14125159945995 -0.59864852555255
 1 -0.20540486388639  0.45503962986299  0.91446747724772
 1 -0.43658667156716 -1.28793797379738  1.52079919891989
 1 -4.38998365576558  5.94878301590159  0.71172431043104
 1 -5.68366958575858  6.99577469616962  1.16433203020302
 1 -4.90489226622662  5.85457530693069  2.26942800340034
 1 -7.82006210511051  7.06207324102410  1.12803410971097
 1 -9.76558195099510  5.78197618311831 -1.28329772577258
 1 -9.71042532173217  7.56822210751075 -0.72703240734073
 1 -12.67569211661166  3.45593609210921 -0.35074747334733
 1 -12.06454537683769  3.81212617731773 -1.79851706920692
 1 -13.22303970397040  2.72069768796880 -1.50650369726973
 1 -12.71112593849385 -1.39148927522752 -1.36135070887089
 1 -13.63582432473247  0.15239490089009 -1.50079375667567
 1 -12.37698221322132  0.27988500360036 -3.89141798519852
 1 -11.98332454015402 -1.39970936733673 -3.60415121182118
 1 -13.62351042424243 -0.86891424952495 -3.68914277297730
 1 -9.72002954975498 -4.92476456835684 -0.23488929282928
 1 -9.55914782498250 -4.62691970547055 -2.04166468706871
 1 -8.31571327682768 -5.54027480738074 -1.28167282078208
 1 -3.79450517781778 -3.49961731303130 -0.26014907470747
 1 -2.08026489448945 -6.56462306600660  2.48791449544954
 1 -1.77820439213921 -5.00881062006201  3.27260171047105
 1 -3.55748680408041 -5.72162916291629  3.25425694589459
 1  2.69167095889589 -2.07311405250525 -1.43291042434243
 1  2.43636547944794 -0.44686612461246 -2.07413503280328
 1  4.04306574247425 -1.06456452695269  0.54299334373437
 1  5.16188145264526  2.26382408020802 -1.79399198659866
 1  5.75179214301430  1.09079503470347 -3.09747281438144
 1  3.82603908910891  1.16435924182418 -2.43393875077508
 1  6.64426452355235  1.33203634753475  0.29479427902790
 1  6.14959278507851 -0.29346493179318  0.77900759485949
 1  7.27056770987099 -1.07066111151115 -1.42214706080608
 1  7.59999975107511  0.77609311391139 -1.86182504020402
 1  8.90510495209521  0.83110096159616  0.23647490599060
 1  8.69004173407341 -0.98773586058606  0.76740959385939
 1  10.28088495379538 -0.38625842754275 -1.90354107700770
 1  9.10436762436244 -2.59721838463846 -1.67200642614261
 1  10.91817867886789 -2.45661733813381 -1.66902264786479
 1  10.11795023682368 -2.76586846434643 -0.07154067556756
 1  11.22398658875887  0.75409303310331  0.51379484208421
 1  11.31809937933793 -1.10042852835284  0.90219074077408
 1  12.86832334033403 -1.52225610461046 -0.81981542434243
 1  12.84954527112711 -0.04824209710971 -1.49255257375738
 1  13.79482051755176  0.98240863666367  0.53859903400340
 1  14.07445228072807 -0.60596355035504  1.20452002820282
 1  15.18903040044004  0.14794799459946 -1.27729437923792
 1  15.00834622962296 -2.28297658145815 -1.18256227672767
 1  16.73984072037204 -1.96296213571357 -1.00269166176618
 1  15.79523224082408 -2.03342296089609  0.41163386468647
 1  15.99004619621962  1.57914100280028  0.80568441204120
 1  16.55012133483348 -0.27237342824282  1.43188518531853
 1  18.21121719901990 -0.46197467606761 -0.28373305800580
 1  17.75532825822582  0.88073103620362 -1.14551185578558
 1  18.42736444234423  2.56458518621862  0.62761925692569
 1  18.92013502770277  1.17144598139814  1.46386764236424
 1  20.53834206400640  0.34311504520452  0.12620555765577
 1  20.17956065326533  2.84212634473447 -1.65505047924792
 1  21.35106362356235  1.61656726052605 -1.89651497489749
 1  19.79715795159516  1.03438347494750 -2.02717789898990
 1  20.97039205230523  1.67654720502050  1.93596752455246
 1  22.28643248494849  2.21590970757076  0.55839773957396
 1  20.69063672637264  3.13293296379638  1.22167477187719
 1 -7.38218200070007  1.69308358035804  0.53561681848185
 1 -7.68488985558556 -0.30988586418642 -0.13808712891289

