%nproc=4
%Mem=2GB
# td=(NStates=1) B3LYP/SVP 

TD

0 1
 6 -5.15901875237524 -1.93691349734974  0.47072569766977
 6 -4.79060521872187  2.84791502050205  1.50689736583658
 6 -9.33103234683468  3.33820001630163 -0.18747336353635
 6 -9.90902275337534 -1.33577517211721 -0.92080822622262
 7 -5.24038078607861  0.50631709280928  0.89614707270727
 6 -4.50719881748175 -0.68563754735474  0.84373045864586
 6 -3.05658741244124 -0.53392387588759  1.26285953535354
 6 -3.02248640104010  0.93249836743674  1.80923542894289
 6 -4.38558351645164  1.50794784018402  1.47871978337834
 6 -2.81850834873487  1.10249855085509  3.38485834383438
 6 -2.01849719251925 -0.76843185728573  0.11611821952195
 6 -0.53357174527453 -0.84785364016402  0.56753451855186
 6  0.37807231313131 -1.13717063436344 -0.40762661986199
 8  0.20594032993299 -1.37707739763976 -1.60198265286529
 8  1.66487156235624 -1.00052647114711  0.01351635963596
 7 -7.08298147914791  2.74048879077908  0.60732132613261
 6 -5.90546472747275  3.39654638713871  1.02466659205921
 6 -6.25790706320632  4.77313539733973  1.12304385608561
 6 -7.52681574607461  5.00573189618962  0.59241447154715
 6 -8.05766121652165  3.60573917281728  0.33872520882088
 6 -5.30295945234523  5.91011479387939  1.56979298319832
 6 -8.23465005320532  6.26019573727373  0.29966502080208
 6 -9.17338486128613  6.56828611921192 -0.62971158745875
 7 -9.19551295059506  0.97598607320732 -0.41562853825383
 6 -9.86644842224222  2.05887918961896 -0.50323913461346
 6 -11.26005224322432  1.98857249674967 -0.98858292959296
 6 -11.35327076757676  0.62377641904190 -1.19597965956596
 6 -10.09799650805081 -0.01132818221822 -0.85094857525753
 6 -12.30685488268827  3.02173474257426 -1.16459088818882
 6 -12.51644174157416 -0.06668576697670 -1.82026426142614
 6 -12.41174564416442 -0.55151979837984 -3.27443462786279
 7 -7.50391351705171 -1.25898021252125 -0.38212455755576
 6 -8.60069605510551 -2.00339695389539 -0.65767269566957
 6 -8.22804641184118 -3.40491509300930 -0.67464120262026
 6 -6.89353138133813 -3.40159604390439 -0.24126623192319
 6 -6.50785932553255 -2.06665846494649  0.10366252035204
 6 -9.00898488358836 -4.56439983998400 -1.12091459825983
 6 -5.76062218371837 -4.22967819471947 -0.12400973137314
 8 -5.71685354145415 -5.43474998369837 -0.20716379597960
 6 -4.57478308290829 -3.32286939963996  0.51795704530453
 6 -3.98602101690169 -3.89797349254926  1.78873075837584
 8 -4.20119273097310 -3.49260021592159  2.91368183218322
 8 -3.08122063776378 -4.83725400670067  1.40640638363836
 6 -2.51247477777778 -5.42295320062006  2.60517698799880
 6  2.62787283068307 -1.15168385898590 -0.98269247454746
 6  4.02826693649365 -0.78095271867187 -0.41074768796880
 6  4.95937823802380 -0.12898385078508 -1.03016842144214
 6  4.81133164336434  0.52304614631463 -2.35901844084408
 6  6.30104381648165  0.18907153545355 -0.35327679077908
 6  7.44268849604960 -0.45142447554755 -1.08486583998400
 6  8.77143062006201 -0.46011121802180 -0.31879675957596
 6  10.12532438713871 -0.85858034063406 -0.95460644054405
 6  10.11989578297830 -2.40957612341234 -1.02129624432443
 6  11.27562823742374 -0.27574724532453 -0.11907437543754
 6  12.67637622222222 -0.68629710811081 -0.60177805500550
 6  13.91101750895089 -0.02062476557656  0.16283264586459
 6  15.24027584868487 -0.18287132293229 -0.47819165496550
 6  15.72122945054505 -1.77886204810481 -0.65311504700470
 6  16.27159975717572  0.54554546574657  0.43068633303330
 6  17.64810164886488  0.87830356425643 -0.28436294409441
 6  18.47614746574657  1.83162178117812  0.64781347424742
 6  19.99422931883188  1.80407603290329  0.28437119751975
 6  20.30679160866087  2.12789222042204 -1.22093850285029
 6  20.72673313891389  2.70043377947795  1.29563596429643
 1 -3.91279944754475  3.55738212251225  1.93713595189519
 1 -10.08772635763576  4.32924236073607 -0.25237391129113
 1 -10.46208454835484 -2.13013902390239 -1.10497039093909
 1 -2.71752780428043 -1.23262362646265  2.16207800250025
 1 -2.15322589018902  1.50489044014401  1.32150164856486
 1 -1.73117063296330  0.59136655835584  3.61280800610061
 1 -2.42302560286029  2.40278492209221  3.60616971817182
 1 -3.71778235763576  0.87570827312731  3.93238208390839
 1 -2.35976543044304 -1.67639151685168 -0.63473032933293
 1 -2.14895083368337  0.12988046234623 -0.59191785248525
 1 -0.19737406080608  0.02492661856186  1.06455248574858
 1 -0.39398241114111 -1.70433961396140  1.31449856885689
 1 -4.69466412381238  6.16633477107711  0.66852999099910
 1 -5.93177439623962  6.75940105880588  1.91988758575858
 1 -4.87528930593059  5.58333818321832  2.36547760836084
 1 -8.05569566846685  7.06097313101310  1.00547185348535
 1 -9.62338773157316  5.80443842934293 -1.23138253425343
 1 -9.58009228842884  7.64083936923692 -0.96575627972797
 1 -12.50699524692469  3.56857735623562 -0.25932833143314
 1 -12.26334525682568  3.64242920762076 -1.94783200070007
 1 -13.12364976497650  2.34569018721872 -1.49381242814281
 1 -12.64790961686169 -1.02037216351635 -0.73554812861286
 1 -13.42597333963396  0.62528218961896 -1.59209288658866
 1 -11.99374388938894  0.42997001210121 -4.00611945534553
 1 -11.67609381708171 -1.34499389578958 -3.21486228292829
 1 -13.53873194639464 -1.00680803890389 -3.91626548524853
 1 -9.81372891969197 -4.71481357325733 -0.36765256915692
 1 -9.31972388258826 -4.65191220472047 -2.24593511411141
 1 -8.36673837933794 -5.47127790769077 -0.95465011851185
 1 -3.74810053735374 -3.21665901720172 -0.24952801260126
 1 -2.05774264226423 -6.47382398609861  2.22895859985999
 1 -1.79619619131913 -4.77410714971497  2.91597604790479
 1 -3.30408146354635 -5.71381838183818  3.49298081828183
 1  2.75221701350135 -2.32834957605761 -1.25004213751375
 1  2.32043388628863 -0.61610304830483 -1.94183180248025
 1  4.21955339123912 -1.04404247474747  0.78544758915892
 1  5.10240550505050  1.60848854665467 -2.28981156855686
 1  5.61227819161916  0.06481243644364 -3.23918698579858
 1  3.75569205440544  0.39546235213521 -2.96856221312131
 1  6.48645874297430  1.22971611551155 -0.43405860626063
 1  6.32138996479648 -0.26931251655166  0.60691038513851
 1  7.22409306240624 -1.67203124852485 -1.39782462856286
 1  7.84699445054506 -0.00294478987899 -2.13573243094309
 1  9.00351479307931  0.69331718321832  0.01020227872787
 1  8.59885261516152 -0.78844593159316  0.81207406030603
 1  10.10597746304630 -0.33324312601260 -1.83528425132513
 1  9.35463265086509 -2.73333199599960 -1.53513273877388
 1  10.84759162016202 -2.93050472687269 -1.68936468206821
 1  10.18981742354235 -2.93403528102810 -0.10573409490949
 1  11.10727491759176  0.63542116591659  0.08737219981998
 1  11.30960853025303 -0.83413189868987  0.96944746644664
 1  12.88712522052205 -1.85666954595460 -0.68223166596660
 1  12.91784210081008 -0.26993426632663 -1.67062038053805
 1  13.89873090859086  1.16051644744474  0.18560373447345
 1  13.93727856335634 -0.49480243424342  1.18765834203420
 1  15.15823732113211  0.39905310511051 -1.57138378817882
 1  15.00945634063406 -2.29657794159416 -1.28816283678368
 1  16.77099383568357 -1.79641548104810 -1.39487087968797
 1  15.74572729032903 -2.07874749334934  0.42998569986999
 1  15.64631182278228  1.50259334803480  0.63459730333033
 1  16.38321464416442 -0.05186137703770  1.27212920972097
 1  17.99874595189519 -0.27075555415542 -0.44975966066607
 1  17.58026075147515  1.51272423552355 -1.27151445604560
 1  18.05146685258526  2.88799752745274  0.55226172117212
 1  18.32477549174918  1.33513235003500  1.72678393399340
 1  20.55280351015102  0.85218595229523  0.35553849094910
 1  20.01649434663467  3.20326245834583 -1.78700367456746
 1  21.49287780498049  2.00648625242524 -1.52119744314431
 1  19.96985522132213  1.30766080268027 -2.00799598079808
 1  20.68725373847385  2.46397594789479  2.30144407220722
 1  21.74645848754875  2.64085220182018  0.94340624042404
 1  20.30081774447445  3.73475314581458  1.13168577297730
 1 -7.07004078657866  1.69688396039604  0.68438169496950
 1 -7.61797316391639 -0.15949082468247 -0.14211753195320

