%nproc=4
%Mem=2GB
# td=(NStates=1) B3LYP/SVP 

TD

0 1
 6 -5.09085193569357 -1.89609941594159  0.35041366646665
 6 -4.78404456265627  2.81671190019002  1.36819349544954
 6 -9.51219046264626  3.23733993029303 -0.19598421462146
 6 -9.89779163026303 -1.53547514211421 -0.91830797619762
 7 -5.22060880888089  0.52902936403640  0.54624208220822
 6 -4.53870196779678 -0.70212919651965  0.63115920152015
 6 -3.14361611531153 -0.50574105760576  1.15788903830383
 6 -3.13941809420942  0.89754487208721  1.72233673907391
 6 -4.44820977907791  1.44417146254625  1.19325123652365
 6 -3.12978947684768  1.02155045604560  3.32312217021702
 6 -2.03472881568157 -0.69531454555456  0.13076968466847
 6 -0.53723211131113 -0.64413326812681  0.57921568666867
 6  0.43004751065106 -0.96501341864186 -0.52453831103110
 8  0.19805954185419 -1.43806349624963 -1.55856831143114
 8  1.73038811401140 -0.40008642714271 -0.19098409040904
 7 -7.02072525352535  2.84687942984298  0.22630322432243
 6 -5.98636281728173  3.52202893539354  0.91819594499450
 6 -6.33261453395339  4.86937502130213  1.07500905260526
 6 -7.67487055155516  4.99972129512951  0.56886211631163
 6 -8.11951740214021  3.59650824972497  0.22005334163416
 6 -5.46603575997600  5.85373915631563  1.63523952785278
 6 -8.47484407260726  6.22247196489649  0.46504155845585
 6 -9.36243376617662  6.63648293889389 -0.45157377367737
 7 -9.34340774007401  0.84450292489249 -0.46939391479148
 6 -9.95519729712971  1.99202250395039 -0.53518232893289
 6 -11.31041727972797  1.80181382088209 -0.90301437273727
 6 -11.51116655715572  0.44255829722972 -0.97863792539254
 6 -10.23865057345735 -0.11761881128113 -0.82652613301330
 6 -12.48883308050805  2.80180274937494 -0.93797822692269
 6 -12.74229432683268 -0.31209030743074 -1.45509774477448
 6 -12.90240471007101 -0.49835448184818 -2.93066025042504
 7 -7.47161028672867 -1.17600191469147 -0.32952929802980
 6 -8.57968395389539 -2.02599921412141 -0.67425435383538
 6 -8.22693630083008 -3.33765836733673 -0.59568330683068
 6 -6.92130415861586 -3.42455834013401 -0.30664276957696
 6 -6.47162570217022 -2.07020881998200 -0.07506535243524
 6 -9.13403738883888 -4.53789718971897 -0.95221772857286
 6 -5.73506962846285 -4.32775800270027 -0.09929726012601
 8 -5.62305416151615 -5.50511702040204 -0.21717479707971
 6 -4.52482808740874 -3.24620173287329  0.29964521412141
 6 -3.77184959975998 -3.75139883508351  1.58379026432643
 8 -4.14759737143714 -3.29958091399140  2.66460692469247
 8 -2.96117863356336 -4.77790807210721  1.34391013401340
 6 -2.58296182648265 -5.48336924222422  2.45206167646765
 6  2.73799384278428 -0.74753344394439 -1.18218242354235
 6  4.04745885568557 -0.51982660606061 -0.43939055225523
 6  5.19244154435443  0.06774582218222 -0.99798520312031
 6  5.25015552575258  0.78488232993299 -2.41966450545054
 6  6.35778949104910  0.30749337763776 -0.16609807290729
 6  7.58024225142514 -0.59342867596760 -0.66621397479748
 6  8.82899637663767 -0.42343755065507  0.16591171127113
 6  10.16620847554755 -0.89858434103410 -0.53621460136014
 6  10.24303809720972 -2.31230639643964 -0.87042115681568
 6  11.33728440304030 -0.40425009560956  0.22562009400940
 6  12.75040362496250 -0.77720619901990 -0.43583146034603
 6  13.96124253145314 -0.04320702380238  0.25737209980998
 6  15.33088490959096 -0.42155519131913 -0.31269510531053
 6  15.76911423902390 -1.82590675257526 -0.30112984848485
 6  16.35584818201820  0.48758967016702  0.46885014941494
 6  17.71150798949895  0.61099683358336 -0.27504201200120
 6  18.71399125012501  1.66636525552555  0.49079777267727
 6  20.20623051895189  1.69984560986099  0.01673443384338
 6  20.28340927042704  2.00494992619262 -1.56318272727273
 6  21.10288075367537  2.60690442654265  0.84211061176118
 1 -4.08312648024803  3.50806719101910  1.82878511681168
 1 -10.23229081408141  4.09064850135013 -0.32851152505251
 1 -10.60360870077008 -2.16863287328733 -1.32309220312031
 1 -3.05903195469547 -1.24523488758876  2.11837363206321
 1 -2.31958252585259  1.61590154125413  1.34607410581058
 1 -2.16075359125913  0.45214263596360  3.60539726502650
 1 -2.89849314961496  1.99433407700770  3.81209031023102
 1 -3.86597717711771  0.37414811711171  3.87882672837284
 1 -2.33296275017502 -1.63759763746375 -0.53884074037404
 1 -2.05100103870387  0.29660713501350 -0.44922358305831
 1 -0.36248057145715  0.24398852475248  1.16907293779378
 1 -0.41771478437844 -1.57314649464947  1.24018113711371
 1 -4.51391604900490  5.88823696129613  1.13416655465547
 1 -5.79160037883788  6.83062818151815  1.43994959195920
 1 -5.11488326532653  5.69760961036104  2.59927098769877
 1 -8.07295739463946  7.08756579027903  1.05006631293129
 1 -9.69286467926793  5.94859284478448 -1.03926332233223
 1 -9.80303458265826  7.68691397669767 -0.53311301540154
 1 -12.68220276767677  3.51515201370137 -0.20629302790279
 1 -12.39653857615762  3.59279424412441 -1.70248746624662
 1 -13.43956135613561  2.15767138533853 -0.86812985988599
 1 -12.58607343324332 -1.27969809610961 -0.93791836563656
 1 -13.66652739503950  0.37881754315432 -1.22096577387739
 1 -13.17278179317932  0.55039205430543 -3.50367921132113
 1 -12.14921112881288 -0.87445684208421 -3.45211600830083
 1 -13.68435650885089 -1.32083944204420 -3.03961782048205
 1 -9.95252279907991 -4.61191328322832 -0.16926273017302
 1 -9.47612952315231 -4.52733974747475 -2.02315283588359
 1 -8.54007571307131 -5.48015879577958 -1.05147980148015
 1 -3.80598632593259 -3.32639999129913 -0.60280334013401
 1 -2.01657852585259 -6.40839744344434  2.09071477547755
 1 -1.87602417411741 -4.86403614261426  3.02868731903190
 1 -3.50706176157616 -5.74382138213821  3.04098561876188
 1  2.63981577337734 -1.70584732583258 -1.58423555685568
 1  2.60227207010701 -0.11323276127613 -1.99335695499550
 1  3.95747718361836 -0.92741081158116  0.61055009940994
 1  5.52224748924892  1.85358305610561 -2.19889247664766
 1  6.03014997879788  0.25797175237524 -3.09799286638664
 1  4.25343182838284  0.69422222812281 -2.85823118001800
 1  6.59036913401340  1.42885602950295  0.13403820342034
 1  6.27119494529453 -0.20775636093609  0.74543423752375
 1  7.27150780388039 -1.61665571097110 -0.70518536463646
 1  8.00296004710471 -0.30289478487849 -1.86442530023002
 1  9.10964540614061  0.63200105160516  0.42907416591659
 1  8.81421415131513 -0.87087417441744  1.23301615451545
 1  10.23805067036704 -0.43173297499750 -1.62298302120212
 1  9.42297948554856 -2.86327499029903 -1.66670589608961
 1  11.21887874887489 -2.87267894429443 -1.25376112171217
 1  10.18675711751175 -2.94317619511951 -0.01522504400440
 1  11.39700389048905  0.73827145094509  0.25142860546055
 1  11.42276984638464 -0.74182266776678  1.47295781748175
 1  12.92235874387439 -1.91051493049305 -0.61564500730073
 1  12.79391970857086 -0.49379665256526 -1.59982330083008
 1  13.73923495899590  1.03968436423642  0.31905707980798
 1  13.88261309680968 -0.36213916791679  1.28992856905691
 1  15.38269976737674  0.03252645244524 -1.39631628142814
 1  15.08828422342234 -2.52800108390839 -0.98801282178218
 1  16.56191292759276 -1.89478531803180 -0.72718411101110
 1  15.84830754835484 -2.24902452105210  0.78734143544354
 1  15.88437562916292  1.60050313901390  0.49401324492449
 1  16.60390671337134 -0.07918410931093  1.47178917571757
 1  18.29965604290429 -0.53236171477148 -0.11171585628563
 1  17.67002972837284  0.84832779587959 -1.39628693329333
 1  18.12337404330433  2.70748947664766  0.55219171417142
 1  18.87626064026403  1.36584542134213  1.57029828542854
 1  20.59858808860886  0.76768750245025  0.28445138223822
 1  19.74042673987399  3.01174330643064 -1.85389036323632
 1  21.37131564876487  2.19775537933793 -1.96302162556256
 1  19.79224746054605  1.32085212181218 -2.27157233843384
 1  20.91956696979698  2.25673522382238  1.74922885068507
 1  22.11379522122212  2.50621873847385  0.79429132893289
 1  20.85043270597060  3.62722239273927  0.50953355775578
 1 -7.22950673317332  1.72411668366837  0.15678893569357
 1 -7.59152051865186 -0.23855873147315 -0.11129444964496

