%nproc=4
%Mem=2GB
# td=(NStates=1) B3LYP/SVP 

TD

0 1
 6 -5.09239208970897 -1.97138694469447  0.43533215831583
 6 -4.72114827302730  2.76517674667467  1.51016769286929
 6 -9.35597484108411  3.35484168046805 -0.18481309750975
 6 -9.81063291439144 -1.45060665526553 -0.86448259365937
 7 -5.25148189618962  0.34628108920892  0.95558301630163
 6 -4.51497959555956 -0.76892587618762  0.83524961056106
 6 -2.98131988568857 -0.56268675217522  1.12675592499250
 6 -3.09244339673967  0.88385350295030  1.80491499689969
 6 -4.44847980608061  1.38807585298530  1.38730064146415
 6 -2.96528302620262  0.77838613961396  3.43795365336534
 6 -2.09556489928993 -0.56136115021502 -0.11942533483348
 6 -0.62718110621062 -0.69153800860086  0.45126289138914
 6  0.34216872277228 -0.95573249054905 -0.73216907410741
 8  0.03165290119012 -1.09113880378038 -1.92692514711471
 8  1.62099717491749 -0.94509092759276 -0.27772276427643
 7 -7.08607178817882  2.71002574447445  0.61299189318932
 6 -5.95443962496250  3.40049678217822  1.07765189058906
 6 -6.23188446094609  4.76734481828183  0.97021857355736
 6 -7.50737380188019  5.04936625962596  0.47061229132913
 6 -8.05410086048605  3.69222782168217  0.20148148444845
 6 -5.24172332873287  5.89848363076308  1.37657366126613
 6 -8.16458304650465  6.30985070277028  0.28274332863286
 6 -9.03042056485649  6.62530182078208 -0.67643625992599
 7 -9.13509690899090  0.92702117671767 -0.48710568596860
 6 -9.83488526592659  2.09847314901490 -0.50868967966797
 6 -11.24853109110911  1.90643428292829 -0.91271534283428
 6 -11.34880032053205  0.55435947734773 -1.16061612321232
 6 -10.00107681608161  0.05745869646965 -0.85353883428343
 6 -12.26330052725273  3.01737430653065 -0.99819424852485
 6 -12.54872496989699 -0.32727182558256 -1.51590382538254
 6 -12.59150361996200 -0.33361800820082 -3.11874905930593
 7 -7.46278940464046 -1.22926724122412 -0.33981032613261
 6 -8.57526351185119 -2.09482609680968 -0.71278820722072
 6 -8.12425603280328 -3.37470207170717 -0.66649038753875
 6 -6.79155118331833 -3.38765464976498 -0.26517862316232
 6 -6.43747228682868 -2.06184798389839 -0.00217806370637
 6 -9.01388537363736 -4.63374677467747 -1.11150365716572
 6 -5.63433955545555 -4.26223145004500  0.13830650025003
 8 -5.62287414351435 -5.49057556625663  0.05990291069107
 6 -4.35861146574657 -3.40156726942694  0.50395564516452
 6 -3.80358277307731 -3.88641233643364  1.88810069536954
 8 -3.97407001870187 -3.30624158005801  2.91659212321232
 8 -3.17232974867487 -4.89503978527853  1.61970771377138
 6 -2.70631416171617 -5.58520942624262  2.76305277557756
 6  2.65431547494749 -1.16212490309031 -1.24788899419942
 6  3.96710081988199 -0.87655227862786 -0.50570718391839
 6  4.93747604780478  0.01723077067707 -0.94464986958696
 6  4.94374488468847  0.70363420512051 -2.31623416241624
 6  6.20329404150415 -0.02652002370237 -0.13068453155316
 6  7.49563379057906 -0.38209754285429 -1.09130648404840
 6  8.72361583858386 -0.31666687358736 -0.19336421632163
 6  10.03576543124312 -0.70410489308931 -0.97615859575958
 6  10.08340213361336 -2.25423058885889 -1.25509962466247
 6  11.35543621822182 -0.23217288788879 -0.09753222122212
 6  12.68836742134213 -0.46554503290329 -0.68344622182218
 6  13.78259466666667 -0.00372307540754  0.18205456805681
 6  15.16289811091109 -0.26314935073507 -0.39038287408741
 6  15.61259858745874 -1.76750091199120 -0.41061079657966
 6  16.17249984718472  0.53202411361136  0.48627189158916
 6  17.69486632533253  0.60061579547955 -0.02350685848585
 6  18.55086493749375  1.49436805580558  0.69543823672367
 6  20.06838673457346  1.74164979027903  0.14341710211021
 6  20.09581051055106  2.38652808400840 -1.25198160716072
 6  20.81060152575257  2.54609834593459  1.26761316201620
 1 -3.84466263386339  3.44087047134713  1.89273151145114
 1 -10.16182376737674  4.11355079157916 -0.37415608950895
 1 -10.66834517441744 -2.02422843284328 -1.33534342824282
 1 -2.54114016551655 -1.32061242534253  1.85554734943494
 1 -2.17875844344434  1.63618356945695  1.61719121752175
 1 -2.00627814371437  0.68163558525853  3.76147287258726
 1 -3.35506880718072  1.77190183378338  3.94949405060506
 1 -3.60577115651565 -0.04578387608761  3.64582342804280
 1 -2.23907336123612 -1.38604248194819 -0.73001985828583
 1 -2.15398133673367  0.30617809210921 -0.87456611731173
 1 -0.25925024842484  0.32896702260226  1.09579561006101
 1 -0.60895390829083 -1.57429660966097  1.09165628462846
 1 -4.04636929432943  5.56666480408041  0.94701783978398
 1 -5.69801101990199  7.08481360006001  0.84859045604560
 1 -5.32013379037904  5.90602045144515  2.60388144874487
 1 -7.97757785668567  7.15428246194619  1.03404471077108
 1 -9.44045943874387  5.99305729122912 -1.44241363736374
 1 -9.42473675287529  7.54841012631263 -0.46978668276828
 1 -12.46443099049905  3.41499199769977  0.03420102150215
 1 -11.82706162846285  3.59183414811481 -1.78294551205120
 1 -13.31097849784978  2.68084370257026 -1.31673472037204
 1 -12.46989181508151 -1.34955508180818 -1.14318889268927
 1 -13.46443718601860  0.29926958835884 -0.92256593389339
 1 -12.61573608860886  0.71173818891889 -3.72466130953095
 1 -11.53914012171217 -0.70111950835084 -3.56737753445345
 1 -13.46460453365337 -0.97931528962896 -3.46807066576658
 1 -10.10045759255926 -4.45937802970297 -0.40964676857686
 1 -9.21637354755475 -4.72671968546855 -2.21631215181518
 1 -8.44886659215922 -5.67046782668267 -0.77085173867387
 1 -3.75781150845084 -3.54386173747375 -0.37446050585059
 1 -2.10329719771977 -6.50781738543854  2.41112681668167
 1 -2.10574714641464 -4.94629436843684  3.44644909520952
 1 -3.44807586298630 -6.06659365936594  3.28757027722772
 1  2.24764655645565 -2.15966270737074 -1.68187532083208
 1  2.37190903380338 -0.35959739773977 -2.06665428472847
 1  4.00117155305531 -1.22370044054405  0.43255229962996
 1  5.82400766526653  1.70327802560256 -2.27330991839184
 1  5.46901386518652  0.19149510471047 -3.08444151125113
 1  3.92869935513551  0.80719352525253 -2.41359671657166
 1  6.37589768686869  0.96368951285128  0.38066286588659
 1  5.87943576937694 -0.90666625192519  0.69761945604560
 1  7.43512416551655 -1.47111115651565 -1.59854470057006
 1  7.56327607870787  0.35351085568557 -1.89784864256426
 1  8.65828026962696  0.77413526502650  0.16448770727073
 1  8.58545127502750 -0.97847493449345  0.69988284118412
 1  10.04166103140314 -0.29789959165917 -1.93761448434843
 1  9.22785997359736 -2.49844850765076 -1.90645987148715
 1  10.96666352735274 -2.39086076247625 -1.87124286988699
 1  9.84587302910291 -2.79817169466947 -0.40339386088609
 1  11.21666585668567  0.84882250605060  0.19598306090609
 1  11.24424199359936 -0.63002148764876  1.04922544424442
 1  12.78844535253525 -1.56859073807381 -0.67727116991699
 1  12.74501481808181 -0.07868514141414 -1.64420773927393
 1  13.70853188868887  0.96600699649965  0.53579875397540
 1  13.86562139763976 -0.46391934593459  1.11409098529853
 1  15.04839633703370 -0.13316011621162 -1.42066871667167
 1  14.88199359435944 -2.37809609340934 -0.96917093759376
 1  16.63651038733873 -1.87488332783278 -0.99096048864886
 1  15.59795251285129 -2.38864848344834  0.62791549284929
 1  15.70738793039304  1.63649673837384  0.58228207180718
 1  16.22894921762176  0.30585439453945  1.47374937173717
 1  18.04317039433943 -0.40653913251325 -0.05581026572657
 1  17.60522324772477  0.98336129922992 -1.04500180478048
 1  18.01332303820382  2.57704643234323  0.81753824882488
 1  18.69204221842184  1.02466130293029  1.87344860046005
 1  20.29200743054306  0.71778251195120 -0.08252531543154
 1  19.62921561876188  3.25424755685569 -1.27271224542454
 1  21.22935145234523  2.56973257705771 -1.43344866826683
 1  19.68902713851385  1.72866290289029 -1.95626080728073
 1  20.86149116221622  1.89240879117912  2.14444837263726
 1  21.99091293299330  2.82214033063306  0.90417231703170
 1  20.44211187388739  3.56397606810681  1.30121272567257
 1 -6.98599238173817  1.77549182118212  0.61540479727973
 1 -7.40387175377538 -0.22074695029503 -0.45459878007801

