%nproc=4
%Mem=2GB
# td=(NStates=1) B3LYP/SVP 

TD

0 1
 6 -5.14305715621562 -1.90306011201120  0.32633125822582
 6 -4.75236139433943  2.72850307930793  1.55116179227923
 6 -9.40299954355435  3.35930212651265 -0.14024864106411
 6 -9.87494934603460 -1.48185978057806 -0.80131627702770
 7 -5.14311105910591  0.36685314641464  0.79516697469747
 6 -4.48281637923792 -0.69172815641564  0.79861594719472
 6 -3.03337509120912 -0.57187767126713  1.29950319971997
 6 -2.97712186458646  0.87472258985899  1.75301980738074
 6 -4.39996495459546  1.41306835223522  1.34367627902790
 6 -2.80244674257426  0.94980328132813  3.28876873487349
 6 -1.93883922672267 -0.83132814691469  0.04337094479448
 6 -0.56136452455246 -0.87124597939794  0.55786355145515
 6  0.38735324122412 -1.25392230953095 -0.67819367656766
 8  0.02937267316732 -1.66627631753175 -1.67648010261026
 8  1.69014408960896 -0.83360977947795 -0.33773876587659
 7 -7.00684386538654  2.78995373727373  0.55610620462046
 6 -5.94283846484648  3.38025475797580  1.13957808320832
 6 -6.19221049354935  4.82647073087309  1.01017256895690
 6 -7.49832289678968  5.00997232023202  0.51147637773777
 6 -8.04220967136714  3.68886748564857  0.24418575487549
 6 -5.36326548294829  5.90494427682768  1.70548655255526
 6 -8.19127571577158  6.42155187288729  0.27625267956796
 6 -9.07950547334734  6.57651694229423 -0.84166278257826
 7 -9.25765916521652  0.84444291889189 -0.46027300270027
 6 -9.94128590599060  2.06265956765677 -0.43652246294629
 6 -11.34429066706671  1.83501714121412 -0.79712378367837
 6 -11.52918835933593  0.49263330473047 -1.04881494309431
 6 -10.13390009840984 -0.09783683308331 -0.73019650005000
 6 -12.40396459365937  2.94629719881988 -1.08852328142814
 6 -12.79110920832083 -0.18566766516652 -1.51886412141214
 6 -12.96112058165817 -0.29899454585459 -2.97709489388939
 7 -7.56624975067507 -1.28726304080408 -0.13037938303830
 6 -8.63070905640564 -1.99334594879488 -0.64789171757176
 6 -8.22772637983798 -3.36384098559856 -0.65340907940794
 6 -6.92484451265126 -3.43069895419542 -0.19898200350035
 6 -6.47807634723472 -2.07157895699570  0.03862601670167
 6 -9.01970595569557 -4.55447884788479 -1.12928543534353
 6 -5.70769689118912 -4.26172139903990 -0.07490482088209
 8 -5.65738759485949 -5.48071458015802 -0.14899797939794
 6 -4.49064466906691 -3.30290740344034  0.28984423402340
 6 -3.96520893569357 -3.65378907410741  1.72518440374037
 8 -4.25102771447145 -3.31680263616362  2.79826029002900
 8 -2.93245576127613 -4.64987526882688  1.58644438743874
 6 -2.43281681198120 -5.36791769706971  2.74794126442644
 6  2.65825586898690 -1.11934062466247 -1.35895010031003
 6  4.00575468526853 -0.67977260066007 -0.73206982018202
 6  5.06438873907391  0.07089613721372 -1.29661506610661
 6  5.02675318551855  0.57191103280328 -2.73415595459546
 6  6.27339105120512  0.23471609990999 -0.51239270237024
 6  7.55741996919692 -0.34203353645365 -1.01623897729773
 6  8.89446292329233 -0.09736494339434 -0.28678355825583
 6  10.19900175487549 -0.87963244584458 -0.85165614551455
 6  10.05592938633863 -2.30602576837684 -1.02772688738874
 6  11.33224389898990 -0.34497416801680  0.05954348634863
 6  12.71218980358036 -0.54172265066507 -0.59661753895390
 6  13.89806621382138  0.09328662556256  0.17651401400140
 6  15.29036085718572 -0.16001903770377 -0.32504634043404
 6  15.67314464206421 -1.66305046694669 -0.44388412391239
 6  16.22717531473148  0.59969088028803  0.73991725612561
 6  17.65623246194619  0.67654338823882  0.00602609480948
 6  18.63072292329233  1.62004062306231  0.72794148704870
 6  20.00182007790779  1.54428005330533  0.28320108050805
 6  20.21101203070307  2.24819425062506 -1.15886229522952
 6  20.91005147074707  2.33501723782378  1.23063946464646
 1 -3.96868503610361  3.32582896719672  2.26202844114411
 1 -10.03170075507551  4.19864930143014 -0.15802447634763
 1 -10.65801414131413 -2.03969997999800 -1.42262215611561
 1 -3.00383643514351 -1.21222158625863  2.29333112781278
 1 -2.22504307190719  1.35334528562856  1.09989948834884
 1 -1.75278279417942  0.71879930163016  3.46583330863086
 1 -2.94068736903690  2.03264790839084  3.84047314851485
 1 -3.48960954035404  0.14063476577658  3.70363920962096
 1 -2.22029148304830 -1.96198007570757 -0.35079193549355
 1 -1.82388832743274 -0.25913843954395 -0.73976263696370
 1 -0.38878320172017  0.43942806870687  0.66226225672567
 1 -0.54759777267727 -1.38998817881788  1.37413453245325
 1 -4.71097575497550  6.17177531513151  0.94440757875788
 1 -6.14999621842184  6.73438855755576  1.90454605160516
 1 -4.65833761076108  5.54353420282028  2.61405246584658
 1 -8.16557665656566  7.08204523822382  1.04338564486449
 1 -9.35962135493549  5.83865185068507 -1.56359575557556
 1 -9.77616189538954  7.39956524182418 -0.91976168026803
 1 -12.67316186358636  3.22968346684668 -0.09102150075007
 1 -12.41045996829683  3.58736370107011 -1.81670888838884
 1 -13.28132553255326  2.33488910711071 -1.34768781568157
 1 -12.82377720362036 -1.24607473377338 -1.01115568936894
 1 -13.52900364266427  0.45999566096610 -1.12977665496550
 1 -12.73870838583859  0.57902491759176 -3.59337818121812
 1 -12.06804301200120 -0.96728612501250 -3.23087388408841
 1 -14.04107218041804 -0.62240959905991 -3.25771963066307
 1 -9.99279682648265 -4.88682077397740 -0.76348215211521
 1 -9.24987689788979 -4.53460047354736 -2.26558707930793
 1 -8.50559226472647 -5.50901168106811 -1.29401405490549
 1 -3.65563129042904 -3.38849620092009 -0.48056111591159
 1 -1.62068893689369 -5.95845244894489  2.33302900690069
 1 -1.95032160386039 -4.77795753475348  3.48008245854586
 1 -3.12955401080108 -5.99156615661566  3.28998051825183
 1  2.77092888468847 -2.27835457655766 -1.68749588288829
 1  2.27646948984899 -0.60993243124312 -2.35251287058706
 1  4.07480891679168 -1.25849391989199  0.30995003940394
 1  5.49276454095410  1.62343004080408 -2.90419300670067
 1  5.62933989778978 -0.02643668846885 -3.32220528762876
 1  3.93723020822082  0.59393219911991 -3.17260261716172
 1  6.48095819291929  1.26924006790679 -0.26527172757276
 1  5.97653547934793 -0.14361994729473  0.54390408450845
 1  7.46788744184418 -1.30619466486649 -1.04627947404741
 1  7.69316906800680 -0.00534502990299 -2.07130598829883
 1  9.14496893849385  0.93921177267727 -0.08975771727173
 1  8.62323505340534 -0.55898298529853  0.74556740964096
 1  10.52079894519452 -0.38278808050805 -2.10232095499550
 1  9.13923111071107 -2.53289195199520 -1.70523974947495
 1  10.98154501550155 -2.58513018941894 -1.55255100070007
 1  9.77682612441244 -2.61893377087709 -0.01904542604260
 1  11.13711790189019  0.77593521732173  0.18012147474747
 1  11.34964253365336 -0.77286577207721  1.06984750645065
 1  12.84989149714971 -1.58602248124812 -0.84451789458946
 1  12.68326864346434 -0.31861913481348 -1.67794111261126
 1  13.71250228572857  1.15450584638464  0.27913308740874
 1  13.59050388588859 -0.22402535653565  1.21579115531553
 1  15.37470896829683  0.22821602140214 -1.29706635643564
 1  14.91728712371237 -2.06422470627063 -1.03143716421642
 1  16.73053979027903 -1.78351419091909 -0.96583797639764
 1  15.60289300690069 -2.23603322192219  0.48459116041604
 1  15.93100029162916  1.57373046174617  0.68147199079908
 1  16.17314363706371 -0.17721391229123  1.62275427222722
 1  18.10920699799980 -0.37544602320232  0.01058637393739
 1  17.54919764516452  0.97381034413441 -1.01763906850685
 1  18.42551425732573  2.78116684438444  0.72278877387739
 1  18.64044705890589  1.15971480828083  1.78719997559756
 1  20.31777000680068  0.45811654535454  0.18859179627963
 1  19.83151584878488  3.33970610271027 -1.12151712591259
 1  21.12760127732773  2.29893549734974 -1.70662598599860
 1  19.47783601940194  1.94266430303030 -1.79439462066207
 1  21.02024703780378  1.80318986928693  2.30845477327733
 1  21.89725356705670  2.61118923552355  0.73999589938994
 1  20.42443010571057  3.25668533903390  1.53475608000800
 1 -7.03785756825683  1.84552882488249  0.54444770157016
 1 -7.80433179977998 -0.27275215081508 -0.05363868406841

