%nproc=4
%Mem=2GB
# td=(NStates=1) B3LYP/SVP 

TD

0 1
 6 -5.09148199869987 -1.97107691369137  0.45671429652965
 6 -4.71523768196820  2.72543277227723  1.23066974307431
 6 -9.30744998859886  3.37434363066307 -0.18315293149315
 6 -9.76501835293529 -1.49445103970397 -0.92639878527853
 7 -5.20342709070907  0.47724418551855  0.80434789278928
 6 -4.56320441804180 -0.78806779037904  0.73695978157816
 6 -3.04524627832783 -0.58237872137214  1.18028127752775
 6 -3.00670482288229  0.82150726832683  1.76506101150115
 6 -4.36248120622062  1.40773781918192  1.31725363676368
 6 -2.77156365426543  1.02999130013001  3.33511336933693
 6 -2.05085042784278 -0.84326934103410  0.04397100480048
 6 -0.62792118021802 -0.96521537633763  0.36653441854185
 6  0.34589909580958 -1.16590350765077 -0.69354521172117
 8  0.19569930583058 -1.92628231813181 -1.77126958155816
 8  1.57300237543754 -0.61097751625163 -0.34160915291529
 7 -7.05451863286329  2.80536527842784  0.42805339933993
 6 -5.93454763576358  3.38085481798180  0.88971309670967
 6 -6.08186945944594  4.78919700350035  0.99047059875988
 6 -7.45449851435144  5.08507983098310  0.57136236633663
 6 -8.08230368076808  3.73539213811381  0.21406274257426
 6 -5.10023918031803  5.88852263466347  1.51117712161216
 6 -8.17855444364436  6.24983470117012  0.27805285958596
 6 -8.99455697849785  6.66472576317632 -0.70628924522452
 7 -9.23422682198220  0.91902037663766 -0.53916089148915
 6 -9.91597337473747  2.10265356705671 -0.45654446514651
 6 -11.33529976797680  1.84174781428143 -0.78097216851685
 6 -11.44391983248325  0.46171021242124 -0.98840890249025
 6 -10.07659436783679 -0.05189223862386 -0.72071555195520
 6 -12.42001619881988  2.85039760886089 -0.79240366946695
 6 -12.58771886928693 -0.31612071047105 -1.47117935293529
 6 -12.70178464806481 -0.58417306370637 -2.97264444884488
 7 -7.39023214891489 -1.23626794129413 -0.24669101420142
 6 -8.62915890139014 -1.96717333153315 -0.63701062946295
 6 -8.23480708790879 -3.38344294579458 -0.68001173967397
 6 -6.89603163136314 -3.38437432173217 -0.21699380468047
 6 -6.41934047364736 -2.11975377447745 -0.04658250415042
 6 -9.02414639973997 -4.59673307330733 -0.90039254605461
 6 -5.76899302080208 -4.33058828572857  0.00567323692369
 8 -5.65032688878888 -5.56589309800980 -0.09897297689769
 6 -4.57920352495249 -3.34996210891089  0.39538478807881
 6 -3.90144255905591 -3.84115781098110  1.80457234253425
 8 -4.13763637533753 -3.43050400630063  2.86585704970497
 8 -3.09629214491449 -4.81175145644564  1.55732147514751
 6 -2.67639116941694 -5.56582748804880  2.73858032833283
 6  2.57164720812081 -0.89661835243524 -1.26249045434543
 6  3.94933904370437 -0.51826645004500 -0.59753636683668
 6  4.93062536273627  0.24604365196520 -1.15876128072807
 6  4.86852736293629  0.97121096279628 -2.44913745274527
 6  6.18020173227323  0.44532716101610 -0.36798826192619
 6  7.51175540274027 -0.06559589268927 -1.14920227362736
 6  8.77411088808881 -0.01466667356736 -0.19239411931193
 6  10.04016587128713 -0.63504798739874 -0.97266824672467
 6  10.00889468286829 -2.05543070887089 -1.20138425312531
 6  11.27062773737374 -0.23831350195019 -0.01566403440344
 6  12.71912049664967 -0.47261573997400 -0.56731460866087
 6  13.85067147434743  0.03989128602860  0.32801916451645
 6  15.22701452255225 -0.15152818861886 -0.29539337513751
 6  15.57425475307531 -1.76358051995199 -0.49411914741474
 6  16.28194079127913  0.53661457265727  0.58636190059006
 6  17.66266310501050  0.61829756365637 -0.13877838563856
 6  18.62355220622062  1.40594921392139  0.82544123702370
 6  20.08653854975497  1.43423904920492  0.30832359275928
 6  20.25370630013001  1.97293672487249 -1.16554296329633
 6  20.84668513411341  2.28476221232123  1.28926532723272
 1 -3.94308247584758  3.50440682498250  1.57335957425743
 1 -9.92101968696870  4.27798723522352 -0.34095276917692
 1 -10.47588592849285 -2.15361137113711 -1.39196909080908
 1 -2.89085513701370 -1.21307167126713  2.08858065276528
 1 -2.23607417501750  1.59337928902890  1.49356885528553
 1 -1.73818133403340  0.65815323702370  3.63364008930893
 1 -3.03679697999800  1.95069971357136  3.66189529072907
 1 -3.54647522692269  0.45494619691969  3.78727757345735
 1 -2.32765221912191 -1.84182806050605 -0.35340219651965
 1 -2.42272821142114 -0.13702622832283 -0.79514817551755
 1 -0.27703202660266 -0.06893276737674  0.82402843334333
 1 -0.43113612651265 -1.78598777877788  1.20663778277828
 1 -4.29919457685769  5.90376851445145  0.75882902090209
 1 -5.57301852065207  6.74656977567757  1.75111070807081
 1 -4.42190396739674  5.51005085448545  2.36633769436944
 1 -8.13584368326833  7.14567160086009  0.96932823912391
 1 -9.33895928872887  5.95478346384638 -1.47555695169517
 1 -9.47671195039504  7.54104939023902 -0.76812651675168
 1 -12.57181172857286  3.54769526802680  0.10599820122012
 1 -12.32276119841984  3.52858782348235 -1.74314153165317
 1 -13.38286568656866  2.43252887108711 -1.03009605650565
 1 -12.54292911881188 -1.11995212151215 -0.93370794459446
 1 -13.55734647694769  0.14929459085909 -1.05671934923492
 1 -12.75366988198820  0.41409842494249 -3.59433827722772
 1 -11.93031923962396 -1.06955635203520 -3.20616141284128
 1 -13.49930800400040 -1.30357771587159 -3.10992485118512
 1 -9.80390793759376 -4.60232232413241  0.06931112721272
 1 -9.83328523872387 -4.42645965946595 -1.72880340094009
 1 -8.29958166366637 -5.47547832773277 -1.03270792429243
 1 -3.74955068236824 -3.56534388568857 -0.33655671547155
 1 -2.09894676267627 -6.22845944964496  2.34772047604760
 1 -2.14857142884288 -4.99477921692169  3.50062451275128
 1 -3.54829588498850 -6.19034603460346  3.26484800500050
 1  2.38590038183818 -2.01076781788179 -1.89451658495850
 1  2.54498634153415 -0.10676211421142 -2.11601922122212
 1  4.24359579547955 -0.81708977947795  0.44175321972197
 1  5.10656592109211  2.00665836363636 -2.34890747814782
 1  5.63031999579958  0.69433538873887 -3.34190725782578
 1  3.77537402260226  1.00545335123512 -2.87383274017402
 1  6.28300839793979  1.58700184408441 -0.19886508690869
 1  6.16993481928193 -0.23243882918292  0.56342603670367
 1  7.42430308340834 -1.12962700810081 -1.59661450755076
 1  7.69381913301330  0.46346185078508 -2.01373023072307
 1  8.83870831243124  1.07057490899090  0.01678293679368
 1  8.64990772067207 -0.61258834583458  0.70044289718972
 1  10.02187905320532 -0.04690449214922 -2.00260098299830
 1  9.14997218481848 -2.39321798459846 -1.78446767226723
 1  10.97022388338834 -2.50379205560556 -1.78060380598060
 1  9.90794923672367 -2.61508338583858 -0.22776629812981
 1  11.28195238533853  0.95911353515352 -0.25797233463346
 1  11.17960552995300 -0.58230671617162  1.09106962866287
 1  12.84071057905791 -1.56931081008101 -0.55961940474047
 1  12.76057637423742 -0.30261753465347 -1.62489580808081
 1  13.84371540704070  1.34956535233523  0.21373654775478
 1  13.76522135763576 -0.32749570357036  1.35506508270827
 1  15.23355485288529  0.31348454825483 -1.32851950175017
 1  14.82400779577958 -2.35106339013901 -1.11701572207221
 1  16.51817855415542 -1.84718055755576 -0.88007940054005
 1  15.50837355495550 -2.31398101670167  0.61565426672667
 1  15.93614080568057  1.65547863656366  0.78063190679068
 1  16.28715503820382 -0.09135532643264  1.42480447724772
 1  18.08544462176217 -0.51658013661366 -0.43082776747675
 1  17.70167289268927  1.45022798589859 -1.03396070067007
 1  18.38758046394640  2.60804953265327  0.74267076207621
 1  18.71580459465947  1.09767860466047  1.91724297989799
 1  20.48970720052005  0.42917365106511  0.41073401050105
 1  19.81207390459046  2.98936106820682 -1.09916489068907
 1  21.32023054025402  2.12392799659966 -1.08891421482148
 1  19.88172640844084  1.19597963456346 -1.94926010721072
 1  20.70000501360136  1.85759530983098  2.30674460226023
 1  21.93993783548355  2.37755587218722  1.25806770657066
 1  20.53124078677868  3.19700937143714  1.48177078147815
 1 -7.09362314481448  1.83120739273927  0.33287654445445
 1 -7.34771613821382 -0.29009388498850 -0.42488580878088

