%nproc=4
%Mem=2GB
# td=(NStates=1) B3LYP/SVP 

TD

0 1
 6 -5.13190604110411 -1.94199400540054  0.52116074117412
 6 -4.70575673387339  2.80192042104210  1.50035671177118
 6 -9.20295953955396  3.45258145444544 -0.27473208940894
 6 -9.77347919901990 -1.35816741134113 -0.98739488488849
 7 -5.14500124812481  0.45667212831283  0.90196765476548
 6 -4.47777587518752 -0.78126711031103  0.84017010261026
 6 -3.02324407810781 -0.61526200970097  1.27966121552155
 6 -2.97878203060306  0.82157727532753  1.77174167956796
 6 -4.24967992609261  1.38318536393639  1.27473938533853
 6 -2.79152565046505  0.84092239323932  3.28864872287229
 6 -2.05755109790979 -0.84404941904190  0.06852346004600
 6 -0.59357774587459 -0.87582643744374  0.48633639873987
 6  0.36640114601460 -1.23171008830883 -0.60263612081208
 8 -0.01530179427943 -1.66002569246925 -1.72225468006801
 8  1.59902497769777 -0.97633405190519 -0.34180917291729
 7 -6.93862704370437  2.86089083098310  0.50557115111511
 6 -5.78664284528453  3.43931066356636  1.03392751815182
 6 -6.08649992249225  4.74692277607761  1.12006355805581
 6 -7.42011507600760  5.05497682068207  0.61951718181818
 6 -7.90582603300330  3.75248384728473  0.22834417071707
 6 -5.13118227462746  5.78869265166517  1.55425142904290
 6 -7.93139972817282  6.37170688838884  0.36755180948095
 6 -8.90087761056106  6.68928821942194 -0.57420603690369
 7 -9.09145254455446  1.03103157775778 -0.55441241664166
 6 -9.81126290369037  2.16224952665266 -0.54978378907891
 6 -11.15820205820582  1.93096673617362 -0.96591066236624
 6 -11.37301274177418  0.63703774517452 -1.15675573717372
 6 -9.99752646104610 -0.00432748214821 -0.88883236363636
 6 -12.19191338853885  3.09585215431543 -1.00941537063706
 6 -12.50319041644164 -0.06715581398140 -1.62312454745475
 6 -12.59714418401840 -0.48983362976298 -3.11862904730473
 7 -7.53793691939194 -1.26234054855486 -0.12181852695270
 6 -8.59789577507751 -2.02978959315932 -0.63514044244424
 6 -8.13874748194820 -3.42096669816982 -0.63579731823182
 6 -6.80839286748675 -3.45645152945295 -0.32244434973497
 6 -6.42922146174617 -2.09082088118812  0.00549270337034
 6 -9.09323330843084 -4.56177957795780 -1.09764227102710
 6 -5.72553867536754 -4.29282450935094 -0.04723205360536
 8 -5.68900075617562 -5.52600910961096 -0.04830791039104
 6 -4.48767437203720 -3.42929004170417  0.50095534513451
 6 -4.07263967876788 -3.85471916711671  1.91845373067307
 8 -4.30069268096810 -3.36904786068607  2.89709017301730
 8 -3.34347686338634 -4.97090737203720  1.73777952095210
 6 -2.82594612491249 -5.62055296059606  2.89799626992699
 6  2.67590763416342 -1.24607329792979 -1.25570977627763
 6  3.94349845964596 -0.87134175757576 -0.60386699989999
 6  4.93687598779878 -0.11059201160116 -1.20816622122212
 6  4.75933644384438  0.65997983968397 -2.58476101510151
 6  6.15691940404040  0.15252788108811 -0.45720718381838
 6  7.47035126232623 -0.38894822792279 -1.17307466086609
 6  8.69675315231523 -0.27749295619562 -0.39723460336034
 6  10.06885874057406 -0.69241372397240 -0.94131511141114
 6  10.12425621902190 -2.27958312411241 -1.05195931063106
 6  11.23234390899090 -0.23183285388539 -0.06150861886189
 6  12.56197478207821 -0.42822130053005 -0.76550442764276
 6  13.73019942714271  0.03051034793479  0.09151551415142
 6  15.26880870197020 -0.19737277307731 -0.29133296909691
 6  15.64088141574157 -1.67238140004000 -0.39277901340134
 6  16.23604620182018  0.61931284248425  0.57413067746775
 6  17.57920475917592  0.80876661056106 -0.17560206800680
 6  18.46731658265826  1.68658727772777  0.77467616051605
 6  19.94461435733573  1.91359698499850  0.27162992339234
 6  19.95262619211921  2.45252468366837 -1.06277268626863
 6  20.81163162876288  2.57250098619862  1.26106250695070
 1 -3.85083325092509  3.45869225352535  1.86254849314931
 1 -9.94081166616662  4.13316275277528 -0.26239491339134
 1 -10.65909424932493 -1.86215222522252 -1.26422631653165
 1 -2.73302935443544 -1.46359672377238  1.95611740644064
 1 -2.11437200480048  1.43394334543454  1.32405190359036
 1 -1.85013252915292  0.37665508720872  3.38040476577658
 1 -2.84821812211221  1.77357200080008  3.62553165436544
 1 -3.56747732713271  0.24889559185919  3.94949379507951
 1 -2.20167962186219 -1.80462434013401 -0.32923978027803
 1 -2.25006094469447 -0.14567709340934 -0.74410307100710
 1 -0.30443476687669  0.13358748464846  0.82128815931593
 1 -0.53555656855686 -1.66649582958296  1.32711983098310
 1 -4.07784244164416  5.70061819941994  1.32162530053005
 1 -5.54358557735774  6.84513963266327  1.28237383438344
 1 -4.94252602960296  5.82066191559156  2.84297535813581
 1 -7.77296739563956  7.16644367806781  0.93202450875088
 1 -9.03858925172517  5.96562454795480 -1.18502789878988
 1 -9.51560583978398  7.60807609290929 -0.44719442354235
 1 -12.17498204560456  3.56405690419042 -0.03544594319432
 1 -11.74212313461346  3.80171513621362 -1.67257447494749
 1 -13.13429082908291  2.64619023722372 -1.25569861676168
 1 -12.44243906980698 -1.00723084938494 -1.10597517131713
 1 -13.47382812511251  0.39132879427943 -1.37859153645365
 1 -12.38751326632663  0.44279129422942 -3.79708855225523
 1 -11.72423863156316 -1.17295669206921 -3.39712050875087
 1 -13.43962203540354 -1.05066242434243 -3.37281113981398
 1 -10.03040058685869 -4.44683677557756 -0.50172597649765
 1 -9.51513342354235 -4.50027704120412 -2.08249877047705
 1 -8.74263596909691 -5.56854763466347 -1.11334598809881
 1 -3.84703043034303 -3.63250060136014 -0.23422648244824
 1 -1.95088195619562 -6.28875547924792  2.62902860686069
 1 -2.40571714341434 -4.89897963696370  3.54087853815381
 1 -3.57561861726173 -6.23107010701070  3.62445396559656
 1  2.84876666846685 -2.40084682578258 -1.50091722502250
 1  2.65661750465047 -0.71438287628763 -2.08954657395740
 1  4.07552898879888 -1.26631470197020  0.28806785118512
 1  4.77285254975497  1.77690538833883 -2.43146573397340
 1  5.44291125492549  0.23068902410241 -3.43928699579958
 1  3.74690117531753  0.54175698159816 -2.93057841474147
 1  6.21112120922092  1.25797894179418 -0.23582878327833
 1  6.20143796959696 -0.26131171647165  0.54946464056406
 1  7.13894454755476 -1.51980602600260 -1.14973982008201
 1  7.47284703580358  0.05081058565857 -2.07147600530053
 1  8.82196663826383  0.87961581308131 -0.09436817831783
 1  8.43533626352635 -0.62192927992799  0.52908576147615
 1  10.19407627292729 -0.12727252895290 -1.87865858875888
 1  9.28546573417342 -2.80926958975898 -1.67941716721672
 1  11.10862772377238 -2.66268794519452 -1.58545429102910
 1  9.73548198999900 -2.72234411191119 -0.12985650715072
 1  10.98363255335533  0.81965958975898  0.05885934853485
 1  11.31944951435143 -0.99816830233023  0.94462498419842
 1  12.69701620962096 -1.44935881488149 -1.13574701750175
 1  12.57788810541054 -0.10642791569157 -1.86231955045505
 1  13.65485652115211  1.00284067986799  0.14854002810281
 1  13.66509134463446 -0.35793874787479  1.05314489068907
 1  15.12299379677968  0.19279247904790 -1.39874652445244
 1  14.95999139413941 -2.35041332513251 -1.03881790229023
 1  16.74864160046005 -1.83884972447245 -0.88576996959696
 1  15.39485220282028 -2.24265388398840  0.55764846614661
 1  15.86941413301330  1.56432952165217  0.55190903450345
 1  16.24498082078208  0.24542835193519  1.68879087588759
 1  18.16056213351335 -0.12763124172417 -0.37565224992499
 1  17.53843656905691  1.12410537363736 -1.31635894049405
 1  18.27695940184018  2.82252097979798  0.80868736373637
 1  18.61180419461946  1.29984882168217  1.89264051965197
 1  20.33602183198320  0.75901663536354  0.28465140224022
 1  19.59380207740774  3.42780491259126 -0.86761173537354
 1  20.91917043424342  2.64920052385238 -1.41890721412141
 1  19.59862809860986  1.81374141074107 -1.85632081328133
 1  20.69674468756876  2.18719827012701  2.35546947474747
 1  21.76811065276528  2.66847496409641  0.90891279107911
 1  20.43719138183819  3.54057372787279  1.46237884228423
 1 -7.10049383188319  1.85405967796780  0.32641589838984
 1 -7.34580594719472 -0.25314018961896 -0.24347766796680

