%nproc=4
%Mem=2GB
# td=(NStates=1) B3LYP/SVP 

TD

0 1
 6 -5.21751460196020 -1.98334814081408  0.39437806290629
 6 -4.70494665286529  2.72792302130213  1.42270894699470
 6 -9.15997524112411  3.35375157145715 -0.25988060426043
 6 -9.84275612671267 -1.34132572717272 -1.00504665006501
 7 -5.12311905990599  0.39851631273127  0.88323578157816
 6 -4.54534263186319 -0.72074105770577  0.91599768536854
 6 -3.03720547424742 -0.60279076257626  1.21316456585659
 6 -2.95213936633663  0.86453157075708  1.83424793019302
 6 -4.36639159725973  1.35259230463046  1.45130704210421
 6 -2.69861635953595  0.87623592459246  3.32760261826183
 6 -2.09369471227123 -0.88119313341334  0.05267187488749
 6 -0.66766515461546 -0.97377623242324  0.53663142824282
 6  0.38747325322532 -1.22487940524052 -0.62622848004800
 8  0.20007974387439 -1.61803149304931 -1.72803525812581
 8  1.61784685988599 -1.00105652415242 -0.13735872787279
 7 -6.99481266226623  2.72787752965296  0.46845743974397
 6 -5.84358853985399  3.39071580408041  0.93344747014701
 6 -6.02118339083908  4.77872595639564  0.95497704940494
 6 -7.31869493399340  5.09359068206821  0.54863009310931
 6 -7.87745319571957  3.68947754665467  0.20357169346935
 6 -5.01929108550855  5.74117790019002  1.65686169006901
 6 -7.89516610481048  6.32613233093309  0.34796985128513
 6 -8.92331985478548  6.69501879247925 -0.39528814511451
 7 -9.12348574787479  0.94197267186719 -0.56225320072007
 6 -9.77707948534854  2.11334463616362 -0.55265407610761
 6 -11.19663590159016  1.96589022852285 -0.86560063136314
 6 -11.34382982348235  0.68268230963096 -1.16148621022102
 6 -10.05695240364036  0.01635458605861 -0.95587906830683
 6 -12.17184138133813  3.13851642074207 -0.98463289238924
 6 -12.50877097449745 -0.08340743914391 -1.79560179517952
 6 -12.54522899249925 -0.38077272367237 -3.30536772117212
 7 -7.51343446914692 -1.26973128762876 -0.19762610771077
 6 -8.63804979047905 -1.95205181938194 -0.62012894129413
 6 -8.23215682288229 -3.31551615311531 -0.71793553205321
 6 -6.85998802700270 -3.44251013531353 -0.27227933323332
 6 -6.48347688728873 -2.07738953805381  0.03743589768977
 6 -9.05554954005400 -4.47260066006601 -0.98411091789179
 6 -5.78882500400040 -4.27895312221222  0.05991866146615
 8 -5.81549340544054 -5.53533004170417  0.03026994739474
 6 -4.52300790539054 -3.40072718541854  0.39658490809081
 6 -4.03597601240124 -3.89227292249225  1.73374525982598
 8 -4.29083169486949 -3.53947490339034  2.85871633563356
 8 -3.12167468316832 -4.93573385468547  1.51921766476648
 6 -2.77636116641664 -5.63623452875288  2.71614808510851
 6  2.64362440584058 -1.12789147974797 -1.11345555085509
 6  4.00186429622962 -0.67667229062906 -0.56686329952995
 6  5.00192249244924  0.01480052765277 -1.20017542214221
 6  4.87611812201220  0.52569641134113 -2.59312185118512
 6  6.28311202330233  0.25975860416042 -0.33451491459146
 6  7.45179940714071 -0.47475680878088 -0.96033338673867
 6  8.61669514651465 -0.11814702160216 -0.25010989088909
 6  9.95444729942994 -0.78312279487949 -0.70492147204720
 6  9.95400919431943 -2.26810197599760 -0.77737185188519
 6  11.22247292189219 -0.33659332993299  0.12772030403040
 6  12.63452203680368 -0.72386086448645 -0.44606248344834
 6  13.75917232443244 -0.03026572967297  0.27994435703570
 6  15.17081890299030 -0.21590462626263 -0.31212504830483
 6  15.55335266286629 -1.64034819671967 -0.29205894139414
 6  16.18617121432143  0.80763167436744  0.40929419381938
 6  17.52331917061706  0.91537727162716 -0.20651515931593
 6  18.44901475247525  1.85570418941894  0.47868656155616
 6  19.88687858375837  1.82079770507051  0.05431819221922
 6  20.04179510901090  2.44126355755576 -1.35262167116712
 6  20.81482194779478  2.51096483258326  0.99396579727973
 1 -3.99738790639064  3.37485386968697  1.97364960326033
 1 -9.99562714771477  4.05345478197820 -0.31330000390039
 1 -10.73567190709071 -1.77301331133113 -1.50375026892689
 1 -2.78195424692469 -1.39330969506951  1.96478827352735
 1 -2.18566913451345  1.38380833193319  1.42214171257126
 1 -1.64208172407241  0.44773219491949  3.66542326762676
 1 -3.01428472877288  1.97596223982398  3.57870697189719
 1 -3.52954353375338  0.44356505880588  3.90381922762276
 1 -2.34617407130713 -1.85978985668567 -0.38098495479548
 1 -2.01904784338434 -0.18303082878288 -0.83336199689969
 1 -0.25140946434644 -0.05744161826183  1.12285831633163
 1 -0.49100211311131 -1.86330551055105  0.99717683668367
 1 -4.11748640604060  5.60547868546855  1.15299843784378
 1 -5.51326254505451  6.73587870657066  1.59882547954796
 1 -4.75921769876988  5.41429127852785  2.74021508210821
 1 -7.45032513141314  7.28170520422042  0.83364467076708
 1 -9.50123551635163  6.11204919041904 -1.13537293329333
 1 -9.38501278047805  7.66773205850585 -0.17242694679468
 1 -12.59064361176118  3.48228872737274  0.01415901730173
 1 -11.69154807710771  3.85899086378638 -1.58023524102410
 1 -13.25205260526053  2.85139075727573 -1.33633668056806
 1 -12.62917774367437 -0.87044717101710 -1.15491006480648
 1 -13.47359810211021  0.46958662006201 -1.64160783808381
 1 -12.37673218821882  0.61514852995300 -3.93435227862786
 1 -11.69910611831183 -1.08840823722372 -3.63050384708471
 1 -13.45597367056706 -0.82644000210021 -3.58496235493549
 1 -10.03462100890089 -4.59890198209821 -0.32063786768677
 1 -9.51304321452145 -4.48303531703170 -2.05645616621662
 1 -8.36400810631063 -5.30362114201420 -0.93483813731373
 1 -4.07611333863386 -3.67722507380738 -0.39830289008901
 1 -2.14098096609661 -6.26312291599160  2.28320402440244
 1 -2.25598216991699 -5.06975671467147  3.37824227452745
 1 -3.42119317471747 -6.20693769376938  3.37614913511351
 1  2.99397118891889 -2.23291003210321 -1.27193432673267
 1  2.29363120602060 -0.67204864286429 -1.91022864216422
 1  4.23605504140414 -1.19133720422042  0.51458050245024
 1  4.95495075957596  1.55998369616962 -2.62511509890989
 1  5.42975993979398 -0.22156620142014 -3.41830489758976
 1  3.78165465066507  0.75835864176418 -2.86934229112911
 1  6.48502859996000  1.38726187008701 -0.45774097449745
 1  6.17441526732673 -0.09122470777078  0.72094178827883
 1  7.18947960106011 -1.46025007040704 -0.59291413751375
 1  7.53506325742574 -0.21727622302230 -1.98141699939994
 1  8.70813525512551  0.95502335383538 -0.22365110661066
 1  8.38363109300930 -0.46494358135814  0.70827368026803
 1  10.08180504580458 -0.28650845254525 -1.75825654855485
 1  9.03279046664666 -2.45401406420642 -1.40171939743974
 1  10.92173903490349 -2.81555323172317 -1.11543728932893
 1  9.85825426722672 -2.80903278077808  0.16436291479148
 1  11.28995318541854  0.74826245004500  0.01932539513951
 1  11.41494906430643 -0.71480996649665  1.11822234393439
 1  12.79353586158616 -1.80588446744675 -0.43690713351335
 1  12.73711402800280 -0.40040731363136 -1.51363468196820
 1  13.40149118461846  0.94323471927193  0.46700187428743
 1  13.75303013851385 -0.43962691669167  1.30127970417042
 1  15.01563306070607  0.05451865166517 -1.33323997379738
 1  15.03506890189019 -2.34319260306031 -1.07366138663866
 1  16.80362709900990 -1.62058789828983 -0.77619901250125
 1  15.96867958555856 -1.89229884848485  0.54911761306131
 1  15.70266745834583  1.69639272797280  0.29747359095910
 1  16.38399472217222  0.65380919001900  1.51850384718472
 1  17.85974205150515  0.00129165056506 -0.32898758345835
 1  17.56513923932393  1.21705466856686 -1.30564786938694
 1  17.96561826772678  2.90188891659166  0.32406890189019
 1  18.62558557275728  1.66398523532353  1.61506276187619
 1  20.32271050085009  0.76034676837684  0.06527946504650
 1  19.72880557775778  3.69423155525553 -1.26366134033403
 1  20.97958647584758  2.36649225302530 -1.91444676807681
 1  19.42738097389739  2.10934097069707 -2.02217739893989
 1  20.75781079417942  1.79267881818182  2.00506443424342
 1  21.69181302300230  2.45543365996600  0.61695359515952
 1  20.66047371007101  3.52233190369037  1.24486709110911
 1 -6.84164794729473  1.83063733573357  0.25153841064106
 1 -7.48500986758676 -0.28347322292229 -0.26205952615262

