%nproc=4
%Mem=2GB
# td=(NStates=1) B3LYP/SVP 

TD

0 1
 6 -5.09318216871687 -1.91079088508851  0.48563718881888
 6 -4.81525768396840  2.76768699769977  1.55968264436444
 6 -9.35269451305130  3.28685488178818 -0.13702831903190
 6 -9.73522537363736 -1.37880947554755 -1.06215236063606
 7 -5.21912866086609  0.42104856595660  0.84025148314832
 6 -4.45062315991599 -0.66664564816482  0.71126721232123
 6 -3.01138289198920 -0.47661814531453  1.18550179957996
 6 -3.04856900930093  0.95723084068407  1.77023152855286
 6 -4.52229718781878  1.43137018241824  1.43242515391539
 6 -2.87856435433543  0.90340864186419  3.28156801480148
 6 -1.98648399119912 -0.68639365346535  0.07635424312431
 6 -0.53206159425943 -0.71796065086509  0.41145891099110
 6  0.44036854275428 -0.93963088038804 -0.68037389458946
 8  0.14306404230423 -1.38729841974197 -1.72019447404740
 8  1.68965404060406 -0.95163158165817 -0.20252524452445
 7 -7.10257343834383  2.81415615751575  0.46377697169717
 6 -6.02623680468047  3.39206593909391  1.20870499589959
 6 -6.27832910541054  4.79856794059406  1.21286283798380
 6 -7.56176924142414  4.92178350135014  0.71301653175318
 6 -8.14682013241324  3.66053465236524  0.28235957225723
 6 -5.29434859125913  5.81775555795580  1.68531453535354
 6 -8.26532312051205  6.25362508020802  0.52995805010501
 6 -9.02615013781378  6.64350364096410 -0.32979159545955
 7 -9.15946934623462  0.90073854845485 -0.51824880028003
 6 -9.85564734213421  1.99632293399340 -0.47809662036204
 6 -11.26467270527053  1.80438407790779 -0.95935000630063
 6 -11.33933937443744  0.53224726612661 -1.25534559615962
 6 -10.06130283868387 -0.05969301870187 -0.96846032643264
 6 -12.31737593479348  2.90884345344534 -1.12974740384038
 6 -12.58447854525452 -0.29732883128313 -1.76209844484448
 6 -12.50129459905991 -0.54105875227523 -3.27866505090509
 7 -7.45697882358236 -1.23384769926993 -0.30661700680068
 6 -8.57150313581358 -1.98224483868387 -0.78110503890389
 6 -8.14989859705971 -3.39369397089709 -0.64482822132213
 6 -6.73987601580158 -3.38131401570157 -0.19014111941194
 6 -6.37855639523952 -2.02906470557056  0.07484963906391
 6 -9.05088907400740 -4.48024142414241 -1.06837934473447
 6 -5.65076119761976 -4.27180240714072  0.02840551015102
 8 -5.50695255135514 -5.54096060476048  0.01247816821682
 6 -4.50146575117512 -3.33451056375638  0.51876712631263
 6 -3.81264367916792 -3.76269996519652  1.83182506780678
 8 -3.97100971267127 -3.16387734363436  2.83145360936094
 8 -3.09748226392639 -4.88557883918392  1.58556429942994
 6 -2.47527105740574 -5.44267517281728  2.75181165146515
 6  2.68639868326833 -1.22220091069107 -1.27776198149815
 6  3.98543265306531 -0.74513913731373 -0.73746035923592
 6  4.88118041824182  0.12561160876088 -1.35492089668967
 6  4.82221273147315  0.69346318801880 -2.81044358335834
 6  6.13826753885389  0.44640726902690 -0.66219768286829
 6  7.42906713391339 -0.33757309040904 -0.97091444484448
 6  8.70658413541354 -0.03933914081408 -0.27479235913591
 6  10.01243309800980 -0.78307278987899 -0.75422640254025
 6  9.84713850725073 -2.35434059985999 -0.67648176287629
 6  11.26846752135213 -0.19558922952295  0.04386191819182
 6  12.54448303290329 -0.57662614101410 -0.57916579377938
 6  13.74001040824082 -0.10699340244024  0.30398676127613
 6  15.18742056315632 -0.33252628842884 -0.25799963576358
 6  15.54988231583158 -1.77439160106011 -0.07891762726273
 6  16.27659025622562  0.70387129832983  0.33936720112011
 6  17.64398123682368  0.71840757465747 -0.11586609440944
 6  18.55792564356436  1.63944256325633  0.69792848574857
 6  19.96732662856286  1.54433005830583  0.07109987038704
 6  20.12345327482748  2.00279971117112 -1.29112552155216
 6  21.00634109970997  2.26129986608661  0.97856425712571
 1 -3.96727489508951  3.36633301760176  2.07114935323532
 1 -10.23460104510451  3.99233867036704 -0.07154582848285
 1 -10.47651599149915 -2.12302831283128 -1.51983187708771
 1 -2.94247029852985 -1.08610897499750  2.05345714041404
 1 -2.18392896049605  1.54233418451845  1.15169466786679
 1 -1.68569608550855  0.81364878657866  3.61376810211021
 1 -3.02452575287529  1.87870251385139  3.84997409860986
 1 -3.62394297369737  0.30804150645065  3.79255810151015
 1 -2.14385383928393 -1.74295817351735 -0.32143900020002
 1 -2.11988792739274  0.06336381068107 -0.68778743944395
 1 -0.39234355775578  0.11924605050505  0.97633366386639
 1 -0.29618263116312 -1.32885206520652  1.33762088108811
 1 -4.61051570897090  6.12225036263626  0.75822896089609
 1 -5.90612183098310  6.76857197589759  1.76752234923492
 1 -4.94857663466347  5.48452830223022  2.66294735533553
 1 -7.76399649854986  6.93366039973997  1.41323262956296
 1 -9.31017641044104  5.75431341684168 -1.09938933493349
 1 -9.65182946214621  7.54525981128113 -0.45236494059406
 1 -12.89432397979798  3.39279977847785 -0.08214061266127
 1 -11.82816173847385  3.79590455515552 -1.71988920642064
 1 -13.32488988898890  2.46681229942994 -1.71775482238224
 1 -12.39179400530053 -1.23431355765577 -1.09403397719772
 1 -13.47832857515752  0.15137479887989 -1.56254993229323
 1 -12.67098161316132  0.49889690479048 -3.74927377077708
 1 -11.44974118181818 -0.66801619801980 -3.45649644634463
 1 -13.19403747694770 -1.36623398149815 -3.70087394609461
 1 -9.59776732353235 -4.79689178107811 -0.17098290219022
 1 -9.81155306550655 -4.38411542504250 -2.12817333793379
 1 -8.37124883038304 -5.51418219811981 -1.40595524902490
 1 -3.73658938623862 -3.45321267256726 -0.20327338713871
 1 -1.84423129112911 -6.24995159885989  2.20140584458446
 1 -1.85258182988299 -4.74096383538354  3.34270872117212
 1 -3.31199225462546 -5.78816581658166  3.49190071027103
 1  2.59020081188119 -2.37517425852585 -1.38039517281728
 1  2.52447429032903 -0.87064850285029 -2.29962758205821
 1  4.20176161206121 -1.22413048354835  0.19783882828283
 1  5.15493075757576  1.89998769656966 -2.80760334773477
 1  5.59433639743974  0.21371732693269 -3.52089515661566
 1  3.83587007220722  0.79858266416642 -3.34324968186819
 1  6.30832092919292  1.53461660556056 -0.73610881128113
 1  6.09325715151515  0.39195361006101  0.57472716681668
 1  7.22042269536954 -1.56614065946595 -0.80142498859886
 1  7.80336008710871 -0.37506200160016 -2.15457431513151
 1  8.90232467406741  1.01870972247225 -0.32466120762076
 1  8.55332806270627 -0.17630471747175  0.81125397829783
 1  10.06162302760276 -0.70175997769777 -1.81245196809681
 1  9.10359754735474 -2.84425308810881 -1.27931715721572
 1  10.83421028202820 -2.68492016841684 -1.08042378797880
 1  9.69054749654966 -2.53058493599360  0.30155663416342
 1  11.07394158425842  0.91761938573857  0.04453791639164
 1  10.96517408680868 -0.46698518401840  1.11710223192319
 1  12.76390289828983 -1.64727860686069 -0.88680212301230
 1  12.78920923752375  0.10652337943794 -1.39369268776878
 1  13.66224726022602  1.01201159695970  0.61576675077508
 1  13.50906574207421 -0.50689364336434  1.42341191739174
 1  15.16252775017502 -0.11537833803380 -1.42150880068007
 1  14.85455085008501 -2.42211049484949 -0.78909292979298
 1  16.62357909420942 -1.97264310381038 -0.29890128272827
 1  15.32794551215122 -2.10028964756476  0.92323502480248
 1  15.85214240584058  1.85594868356836  0.38407225082508
 1  16.31825814851485  0.17149095819582  1.52884488128813
 1  18.12327840514051 -0.27678615721572 -0.09939462416242
 1  17.71135386078608  1.05913887698770 -1.18818612321232
 1  18.34932663856386  2.66398512621262  1.00904739973997
 1  18.74549756395640  1.56877571437144  1.66974823042304
 1  19.89572780258026  0.45406614031403  0.11922485958596
 1  19.93752644984498  3.16532866496650 -1.25334030823082
 1  21.21772028922892  1.74977058085809 -1.61360668406841
 1  19.48210644644464  1.65261529812981 -2.06957213841384
 1  20.83579859295930  2.17151670197020  2.08715264306431
 1  21.98143198489849  2.32459057565757  0.49541144094409
 1  20.82671033373337  3.29379905040504  1.19217182158216
 1 -7.10462424492449  1.91502577457746  0.58736199299930
 1 -7.32518388498850 -0.12853772937294 -0.28668198839884

