%nproc=4
%Mem=2GB
# td=(NStates=1) B3LYP/SVP 

TD

0 1
 6 -5.09842269276928 -1.96773657965797  0.42654127922792
 6 -4.72454861306131  2.81173140214021  1.28558523462346
 6 -9.32835207880788  3.39483567986799 -0.21144576077608
 6 -9.74687653875388 -1.44664625922592 -1.09332547794779
 7 -5.11655840384038  0.39324578567857  0.66330378837884
 6 -4.43390148774878 -0.74585356895690  0.75688177377738
 6 -3.04177593129313 -0.58056854035404  1.15001825122512
 6 -3.02046619901990  0.83063818141814  1.68898340374037
 6 -4.37816277437744  1.40223726912691  1.18208011941194
 6 -2.87131362926293  0.97240554155416  3.20200005800580
 6 -1.99097444024402 -0.75215022912291  0.01634824252425
 6 -0.62144053215322 -0.86052490729073  0.47638540364036
 6  0.40125463136314 -1.07200411771177 -0.60346620382038
 8  0.06601633753375 -1.36721641154115 -1.76622907750775
 8  1.62086716191619 -1.00168658715872 -0.12435742774277
 7 -7.09895307630763  2.76229097099710  0.56296689068907
 6 -5.97835201620162  3.43743047554755  1.01398552395240
 6 -6.28472974547455  4.80409849364936  1.05523707540754
 6 -7.52280534503450  5.04046536953695  0.68056328642864
 6 -8.04685013541354  3.69556815571557  0.24262559885989
 6 -5.24864402080208  5.77825160756076  1.63310931483148
 6 -8.25641222942294  6.29602932063206  0.51977703200320
 6 -9.15230275307531  6.70893018361836 -0.30909952625263
 7 -9.13051645094509  0.95538401300130 -0.57326430183018
 6 -9.78670044744474  2.12574587628763 -0.60512932363236
 6 -11.24984122212221  1.89145278477848 -0.90343441474147
 6 -11.37428286878688  0.52441648304830 -1.12191225282528
 6 -9.99992670107011 -0.01509855925593 -0.95967944834483
 6 -12.25448964616462  2.99098166726673 -0.91887631673167
 6 -12.64336443384338 -0.13405250365036 -1.66212844784478
 6 -12.59803427302730 -0.32512715911591 -3.19264644904490
 7 -7.40618374407441 -1.20788510301030 -0.36345269036904
 6 -8.50726671217122 -1.97003361756176 -0.71608853725373
 6 -8.27038064526453 -3.28967356885689 -0.63468720722072
 6 -6.90856288448845 -3.43745963026303 -0.28196030133013
 6 -6.41414995459546 -1.96836863596360 -0.09888773467347
 6 -9.12075606070607 -4.53271667166717 -1.00013252005201
 6 -5.79407552905290 -4.39097432433243  0.06631930153015
 8 -5.85539739583958 -5.53428993769377  0.10402732313231
 6 -4.56496210081008 -3.41208832153215  0.43263851345135
 6 -3.96058847364736 -3.84696839203920  1.80783266856686
 8 -4.15169778147815 -3.31788274417442  2.86090655465547
 8 -3.15621813751375 -4.87881816311631  1.50584632763276
 6 -2.49854338463846 -5.42238314361436  2.73069954025403
 6  2.69673971737174 -1.23747243784378 -1.03544775007501
 6  4.02171628142814 -0.82902752615262 -0.44544115731573
 6  5.03473577377738 -0.03584453685369 -1.10399580418042
 6  5.00161067126713  0.55945978767877 -2.53167570657066
 6  6.29763347544754  0.21538416671667 -0.32269373247325
 6  7.54125835303530 -0.43807314041404 -0.93342069546955
 6  8.74953843084309 -0.29353456035604 -0.08218309820982
 6  10.08831068576858 -0.85406988958896 -0.76055703560356
 6  10.08967276067607 -2.39723488928893 -0.84713882858286
 6  11.28897957255726 -0.40549021962196  0.19148668066807
 6  12.60974955955596 -0.65307378577858 -0.52226010321032
 6  13.73795020222022 -0.05806850995100  0.27723408600860
 6  15.17987980908091 -0.06058909470947 -0.37874170997100
 6  15.67023435103510 -1.56650081198120 -0.47791752725273
 6  16.23385598279828  0.76276718791879  0.42718598299830
 6  17.56524336303630  0.67552328622862 -0.16959146694669
 6  18.52042189318932  1.78664728372837  0.53453214611461
 6  19.96098599449945  1.76327195249525  0.13160592099210
 6  20.28240917041704  2.01851128232823 -1.40594700370037
 6  20.87619808540854  2.74428816491649  1.09953635433543
 1 -3.74388255585559  3.43503988828883  1.54198643694370
 1 -9.98723630863086  4.32160159665967 -0.29069774367437
 1 -10.58344668456846 -2.34967097709771 -1.39295918981898
 1 -2.67998404990499 -1.30789115321532  2.09526132083208
 1 -2.16725729332933  1.38523847494750  1.39682918131813
 1 -1.84007152305231  0.48405582728273  3.32632935823582
 1 -2.96493979427943  1.93552819641964  3.75928502970297
 1 -3.50525110451045  0.10148085038504  3.71031987768777
 1 -2.07379683358336 -1.79797367506751 -0.31657851415141
 1 -2.20260619921992  0.13695116941694 -0.88353701440144
 1 -0.52363668706871  0.22339646554655  0.94293032353235
 1 -0.40611362426243 -1.66877605760576  1.07932505150515
 1 -4.31659631703170  5.98531666926693  0.99807294529453
 1 -5.88311953075308  6.83449856855686  1.66137173417342
 1 -4.79400117711771  5.19620947034704  2.48244930553055
 1 -8.05335543444344  6.92085911961196  1.43205451175118
 1 -9.54887027982798  6.09555754125413 -1.11623101910191
 1 -9.56962124132413  7.73262854815481 -0.28454815891589
 1 -12.21780632803280  3.52156265476548  0.00069767116712
 1 -12.15987490979098  3.76573153785378 -1.73463068056806
 1 -13.32714011401140  2.46120173837384 -0.83791683858386
 1 -12.74632945884589 -1.26680680698070 -1.19740431423142
 1 -13.59607034933493  0.46526618801880 -1.25894957225723
 1 -12.66603111811181  0.54126114121412 -3.91165000840084
 1 -11.93065927362736 -0.97663706010601 -3.45041583828383
 1 -13.61056913011301 -0.59950730883088 -3.58506236493649
 1 -9.94691223802380 -4.66787887978798 -0.40659646354635
 1 -9.41206311651165 -4.49778679217922 -2.00662118271827
 1 -8.51835354085409 -5.53561434133413 -1.03088774227423
 1 -3.75921164846485 -3.53175052635263 -0.29498255805581
 1 -1.70678754675468 -6.18195479917992  2.27683338733873
 1 -1.90849742144214 -4.76973671267127  3.14783923422342
 1 -3.28626968236824 -6.13199019901990  3.25252677287729
 1  2.49256104790479 -2.20437717881788 -1.22468960226023
 1  2.54185602850285 -0.76271770977098 -2.02834045334533
 1  4.04412584848485 -1.04502257275727  0.63980302470247
 1  5.24602986748675  1.71050874867487 -2.48378096549655
 1  5.76276324012401  0.11284723992399 -3.23540660776078
 1  4.03997048224822  0.44576738263826 -2.90273563046305
 1  6.44383448054805  1.29727287118712 -0.25987118751875
 1  6.05218304410441 -0.37519310461046  0.49521921602160
 1  7.33140379347935 -1.60523456885689 -0.97548239433943
 1  7.72707245834583 -0.01573606900690 -1.92514137183718
 1  9.19117355895589  0.81209906140614 -0.08706744824483
 1  8.69721245114511 -0.80126721372137  0.95197805070507
 1  10.38248511381138 -0.12689249094909 -1.76628735163516
 1  9.29027621522152 -2.75215387818782 -1.35912513801380
 1  11.01728858985899 -2.90352202860286 -1.35011075667567
 1  9.88570701250125 -2.74942682018202  0.10673715221522
 1  11.22676686678668  0.66159378317832  0.37696115871587
 1  11.04164173357336 -0.80402888838884  1.07902842454245
 1  12.71815832383238 -1.70807468646865 -0.81142458525853
 1  12.56347666426643  0.05505823292329 -1.44587790629063
 1  13.59813084858486  1.01379177497750  0.41430660476048
 1  13.79745458095810 -0.46319927392739  1.28111768796880
 1  15.09843134053405  0.38530172997300 -1.48758540834083
 1  14.99476487148715 -2.14616290009001 -0.98968298879888
 1  16.54390112641264 -1.91288712821282 -1.06977837043704
 1  15.78367108470847 -1.94690430903090  0.66724942624262
 1  16.09747693929393  1.76151924062406  0.26546038963896
 1  16.24206052875288  0.40936474557456  1.44958695549555
 1  18.00201627892789 -0.26356483508351 -0.10547523222322
 1  17.55702842824282  0.93513647674767 -1.35122242684268
 1  18.01376308220822  2.89132786048605  0.42918941394139
 1  18.48989200340034  1.50556939373937  1.65936719231923
 1  20.39495772557256  0.85357609130913  0.45349828692869
 1  19.77914061126113  2.86704883698370 -1.61640661486149
 1  21.35441395859586  2.04405000880088 -1.69103442684268
 1  20.09604784058406  1.17939797639764 -2.13943912511251
 1  20.64230924402440  2.41319086938694  2.16769069686969
 1  21.76783062476247  2.58402651925192  0.97469936973697
 1  20.65461312401240  3.89494916541654  1.05840844524453
 1 -7.04200798329833  1.74342861486149  0.52884614141414
 1 -7.50287165376538 -0.21004588018802 -0.40293361356136

