%nproc=4
%Mem=2GB
# td=(NStates=1) B3LYP/SVP 

TD

0 1
 6 -5.09822267276728 -1.92257206320632  0.53303192829283
 6 -4.74645080328033  2.73532376137614  1.55982265836584
 6 -9.21733097669767  3.38067426372637 -0.30753536973697
 6 -9.78929078017802 -1.38852044664466 -1.01020716611661
 7 -5.19917666566657  0.33688014911491  0.94222168016802
 6 -4.41583968156816 -0.76241522512251  0.90860694629463
 6 -3.10272202590259 -0.61635211871187  1.45942919231923
 6 -3.15387954035404  0.85288040564056  2.04690919631963
 6 -4.45662062016202  1.41388843424342  1.47046895829583
 6 -2.95190168806881  0.86204450545055  3.50008986698670
 6 -2.06730207300730 -0.76742175627563  0.33840044774477
 6 -0.59112750085008 -0.83477233203320  0.74186195129513
 6  0.38844335023502 -0.88714563186319 -0.52937879507951
 8  0.05904564046405 -1.12477216711671 -1.60683313791379
 8  1.61950702590259 -0.77749416791679 -0.03752874487449
 7 -7.04297747874787  2.71225596749675  0.59629022302230
 6 -5.92863704470447  3.36857358985899  1.15128925432543
 6 -6.24405567806781  4.79047713151315  1.24882643434343
 6 -7.48670173467347  4.95059638263826  0.48728395849585
 6 -7.93203865426543  3.58443704260426  0.17568890519052
 6 -5.24865402180218  5.85934971737174  1.68996500040004
 6 -8.12052864106411  6.15121483918392  0.24616967126713
 6 -8.95779330213021  6.45261455205521 -0.77707632393239
 7 -9.24225762506251  0.89139761436144 -0.52334931033103
 6 -9.85812759015902  2.09792309400940 -0.57606641734173
 6 -11.22925916391639  1.93910755025503 -1.10524459575958
 6 -11.37596303680368  0.48447248864886 -1.35154521612161
 6 -10.11518822722272 -0.06630367976798 -0.94472795319532
 6 -12.10055425262526  2.92644521362136 -1.37143157225723
 6 -12.49539963736374 -0.11578067646765 -1.80030226522652
 6 -12.62469693929393 -0.47345199159916 -3.29372655705571
 7 -7.45617874357436 -1.20130444494449 -0.09284562966297
 6 -8.57357334283428 -2.04066068026803 -0.63382031043104
 6 -8.15013862106210 -3.40133473497350 -0.76823056155616
 6 -6.76978900710071 -3.46449233353335 -0.28302040734073
 6 -6.43521206080608 -2.05944774387439  0.05842799689969
 6 -8.93740772587259 -4.50577397739774 -1.35651815861586
 6 -5.68275439693969 -4.33237846474648 -0.07662499289929
 8 -5.48751060716072 -5.49848635733573 -0.21266434603460
 6 -4.46267187178718 -3.32515962866287  0.37265251485149
 6 -4.03036545134513 -3.83414710991099  1.74384626992699
 8 -4.22889550125013 -3.38179913581358  2.79722018601860
 8 -3.17956047174717 -4.80973125442544  1.51595733873387
 6 -2.73742727302730 -5.65498640394039  2.66704317461746
 6  2.65974601800180 -0.74735342594259 -1.11249545484548
 6  4.02432654245425 -0.62003662706271 -0.55574218741874
 6  4.96901920212021  0.17598664626463 -0.94141954655466
 6  4.90425093529353  0.98424226592659 -2.17939047804780
 6  6.26059977207721  0.29112174047405 -0.28388985208521
 6  7.46463069026903 -0.42721205430543 -0.99753710711071
 6  8.74550802780278 -0.19484469136914 -0.14724960486049
 6  10.05642749744974 -0.86925140774077 -0.61504248414841
 6  10.02638643204321 -2.37066223202320 -0.54594870957096
 6  11.23584425902590 -0.35180485108511  0.15829336133613
 6  12.62391097569757 -0.70794927332733 -0.46363424062406
 6  13.82475888308831 -0.07987069016902  0.15250161276128
 6  15.23379520062006 -0.33234627042704 -0.47006084188419
 6  15.68782611021102 -1.85521968386839 -0.29240897639764
 6  16.15031762896290  0.63530444164416  0.20742400680068
 6  17.59382622132213  0.62462819671967 -0.26726123392339
 6  18.45482533353335  1.74650326932693  0.39390808370837
 6  19.91974187008701  1.72122774807481 -0.19255649524952
 6  20.11817274677468  2.20287971917192 -1.62332874187419
 6  20.83964443004301  2.48870260636064  0.80655705640564
 1 -3.99387755535554  3.30868725302530  2.03783602190219
 1 -9.83978156315631  4.31907134363436 -0.40936961086109
 1 -10.47836617651765 -2.10256626662666 -1.57439733363336
 1 -2.80029608110811 -1.48122848694870  2.10568236293629
 1 -2.24337490509051  1.36933688478848  1.50466996539654
 1 -2.19738725462546  0.19863728542854  3.99654637993799
 1 -2.93928722902290  1.90838548214821  3.97101620282028
 1 -3.93531411081108  0.41400210251025  3.78019686538654
 1 -2.37678713261326 -1.42411628932893 -0.38041489778978
 1 -2.32274821342134  0.17807528182818 -0.36734539523952
 1 -0.33354767816782  0.02862698859886  1.61251728222822
 1 -0.37617062996300 -1.76094527452745  1.37100421942194
 1 -4.63447810521052  6.33803194079408  0.48118125612561
 1 -5.93505472427243  6.65763088178818  2.16428202520252
 1 -4.51185296229623  5.42634248364836  2.49053011361136
 1 -7.95467556645665  6.92297933163316  1.10173147944794
 1 -8.95991138393839  5.88449643514351 -1.68225762176218
 1 -9.44621890109011  7.52278756405641 -0.60085979007901
 1 -12.44805935333533  3.43488398689869 -0.51642404100410
 1 -11.70489941224123  3.98043300800080 -2.02593981148115
 1 -13.03505090509051  2.49901551975198 -1.75681872877288
 1 -12.36593141904190 -1.11606173247325 -1.36746131993199
 1 -13.37562830513051  0.38605826722672 -1.48698237553755
 1 -12.84917943294329  0.39587660276028 -3.97614645804580
 1 -11.59757596529653 -0.71690108650865 -3.74337513421342
 1 -13.31646972017202 -1.40593795189519 -3.51553541224122
 1 -9.75652319911991 -4.68739083098310 -0.75671147504750
 1 -9.39723163336334 -4.22883989748975 -2.39763028362836
 1 -8.41556326182618 -5.53704448434843 -1.59854450795079
 1 -3.45025075237524 -3.47733508480848 -0.11567462726273
 1 -2.18500536853685 -6.29507611131113  2.24393009700970
 1 -2.13148972067207 -4.95197493649365  3.48248269856986
 1 -3.51540259565957 -6.18918591859186  3.16142766296630
 1  2.51593338513851 -1.88564530563056 -1.85791292459246
 1  2.40140198309831 -0.00520195819582 -1.97499511881188
 1  4.09911134703470 -1.08432650315031  0.33468251265127
 1  5.43595886038604  2.06543424122412 -2.14551713911391
 1  5.40677764156416  0.48458441364136 -2.97786085318532
 1  3.90093657885789  1.32840564646465 -2.37820317721772
 1  6.59037913501350  1.30648379227923  0.12973777337734
 1  6.09460728652865 -0.45847143244324  0.75396509060906
 1  7.39413006610661 -1.43067711311131 -0.86182102820282
 1  7.45366511761176  0.07318282288229 -1.97569642734273
 1  8.87948238983898  0.96822467396740  0.17536879537954
 1  8.44626735663567 -0.55294238123812  0.80949380228023
 1  10.25222208750875 -0.55397519921992 -1.73276399929993
 1  9.13953114071407 -2.79304796759676 -1.11765099059906
 1  10.97145400640064 -2.85666734313431 -1.05413115871587
 1  9.99587802960296 -2.82427430493049  0.42627910641064
 1  10.98373256335634  0.85883350715072 -0.02843938133813
 1  10.98895646504650 -0.59395788128813  1.20708122982298
 1  12.68942545054505 -1.92558643764376 -0.39313275607561
 1  12.55043536013601 -0.26878415131513 -1.59629294779478
 1  13.69072010751075  1.07628802460246  0.14667984208421
 1  14.14527936343634 -0.25122807680768  1.26832640884088
 1  15.33942543994399 -0.01604840504050 -1.46990364016402
 1  14.79190458545855 -2.52202048584858 -0.76929094959496
 1  16.56246298259826 -1.96176201570157 -0.80046143874387
 1  16.04917763536354 -2.12162178077808  0.93959666096610
 1  15.82889008060806  1.65455854455446  0.06676051965197
 1  16.15780210291029  0.57079088818882  1.33126512331233
 1  17.91282736003600 -0.34584306290629 -0.18316300100010
 1  17.68966169156916  0.88177114021402 -1.48154545914591
 1  17.80732243814381  2.76960568826883  0.49648614361436
 1  18.71878489268927  1.32862169896990  1.46096735233523
 1  20.09492772257226  0.59471020472047 -0.01696875977598
 1  19.74247694489449  3.14624675677568 -1.85823079727973
 1  21.25359387658766  2.04884048784878 -1.74772009540954
 1  19.74917315311531  1.38872890949095 -2.38469365056506
 1  20.58758377147715  2.12988253855386  1.97775170297030
 1  21.93459730143014  2.18454657125713  0.57508940874087
 1  20.87753541624162  3.61757142764276  0.55807841224122
 1 -7.16777055955596  1.72141641364136  0.33014627142714
 1 -7.46404777137714 -0.26986186178618  0.15864254405441

