%nproc=4
%Mem=2GB
# td=(NStates=1) B3LYP/SVP 

TD

0 1
 6 -5.24103695419542 -1.99043884988499  0.45796442154215
 6 -4.79026518471847  2.74964519351935  1.55926260236024
 6 -9.40926016961696  3.33492968926893 -0.08314293049305
 6 -9.87196904800480 -1.38094968956896 -1.06235238063806
 7 -5.25358210621062  0.37389385048505  0.92156961496150
 6 -4.59152725032503 -0.75130411401140  0.86433251885189
 6 -3.10563231693169 -0.60434091759176  1.26541979137914
 6 -3.05570972337234  0.92660777837784  1.83542804820482
 6 -4.40708566666667  1.35783282868287  1.43474538593859
 6 -2.83838033593359  1.00266856785679  3.26923678167817
 6 -2.10978632143214 -1.03308832293229  0.20502711041104
 6 -0.64991337943794 -0.80684953975398  0.70907867296730
 6  0.40103460936094 -0.99115603290329 -0.51874773197320
 8  0.05497523342334 -1.43219290919092 -1.58784123872387
 8  1.54380945614561 -0.84310072857286 -0.05562055405541
 7 -7.09869305030503  2.76909165106511  0.60442103610361
 6 -5.96934111511151  3.32330906340634  1.07659178457846
 6 -6.29625089758976  4.71905998979898  1.19636118781878
 6 -7.54974803930393  4.95724704770477  0.59612484258426
 6 -8.09502495289529  3.66451505040504  0.33527486378638
 6 -5.25132428882888  5.76559034143414  1.60930693459346
 6 -8.13633022122212  6.26530624832483  0.32019707400740
 6 -8.90874839763976  6.63281257185719 -0.77041565786579
 7 -9.23148654795479  0.94320279487949 -0.50794777017702
 6 -9.89633141054105  2.04954825652565 -0.49650846154615
 6 -11.28002424042404  1.86961060056006 -0.95292936423642
 6 -11.41309675017502  0.54218826022602 -1.38104816641664
 6 -10.12305901430143  0.02114506510651 -0.93000648104810
 6 -12.16098029522952  3.02246481558156 -1.17269169826983
 6 -12.50705080248025 -0.19656875527553 -1.89217145214521
 6 -12.33969843944394 -0.71410605700570 -3.33165034943494
 7 -7.51670479617962 -1.21882619711971 -0.12486883198320
 6 -8.64165015051505 -1.95014162836284 -0.73976090449045
 6 -8.27143075027503 -3.34082868436844 -0.83165690419042
 6 -6.97433946214621 -3.41189707400740 -0.21547365266527
 6 -6.53038157775778 -2.08968076717672 -0.00410825672567
 6 -9.14489847494749 -4.49927332733273 -1.21942444924492
 6 -5.78434455595560 -4.26336156305631  0.05452812241224
 8 -5.68197005310531 -5.47814432313231 -0.11038411801180
 6 -4.56347195179518 -3.40384749744975  0.33195844544454
 6 -3.94751716651665 -3.85220891609161  1.62814469976998
 8 -4.25881849354935 -3.51052200810081  2.73526399039904
 8 -3.04598711441144 -4.76850713201320  1.39934567756776
 6 -2.32630616091609 -5.40676158145815  2.49214568486849
 6  2.74095413881388 -0.98314700530053 -0.90663486878688
 6  3.99052316211621 -0.66945156855686 -0.47005361856186
 6  4.90087238743874  0.13742278987899 -0.95315071967197
 6  4.80522103230323  0.78534237593759 -2.41532407140714
 6  6.27227093919392  0.33984661296130 -0.20779224232423
 6  7.44722895009501 -0.28971830493049 -0.86143349674967
 6  8.67287076407641 -0.13896910381038 -0.07317219711971
 6  10.04896675137514 -0.78804328692869 -0.61262224212421
 6  9.97920171357136 -2.18308347414741 -0.76501061576158
 6  11.27860853545354 -0.19413908450845  0.18247577957796
 6  12.64518310291029 -0.55690416881688 -0.51410928812881
 6  13.86530293749375  0.20543784068407  0.24736109870987
 6  15.28272009310931 -0.21701473727373 -0.28208204400440
 6  15.50705803340334 -1.73693785568557 -0.23507324282428
 6  16.35844844204421  0.73082399359936  0.46451971637164
 6  17.77321416011601  0.50206594049405 -0.19716422422242
 6  18.79169902090209  1.55915453445345  0.43185187808781
 6  20.17696759265927  1.55188081338134 -0.22286952655266
 6  20.33057398689869  1.95598502970297 -1.65309171817182
 6  21.14296476207621  2.51926566266627  0.70221662236224
 1 -4.21557972557256  3.30479686398640  2.25257749604960
 1 -10.30719830483048  4.10496993349335 -0.08512718661866
 1 -10.79603794369437 -2.03227923792379 -1.51545143904390
 1 -2.80246629812981 -1.21899226332633  2.24939673437344
 1 -2.18325889348935  1.63657360846085  1.37757725612561
 1 -1.77676519241924  0.89185660736074  3.63024975027503
 1 -3.17065036533653  2.10630527412741  3.65248434963496
 1 -3.54080465986599  0.40059076137614  4.13954279998000
 1 -2.18906836073607 -2.12484636233623 -0.15205206150615
 1 -2.33015895449545 -0.55555808150815 -0.74479314001400
 1 -0.43926825022502  0.09303342924292  1.30867689818982
 1 -0.19260227312731 -1.53908308830883  1.43450056905691
 1 -4.27390204760476  5.73688182578258  0.89037217521752
 1 -5.64569578837884  6.89904502320232  1.57446304330433
 1 -4.91998377537754  5.67008685808581  2.50266132673267
 1 -7.91108120702070  7.00190722442244  1.30955226152615
 1 -9.05251064386439  5.96497448294829 -1.59558895489549
 1 -9.22127640684068  7.65172045734573 -0.62911261536154
 1 -12.54286883428343  3.45447594609461 -0.06369876847685
 1 -11.74031295359536  3.76622158685869 -1.65699291679168
 1 -13.05664306430643  2.79664528272827 -1.77067011391139
 1 -12.64285911181118 -1.21497162346235 -1.48148272207221
 1 -13.44509525182518  0.34506416781678 -1.65805948324833
 1 -12.49463397839784  0.12890990609061 -4.23413225662566
 1 -11.35822202990299 -1.26756615301530 -3.34308510521052
 1 -13.16232430563056 -1.33344070217022 -3.70195405410541
 1 -10.06691423822382 -4.61915400730073 -0.55736154005401
 1 -9.50626253645365 -4.52175918941894 -2.25991651225123
 1 -8.47273897939794 -5.39470024992499 -1.32488714221422
 1 -3.88530425772577 -3.58173552485249 -0.35943900370037
 1 -1.40082695069507 -5.90215681938194  2.19554525852585
 1 -1.96150272197220 -4.49234897389739  3.21828627892789
 1 -3.02013306870687 -6.14860186018602  2.82761428162816
 1  2.81970376217622 -1.97749449054905 -1.21769890319032
 1  2.61379322222222 -0.45417685568557 -1.93115073437344
 1  4.13356479237924 -0.94331240174017  0.57290633503350
 1  5.23941920642064  1.81871956975698 -2.09608219561956
 1  5.63380034383438  0.27132308750875 -3.12410547764776
 1  3.86746323152315  0.62638544444444 -2.98557391429143
 1  6.36042613971397  1.44081722562256 -0.09988518891889
 1  6.23927175297530 -0.14081966726673  0.80494018811881
 1  7.31227188028803 -1.28399244464446 -0.94146899299930
 1  7.54690444154415 -0.00731522692269 -1.86333519121912
 1  8.92100654225422  0.95355320682068  0.11459271777178
 1  8.68602133203320 -0.77306439343934  0.85748860176018
 1  10.02811967726773 -0.40004980668067 -1.63403412631263
 1  9.15923311091109 -2.55777444024402 -1.50073929942994
 1  10.93373023402340 -2.68599027542754 -1.21778752435243
 1  9.78190663246325 -2.78238011551155  0.15420189868987
 1  10.95014920502050  0.82403002680268  0.38578204080408
 1  11.38495606500650 -0.67868635413541  1.20159068076808
 1  12.72113862186219 -1.60010388938894 -0.41552499529953
 1  12.54624494109411 -0.33505077797780 -1.63474679317932
 1  13.72304333983398  1.32686308210821  0.14670984508451
 1  13.72199703520352 -0.15328828282828  1.40922049824982
 1  15.33853535093509  0.16454965476548 -1.30839748954895
 1  14.72855825082508 -2.41107939173917 -0.59996401690169
 1  16.46205294159416 -1.91549738923892 -0.82203359595960
 1  15.42103482108211 -2.13391300990099  0.77282998429843
 1  16.10853804540454  1.90481357005701  0.34218806240624
 1  16.26460278297830  0.47810161926193  1.56088808560856
 1  17.99679575687569 -0.62824130273027 -0.13039772447245
 1  17.60308303370337  0.91805476857686 -1.24142144674467
 1  18.24290599649965  2.52990171787179  0.40200669566957
 1  18.84780779497950  1.17487632443244  1.43315457105711
 1  20.67801603140314  0.55410614431443  0.10001293839384
 1  19.92176487368737  2.99417154925493 -1.96476145034503
 1  21.34604312151215  2.30047565136514 -2.13974929832983
 1  19.93637187298730  1.24874491109111 -2.26341152235224
 1  20.92041705480548  2.09855940624062  1.77918184598460
 1  22.18668250995099  2.60936905350535  0.45341724152415
 1  20.61029869256926  3.53610328082808  0.80759336373637
 1 -7.37999178167817  1.70726499849985  0.58483173997400
 1 -7.63877524412441 -0.33590846644664  0.04471115091509

