%nproc=4
%Mem=2GB
# td=(NStates=1) B3LYP/SVP 

TD

0 1
 6 -5.10224307480748 -1.90144995099510  0.60704933003300
 6 -4.62323848204820  2.82074230323032  1.55687236333633
 6 -9.27134637823782  3.35654185048505 -0.03625824202420
 6 -9.86085793689369 -1.39072066666667 -0.93996014141414
 7 -5.02167891589159  0.46868332943294  0.89691714971497
 6 -4.48298639623962 -0.65970495409541  0.91949803540354
 6 -2.97750950465046 -0.67689817331733  1.20765401480148
 6 -2.94878903130313  0.76279139673967  1.83092759815982
 6 -4.30758571667167  1.44696174157416  1.31225313671367
 6 -2.90536703460346  0.78316661766177  3.36980683868387
 6 -1.99108445124512 -0.78968398249825 -0.04575796809681
 6 -0.55089347744774 -0.90963981878188  0.41642940804080
 6  0.38965347124712 -1.22093901120112 -0.72518837603760
 8 -0.00407067116712 -1.61597128702870 -1.77156961156116
 8  1.61675675087509 -0.80957737623762 -0.36755174717472
 7 -7.00684386538654  2.74422916481648  0.62692328632863
 6 -5.84460864186419  3.39921665416542  1.13602772817282
 6 -6.08230950345034  4.82577066086609  1.04054560626063
 6 -7.38635169966997  5.04360568356836  0.48098332843284
 6 -7.83576902730273  3.69444804370437  0.22207354365437
 6 -5.23215237163716  5.92408619101910  1.53179918381838
 6 -8.07751433963396  6.26882660036004  0.34430948524852
 6 -8.95487301010101  6.67735702630263 -0.73426204250425
 7 -9.15456885618562  0.94034250885089 -0.43421039643964
 6 -9.85247702510251  2.17019032073207 -0.37976678737874
 6 -11.21404764276428  1.90890452995300 -0.91921599289929
 6 -11.41541698219822  0.58982302370237 -1.12800286188619
 6 -10.03961066946695 -0.05281233063306 -0.76029951035104
 6 -12.18431262846285  3.02815538463846 -1.03527795689569
 6 -12.53114321172117 -0.19709880828083 -1.60245248024802
 6 -12.35215968556856 -0.57811245764576 -3.07878506290629
 7 -7.52850597629763 -1.25676999149915 -0.16147249234924
 6 -8.63875986148615 -1.97484409860986 -0.58784571297130
 6 -8.19022262946295 -3.40442504400440 -0.72332607110711
 6 -6.89647167536754 -3.41966785108511 -0.16143824912491
 6 -6.50654919451945 -2.06276807590759  0.16014816891689
 6 -9.07421140624062 -4.45350875087509 -1.14187669446945
 6 -5.72301842334233 -4.29679490639064  0.05681835143514
 8 -5.68442029812981 -5.46381288998900 -0.02812589218922
 6 -4.54984058865887 -3.31685879857986  0.41893714331433
 6 -4.12772518731873 -3.91189488468847  1.72704458975898
 8 -4.25674828652865 -3.42468342424242  2.84627509150915
 8 -3.26964948064806 -4.96584686598660  1.55291103410341
 6 -2.76538006830683 -5.74986589188919  2.70621709200920
 6  2.63494353775378 -1.14678336893689 -1.40564476977698
 6  3.96627073687369 -0.62141676507651 -0.77100371357136
 6  4.91846414661466  0.07315636323632 -1.32451785638564
 6  4.83114362456246  0.59539338103810 -2.68909144814481
 6  6.27560127222722  0.26525915421542 -0.49946140924092
 6  7.53938816601660 -0.36318565166517 -1.17729508290829
 6  8.77698117511751 -0.10424563146315 -0.36333121302130
 6  10.02541439613961 -0.76730121272127 -0.83064404430443
 6  10.00201399479948 -2.35673083888389 -0.83130724542454
 6  11.21263193779378 -0.18731840244024  0.03600113211321
 6  12.56276486108611 -0.52257073547355 -0.54904278147815
 6  13.75779218641864 -0.07025972907291  0.40579694229423
 6  15.10321214231423 -0.13102613841384 -0.26817065286529
 6  15.70195752335233 -1.57377153905391 -0.30259999549955
 6  16.15492809000900  0.78632954415442  0.46535980038004
 6  17.57415425412541  0.80301603550355 -0.11494600240024
 6  18.56672652365236  1.65870448944894  0.65137383028303
 6  20.02969286518652  1.65563118841884  0.26848960936094
 6  20.27922885238524  2.10458989018902 -1.21784819381938
 6  20.75972643824382  2.58136187228723  1.22387878857886
 1 -4.01991015861586  3.46701308560856  2.00409264756476
 1 -10.03296088108811  4.08478791529153 -0.20505917981798
 1 -10.74455279517952 -2.09492550255026 -0.96303619751975
 1 -2.69603565506551 -1.30545090919092  1.86619841454145
 1 -2.03037360496050  1.29895984708471  1.62421191959196
 1 -2.02844035993599  0.26604402610261  3.60829755505550
 1 -2.91794509480948  2.00905554915492  3.72415151635163
 1 -3.82408298769877  0.33793449574958  3.76535538123812
 1 -2.42739219311931 -1.53616749444945 -0.76213306960696
 1 -1.91053699229923  0.12156963126313 -0.64545320602060
 1 -0.26271059445945  0.06712083798380  0.66916294679468
 1 -0.28619163206321 -1.61131031103110  1.37651477047705
 1 -4.29852450985098  5.75600373797380  0.92003514151415
 1 -5.57557877667767  6.90092521122112  1.08220381738174
 1 -4.84447622462246  5.84322417181718  2.54777583818382
 1 -7.99417951685169  7.19372640634063  1.13369467576758
 1 -9.23270866366637  5.96894487998800 -1.62811220722072
 1 -9.41046532573257  7.66337162246225 -0.88817852195220
 1 -12.19432397979798  3.71408190669067 -0.24719711831183
 1 -11.71283020532053  3.72738770347035 -1.89175639313931
 1 -13.28976637663767  2.72744836303630 -1.41305435233523
 1 -12.81851667756776 -1.09944007030703 -0.73341791559156
 1 -13.35048579087909  0.42154181558156 -1.40216389368937
 1 -11.81949646464646  0.21718873397340 -3.71085992939294
 1 -11.67029323702370 -1.43647304370437 -3.30061085778578
 1 -13.43554162736274 -0.84114147224723 -3.57878173687369
 1 -10.14358190499050 -4.38693078497850 -0.73561936583658
 1 -9.17274918511851 -4.35734274777478 -2.25729625022502
 1 -8.87879958545854 -5.46187696759676 -1.03085773927393
 1 -3.78087381468147 -3.37467481878188 -0.50924398419842
 1 -1.97205407340734 -6.50263686738674  2.34751045504551
 1 -2.46191276297630 -5.12551229022902  3.75377982828283
 1 -3.69908096349635 -6.47011401140114  2.92625414561456
 1  2.70312210401040 -2.08387512861286 -1.65147228052805
 1  2.38642048494850 -0.51392283028303 -2.23958157745775
 1  4.22089352525253 -1.07825589608961  0.16086513091309
 1  5.07840310481048  1.70652835063506 -2.74208679607961
 1  5.55074203800380  0.09996595179518 -3.30356342344234
 1  3.84125061026103  0.36139894579458 -3.04859021592159
 1  6.39490958805880  1.15823896779678 -0.30644584498450
 1  6.15313313911391 -0.27034261956196  0.48779847394740
 1  7.35485613871387 -1.53072711811181 -1.32707755385539
 1  7.70292004310431  0.01497700230023 -2.05313417111711
 1  8.71426586818682  0.96842469396940 -0.33673241474147
 1  8.52838556845685 -0.47175426242624  0.36302915581558
 1  10.18745561086109 -0.30493029472947 -1.91296201910191
 1  9.48349553715372 -2.85783444624462 -1.70518974447445
 1  11.06571343234324 -2.82121379777978 -1.01749749534954
 1  9.75384382618262 -2.84385626312631  0.15814229272927
 1  10.97477166726673  0.89523714751475  0.11275473807381
 1  10.81773934333433 -0.70008849434944  0.86541706340634
 1  12.87806431443144 -1.46503038203820 -0.60693413621362
 1  12.61300161676168 -0.36589386228623 -1.60958427692769
 1  13.57490852635264  0.94714511031103  0.79280445454545
 1  13.95658049354935 -0.60018297229723  1.37144672087209
 1  15.07150864826483  0.23714691449145 -1.42214886468647
 1  14.79023441844184 -2.35568385218522 -0.63216723722372
 1  16.42729946624663 -1.58216405590559 -1.38189958255826
 1  16.37525024262426 -2.00071969056906  0.71706440774077
 1  15.90218741034103  1.88373146184618  0.61656550015002
 1  16.08589491219122  0.33831764086409  1.61384338113811
 1  18.03207928522852 -0.21195967456746 -0.01302598729873
 1  17.47160988638864  1.07358032113211 -1.30636794139414
 1  18.35831753765377  2.75557428512851  0.26733322832283
 1  18.38415142934294  1.64268310511051  1.80451170677068
 1  20.34405263506351  0.56474720842084  0.25949888698870
 1  19.70567326452645  3.10891302340234 -1.17826280048005
 1  21.18750726792679  1.95777138093809 -1.77122244564456
 1  19.48958719451945  1.41400143674367 -1.74414959615962
 1  20.62136714981498  2.24339388968897  2.29836376417642
 1  21.80530437213721  2.56538465506551  0.93203510331033
 1  20.28157582028203  3.65971564206421  0.98900150455046
 1 -6.99088287078708  1.75705997799780  0.25421867866787
 1 -7.50573193979398 -0.27324219981998  0.14129080888089

