%nproc=4
%Mem=2GB
# td=(NStates=1) B3LYP/SVP 

TD

0 1
 6 -5.18217106760676 -1.94260406640664  0.60345897099710
 6 -4.77403356155616  2.75076530553055  1.49817649374937
 6 -9.30040928452845  3.25894209050905 -0.40346496269627
 6 -9.82208405950595 -1.49426102070207 -0.96016216161616
 7 -5.21365811381138  0.45957241834183  0.84349180718072
 6 -4.49212731033103 -0.77313629722972  0.90283636923692
 6 -2.99926167986799 -0.51678216171617  1.36470972037204
 6 -3.16394054645465  0.87287240484048  1.98604310971097
 6 -4.43225818391839  1.49544659005901  1.36745865726573
 6 -3.10856735463546  0.88254655565557  3.53578343634363
 6 -2.10322566536654 -0.66182119621962  0.23408001570157
 6 -0.68582697079708 -0.82797165196520  0.62949071417142
 6  0.32752725862586 -0.95471238853885 -0.60210606780678
 8  0.06944668056806 -1.28261795169517 -1.72414486908691
 8  1.61819689488949 -0.84250066856686 -0.19976496849685
 7 -6.96559974097410  2.79079382128213  0.34193478747875
 6 -5.91934611561156  3.40078681118112  0.95656978237824
 6 -6.28369964246425  4.79985806960696  1.00475202690269
 6 -7.62888595309531  4.92207353035304  0.55612084218422
 6 -8.07033248364836  3.64071267016702  0.18974031033103
 6 -5.31386054245425  5.85357914031403  1.40529653355336
 6 -8.22307889608961  6.22605232293229  0.46711176547655
 6 -9.19838736153615  6.65926521712171 -0.26579519581958
 7 -9.14277767706771  0.87636611121112 -0.50805778117812
 6 -9.85787756515652  2.01900520222022 -0.67453626432643
 6 -11.20987722572257  1.93895753525353 -1.07026109740974
 6 -11.40268570907091  0.60197423882388 -1.26262632423242
 6 -10.01486819521952  0.01994494509451 -0.91478495889589
 6 -12.17831202840284  3.03762633173317 -1.26151058015802
 6 -12.63348344574458 -0.23712281068107 -1.80961319631963
 6 -12.50480495009501 -0.46481112751275 -3.35713289768977
 7 -7.57782090779078 -1.25093940844084 -0.21463780888089
 6 -8.57269325482548 -2.08570518471847 -0.63915084348435
 6 -8.12155576277628 -3.37941254275428 -0.77336107460746
 6 -6.80867289548955 -3.39153503780378 -0.18369047434743
 6 -6.51211975157516 -2.06186798589859  0.10175232933293
 6 -8.88393237833783 -4.61376477647765 -1.13158566536654
 6 -5.66439256075608 -4.32018724562456  0.05837850745075
 8 -5.60738259435944 -5.53634014271427 -0.00719379897990
 6 -4.48630423502350 -3.35337244994499  0.46644189378938
 6 -3.94249666446645 -3.80583427862786  1.76979886518652
 8 -4.25336794849485 -3.43626458235824  2.89406987098710
 8 -3.00488300400040 -4.77462774407441  1.66457220022002
 6 -2.38752228252825 -5.32470337563756  2.74844131443144
 6  2.63462350575058 -0.91765045564556 -1.17134133943394
 6  3.98389249904990 -0.68507313071307 -0.42556917011701
 6  4.93795609580958  0.05858490609061 -0.95483088768877
 6  4.85196570677068  0.83565740744074 -2.29468200720072
 6  6.33336704880488  0.22847547584758 -0.26668813191319
 6  7.43073730093009 -0.47485681878188 -0.99452680608061
 6  8.80313379037904 -0.32023723062306 -0.15815069496950
 6  10.04286614131413 -0.85346982958296 -0.89704068396840
 6  10.04800859425943 -2.33418858465847 -1.22719683438344
 6  11.29742041664166 -0.45722539313931  0.02509004100410
 6  12.68360694529453 -0.59354783318332 -0.58108598579858
 6  13.84701110831083 -0.10053275637564  0.21143750635063
 6  15.21869369046905 -0.13477651345135 -0.40934477027703
 6  15.72322965056506 -1.62455661756176 -0.73501323682368
 6  16.27935053225323  0.55190610181018  0.54881814621462
 6  17.67446428512851  0.70303603750375 -0.17248175597560
 6  18.67710756175617  1.42466108510851  0.71004969786979
 6  20.04615451135113  1.68788441374137  0.02248500890089
 6  19.91166209570957  2.45914534573457 -1.28555496449645
 6  21.03921438703870  2.19001273737374  1.02481888258826
 1 -4.18072624022402  3.51189757405741  2.23444568286829
 1 -10.01483906890689  3.94501393789379 -0.08202687658766
 1 -10.54318265816582 -2.19690570057006 -1.40298019191919
 1 -2.82595864736474 -1.28489885398540  2.21673346804680
 1 -2.32862342994299  1.52696264736474  1.70773027142714
 1 -2.25969348524852  0.20569799149915  3.77539426472647
 1 -2.98175147544754  2.10435507910791  3.98642774397440
 1 -3.97872845224523  0.48606930923092  4.08276712241224
 1 -2.33052250615061 -1.54176805450545 -0.39447630393039
 1 -2.42718865746575  0.46429390369037 -0.28191685238524
 1 -0.35161948534853  0.11145527142714  1.49176520702070
 1 -0.57477048994899 -1.94451363136314  1.27198431743174
 1 -4.44226888428843  5.57345548314831  0.79278241624162
 1 -5.68388960776078  6.83962908160816  1.38630422742274
 1 -4.92077385438544  5.38449829922992  2.48347940854085
 1 -7.77596769566957  7.08780581428143  1.11023232953295
 1 -9.89013440624062  5.96130411591159 -1.05041443744374
 1 -9.37060133933393  7.78588387368737 -0.42540224432443
 1 -12.60489503690369  3.36579707820782 -0.35633803240324
 1 -11.88795771807181  3.91965693039304 -1.95407262476248
 1 -13.07962536253625  2.49626524472447 -1.76509955685568
 1 -12.89965479137914 -1.17959808610861 -1.39949452325233
 1 -13.58916965926593  0.31213087448745 -1.65597927522752
 1 -12.38742325732573  0.44018103320332 -3.84704354775478
 1 -11.54681088878888 -0.92419181558156 -3.51665246194619
 1 -13.23173124632463 -1.20350770887089 -3.77534139283928
 1 -9.69713726052605 -4.75750784268427 -0.49613541744174
 1 -9.16597850805080 -4.53901091459146 -2.16628714931493
 1 -8.25464717021702 -5.70940172007201 -1.07502215571557
 1 -3.69499522682268 -3.52361971327133 -0.38193125292529
 1 -1.78456532453245 -6.14279088278828  2.29789549354935
 1 -1.58676524822482 -4.85859559855986  3.27696214651465
 1 -3.07427848324832 -5.66989398939894  3.61663318351835
 1  2.46133792559256 -1.87161390249025 -1.48512564586459
 1  2.29703154605461 -0.15808724672467 -1.79676729602960
 1  4.06369780568057 -1.38320639113911  0.34126317071707
 1  5.44069933443344  1.80016771457146 -2.21329391679168
 1  5.38620558435844  0.26498245344534 -3.20951401850185
 1  3.88670515571557  1.04580738663866 -2.86002135903590
 1  6.50737083418342  1.23436658055806 -0.27792299269927
 1  6.29026685248525 -0.20527611291129  0.74872456655666
 1  7.22487314041404 -1.62063610901090 -1.06808165426543
 1  7.64703445454545 -0.18055255065507 -2.01717057475748
 1  9.09084352595259  0.68039589108911 -0.34055279677968
 1  8.68328105800580 -0.73742082908291  0.91791464436444
 1  10.21875874117412 -0.22019182088209 -1.79234995789579
 1  9.10627781538154 -2.71592025482548 -1.75218444394439
 1  10.91506836783678 -2.79511118751875 -1.76667241284128
 1  9.81365980778078 -2.76851872937294 -0.28956247774777
 1  11.17482167226723  0.58831645544554  0.27799126172617
 1  11.27088465786579 -0.93460194569457  0.83926444814481
 1  12.77711421942194 -1.54802868186819 -0.93364680748075
 1  12.79591990859086  0.02651537863786 -1.48481179967997
 1  13.65015605110511  0.94148454425443  0.48994416851685
 1  13.81614645014501 -0.63583653765377  1.09680925712571
 1  15.07692919031903  0.31788498829883 -1.25239188898890
 1  15.15681107610761 -2.07817610141014 -1.54469849034903
 1  16.73806054235424 -1.62916875637564 -1.16842823542354
 1  15.79635235283529 -2.10504012261226  0.20471317261726
 1  15.91181837343734  1.45552864156416  0.87175101870187
 1  16.54092041474147  0.02434624372437  1.56365836263626
 1  18.22517859515952 -0.31710018861886 -0.35375005970597
 1  17.26883960936093  1.12330529362936 -1.06957426202620
 1  18.40398210411041  2.56341506920692  1.03670016501650
 1  18.88349136333634  0.72909174597460  1.68016927252725
 1  20.32866109590959  0.55080581428143 -0.27449451235123
 1  19.63425612281228  3.49615174727473 -1.24996997119712
 1  21.03951246844684  2.91096670047005 -1.73864918831883
 1  19.42832106790679  2.04148418501850 -2.01799698089809
 1  21.29498451155116  1.71713126342634  1.90597452525253
 1  21.97214105580558  2.36336445304531  0.57942984278428
 1  20.94196185888589  3.18129780028003  1.39064166856686
 1 -7.04719850235024  1.84439871187119  0.10692394919492
 1 -7.73003437003700 -0.18960383598360 -0.05024834503450

