%nproc=4
%Mem=2GB
# td=(NStates=1) B3LYP/SVP 

TD

0 1
 6 -5.06999985048505 -2.08421822782278  0.46271489658966
 6 -4.58566472467247  2.73053328232823  1.43368004410441
 6 -9.37461670527053  3.38254445074507 -0.26869148534853
 6 -9.80125197629763 -1.39997159175918 -0.91873801920192
 7 -5.20279702770277  0.36059252035204  0.91823928192819
 6 -4.54263236083608 -0.79022800640064  0.86928301390139
 6 -2.98885063876388 -0.59070955445545  1.31698494789479
 6 -2.96202035443544  0.83626874447445  1.94519902530253
 6 -4.33773873197320  1.35734277967797  1.37662957435744
 6 -2.97351384928493  0.78558685968597  3.54367422542254
 6 -2.08806414921492 -0.71394640874087  0.14516112381238
 6 -0.66417480558056 -0.76347520232023  0.65088285338534
 6  0.40113461936194 -1.07551446874687 -0.51127698489849
 8 -0.00046031013101 -1.64309399929993 -1.52465492009201
 8  1.58582365756576 -0.72655907440744 -0.19313430543054
 7 -7.05791897289729  2.68146288818882  0.64462505650565
 6 -5.88991317231723  3.27842457495750  1.01166529192919
 6 -6.11110238273827  4.71098918271827  1.02155370707071
 6 -7.43397646214621  5.01188251125112  0.52126735683568
 6 -8.01317676807681  3.68666726562656  0.23475481178118
 6 -5.15278443484348  5.85492927532753  1.49435543944394
 6 -8.05725231343134  6.27919763746375  0.34446950125013
 6 -8.98747627042704  6.81247053765377 -0.57633624992499
 7 -9.12618601790179  0.97450592519252 -0.57287426282628
 6 -9.86179795719572  2.14283758545855 -0.60206901760176
 6 -11.26174241224122  1.93369700920092 -1.07805187648765
 6 -11.35071051155116  0.61340538193819 -1.31959202080208
 6 -10.07795450385039 -0.05272232163216 -0.97414089448945
 6 -12.25014921212121  3.04456702580258 -1.38007243634363
 6 -12.63819391679168 -0.18359745814581 -1.70595283028303
 6 -12.78483295289529 -0.46322096849685 -3.28723590799080
 7 -7.55398852455246 -1.26253056755676 -0.07187353245325
 6 -8.60867685318532 -2.12763937813781 -0.55426235463546
 6 -8.13877748494849 -3.51345594709471 -0.68539227772777
 6 -6.81272330053005 -3.41492737703770 -0.30129223452345
 6 -6.50741928152815 -2.19039083818382  0.07403955805581
 6 -9.02396638173817 -4.68091149114911 -1.05865837263726
 6 -5.68760488198820 -4.33239846674668 -0.06963429382938
 8 -5.68189004510451 -5.54521102980298 -0.09632271187119
 6 -4.49721532613261 -3.37463457615762  0.38741399099910
 6 -3.91579399419942 -3.84680837603760  1.69244112941294
 8 -3.97033964566457 -3.30689164506451  2.77988845284528
 8 -3.10163267896790 -4.93139342064206  1.50396613961396
 6 -2.55533906420642 -5.57904881018102  2.55441191149115
 6  2.62584262766277 -0.80634932553255 -1.17125133043304
 6  3.93271738153815 -0.71862648604861 -0.56752336553655
 6  4.93882618281828  0.15070411801180 -1.02182758735874
 6  4.80844135433543  1.00230407210721 -2.27946048504850
 6  6.20921463356336  0.32132476077608 -0.24177564066407
 6  7.37744197139714 -0.34615394849485 -0.84578193159316
 6  8.75224870187019 -0.07733294019402 -0.14217909780978
 6  9.97935979067907 -0.68738322092209 -0.73159413931393
 6  9.96255004840484 -2.07052221802180 -0.98236235093509
 6  11.12785345994599 -0.19662933353335  0.02649018101810
 6  12.53809239383938 -0.45286376477648 -0.59826770397040
 6  13.82200860806081  0.08619591649165  0.19232559515952
 6  15.13604542564256 -0.18541157695770 -0.33741757755776
 6  15.57367469506951 -1.64895905780578 -0.22738247374737
 6  16.18825142234224  0.68677958915892  0.49198246264626
 6  17.66863370207021  0.65591132503250 -0.12430693849385
 6  18.66802665366536  1.54931355035504  0.49744843774377
 6  20.09385928182818  1.46891251655166 -0.06119335893589
 6  20.18496942644265  2.09866929812981 -1.49883629262926
 6  21.18681914751475  2.20333406950695  0.94674107480748
 1 -3.75909407700770  3.46496288058806  1.74483672197220
 1 -9.95159274427443  4.36256569306931 -0.17463613751375
 1 -10.67751609150915 -2.10865687568757 -1.20397029092909
 1 -2.69688574007401 -1.44910527462746  2.05975777047705
 1 -2.06626719431943  1.51839179027903  1.61538103650365
 1 -2.07730524642464  0.19803722542254  3.87304402970297
 1 -3.51918521882188  1.75589023262326  3.90591969316932
 1 -3.74151473087309  0.19664036633663  4.13480232593259
 1 -2.36312576647665 -1.78847272497250 -0.21680853715372
 1 -2.12199813841384 -0.04944747044704 -0.61204986568657
 1 -0.29108343174317  0.18379250515052  1.00850688118812
 1 -0.58447146004600 -1.50535971597160  1.61182830183018
 1 -4.46897155455545  5.96659479707971  0.88448158615862
 1 -5.66466768556856  6.82127724642464  1.69905550255026
 1 -4.65810758775878  5.66504635403540  2.59484054465447
 1 -7.68884898379838  7.07680471417142  1.03457476377638
 1 -9.24729012181218  6.24533251875187 -1.51922131813181
 1 -9.15608988818882  7.80440572587259 -0.65749545364536
 1 -12.32352690009001  3.75292579107911 -0.45783818241824
 1 -11.91953087538754  3.63434839953995 -2.29555677317732
 1 -13.16477387738774  2.60459607780778 -1.72654570147015
 1 -12.61208603450345 -1.19933005930593 -1.12693726752675
 1 -13.62420316261626  0.36576623802380 -1.64731840914091
 1 -12.74232874787479  0.30358737383738 -3.76717556095610
 1 -11.87517372507251 -1.10892028842884 -3.71819261596160
 1 -13.77425549874988 -0.82811016911691 -3.48080193889389
 1 -9.81644919171917 -4.62168426032603 -0.33104890879088
 1 -9.32681459165917 -4.74036104960496 -2.04544506510651
 1 -8.60348205370537 -5.66055683558356 -0.99271392489249
 1 -3.87406313361336 -3.55935328662866 -0.51276433623362
 1 -2.13450031803180 -6.68788539223922  2.20499620362036
 1 -1.94590116181618 -4.86397613661366  3.25835028532853
 1 -3.17231828722872 -5.87993499349935  3.39066058625863
 1  2.34217600940094 -1.72614935603560 -1.73173030633063
 1  2.50463230613061  0.09130769276928 -2.01794941424142
 1  3.97731916781678 -1.23121119161916  0.40147919231923
 1  5.04465973047305  2.07428512631263 -2.21450403780378
 1  5.51776874067407  0.63586954215422 -3.04886795389539
 1  3.79120560576058  0.77492029792979 -2.77337269416942
 1  6.37732782988299  1.29058220212021  0.00250505010501
 1  5.96918474427443 -0.10712629792979  0.72308200230023
 1  7.01556220932093 -1.42529657505751 -0.95589043514351
 1  7.48833858495850 -0.14239873527353 -1.99536839453945
 1  8.79952439403940  0.97321517301730  0.16140739923992
 1  8.48345107500750 -0.66719380638064  0.85150800370037
 1  9.99224608990899 -0.12658245994599 -1.75122584548455
 1  9.02963015061506 -2.26773543634363 -1.47855708120812
 1  10.89322618361836 -2.47686936333633 -1.34418016361636
 1  10.08595703750375 -2.59146102360236  0.03231971047105
 1  11.03979816991699  0.86716434023402  0.43219668226823
 1  11.19542711211121 -0.69750823632363  1.10976149784978
 1  12.75443195119512 -1.48736261526153 -0.65391883468347
 1  12.56739705630563  0.04075680278028 -1.62282560106011
 1  13.60913194869487  1.25001539733973  0.32869804390439
 1  13.69887472297230 -0.44955790979098  1.24962453865386
 1  15.36358785618562  0.04479767956796 -1.37237388718872
 1  14.71181657665767 -2.26946523032303 -0.70612463296330
 1  16.54679141544155 -1.78515435493549 -0.96019741234123
 1  15.53105582318232 -1.95729534813481  0.74095679697970
 1  16.10500769236924  1.86641973067307  0.49327317091709
 1  16.21840816351635  0.26958076717672  1.56689868666867
 1  18.01729780708071 -0.48299677827783 -0.28162284698470
 1  17.67234996039604  0.78034099719972 -1.23056036063606
 1  18.32286399229923  2.59459818751875  0.42664915991599
 1  18.66864987918792  1.27657649444944  1.45150640624062
 1  20.30418864866487  0.36261699539954  0.03577651475148
 1  19.85858855605561  3.16431856395640 -1.49433440764076
 1  21.14521303850385  2.29529513331333 -1.95515083848385
 1  19.77750598639864  1.45851588818882 -2.27589277047705
 1  21.10068508160816  1.65872542284228  1.97180110791079
 1  22.18736257795780  2.17482559915992  0.37329922972297
 1  20.96943460616062  3.18319799029903  1.17851045544555
 1 -7.33739752225222  1.67961223322332  0.40532378917892
 1 -7.85501686828683 -0.44911978757876  0.07920460026003

