%nproc=4
%Mem=2GB
# td=(NStates=1) B3LYP/SVP 

TD

0 1
 6 -5.17754060456046 -1.94027383338334  0.40210883598360
 6 -4.72156831503150  2.75645587458746  1.53252992909291
 6 -9.25199444304430  3.47868406470647 -0.20792540874087
 6 -9.87673952505251 -1.28383997859786 -0.89418556395640
 7 -5.20113686168617  0.44737119821982  0.95373283128313
 6 -4.53190128772877 -0.81134011761176  0.84869095469547
 6 -3.07018877257726 -0.68332881638164  1.23558680808081
 6 -3.07239139153915  0.81893701130113  1.90392489788979
 6 -4.38672363046305  1.33898094349435  1.41677358875888
 6 -2.86683318121812  0.80068836983698  3.43329318731873
 6 -2.03558890169017 -0.88555356945695  0.05625223292329
 6 -0.53985237333733 -0.98895775057506  0.48806657175718
 6  0.42831733763376 -1.22617953525352 -0.70875673287329
 8  0.06253598949895 -1.46583627352735 -1.79681213581358
 8  1.69329440464046 -0.95096151465146 -0.27180217221722
 7 -6.95329851085109  2.80362510441044  0.47521811581158
 6 -5.92172635363536  3.38262499499950  1.07066119151915
 6 -6.09936120862086  4.81227931173117  1.01180273197320
 6 -7.38072113661366  5.02010333333333  0.52248747884788
 6 -7.98364381478148  3.63427202610261  0.20570190649065
 6 -5.19808896529653  5.71867564996500  1.71822782668267
 6 -7.98610519871987  6.33486320402040  0.31802685698570
 6 -8.82578010081008  6.67536682728273 -0.61005962226223
 7 -9.25131853115312  1.00070854545455 -0.49673664906491
 6 -9.91492326972697  2.20643394509451 -0.55756456715672
 6 -11.21739797779778  2.03571721122112 -0.99623369466947
 6 -11.38715415591559  0.60773481488149 -1.20707076867687
 6 -10.09096580498050  0.00640359095910 -0.81393487388739
 6 -12.24633883108311  3.17354992409241 -1.14237866696670
 6 -12.55249534693469 -0.17574667306731 -1.68216045104510
 6 -12.58387285688569 -0.36642128852885 -3.18817600200020
 7 -7.52953607930793 -1.20439475397540 -0.29799614471447
 6 -8.66571255675568 -1.95110172437244 -0.50000692909291
 6 -8.31568517571757 -3.40750535203520 -0.46062980148015
 6 -6.97473950215022 -3.42978886318632 -0.13476558185819
 6 -6.49145768536854 -2.02363416251625  0.04869702380238
 6 -9.07360134523452 -4.62859625962596 -0.96606911371137
 6 -5.86923304480448 -4.29740496739674  0.03021569116912
 8 -5.84529638573857 -5.49386589528953 -0.09206228582858
 6 -4.64241984658466 -3.36237335003500  0.38358360796080
 6 -4.09463187798780 -3.91556525172517  1.66407829312931
 8 -4.22592520422042 -3.54892584848485  2.81971243524352
 8 -3.20956347204720 -4.97360764206421  1.25641138413841
 6 -2.64927845814581 -5.61785269056906  2.47841431173117
 6  2.78726877027703 -0.98682737333733 -1.22336654195420
 6  3.98356246604660 -0.67719234263426 -0.48653526672667
 6  5.08785108530853  0.03165221282128 -1.17413281788179
 6  4.88817932813281  0.47401124282428 -2.51745428442844
 6  6.37803151525153  0.18016064436444 -0.42098356145615
 6  7.54051827902790 -0.64562389548955 -0.96334368776878
 6  8.82547602460246 -0.08727393429343 -0.17483236313631
 6  10.13838569326933 -0.70994547714771 -0.74909588948895
 6  9.99396318971897 -2.25747091289129 -0.59042315701570
 6  11.32524319891989 -0.18869854045405  0.14024155615562
 6  12.65193377797780 -0.61593007140714 -0.52926080328033
 6  13.86232263946395  0.01781907880788  0.25465182778278
 6  15.30100192129213 -0.20349338513851 -0.28578241404140
 6  15.59333666126613 -1.77000116201620 -0.07741747724772
 6  16.22316491369137  0.75848675987599  0.41325458985899
 6  17.64179101780178  0.72743847774777 -0.10625513331333
 6  18.56868671967197  1.78483710271027  0.56035472837284
 6  20.04144404030403  1.88161378667867  0.00526328672867
 6  20.07504843434344  2.10783021422142 -1.52385879487949
 6  20.90872133773377  2.94156789288929  0.92881928262826
 1 -3.94475264286429  3.40128651295129  2.03745598389839
 1 -9.82017960296030  4.44607404390439 -0.26316499039904
 1 -10.69129746964697 -2.07223323332333 -1.17697759165917
 1 -2.45275132663266 -1.39621998609861  2.04906670137014
 1 -2.28576914451445  1.30913086418642  1.43034253265327
 1 -1.72048956485649  0.58558598029803  3.62915964126413
 1 -2.68643194349435  1.90942558615862  3.90293939513951
 1 -3.53408398779878  0.11768247054705  3.90885973167317
 1 -2.23153260716072 -1.68649252695269 -0.57085394169417
 1 -2.06969290789079  0.06720419471947 -0.54636329702970
 1  0.01289696629663 -0.34960083418342  1.17037306780678
 1 -0.34177719061906 -1.91991117111711  1.09605672467247
 1 -4.05684034143414  5.62589072667267  1.34012715071507
 1 -5.17283850265026  6.92268738743874  1.34663026002600
 1 -5.13128490549055  5.70534038343834  2.79093015361536
 1 -7.68394849374938  7.06672370607061  1.08027933423342
 1 -9.21606699949995  5.99461744724472 -1.30291968796880
 1 -9.53518779797980  7.79704498979898 -0.78871857595760
 1 -12.49902444984498  3.55064556305631 -0.16808920752075
 1 -11.96701562386239  3.98012297699770 -1.72070928842884
 1 -13.12674007400740  2.64289990819082 -1.30620366726673
 1 -12.72925775167517 -1.20777090339034 -1.22915748954895
 1 -13.35925666796680  0.39542920432043 -1.56714039133913
 1 -12.57323183818382  0.63144015911591 -3.67357620102010
 1 -11.76560276797680 -1.00227962436244 -3.68289908660866
 1 -13.50527860106011 -0.88755611371137 -3.35179903860386
 1 -9.91788933573357 -4.81209330123012 -0.27682348624862
 1 -9.48959086928693 -4.50259727322732 -2.11490201080108
 1 -8.29869157465747 -5.57376815671567 -0.90673532703270
 1 -3.89408513581358 -3.69138648994900 -0.47701076087609
 1 -2.35164203220322 -6.75718232193219  2.02641834583458
 1 -1.73718028972897 -5.21595133413341  2.87630208050805
 1 -3.64098515391539 -5.69090609060906  3.08592011221122
 1  2.59959175097510 -2.03686042714271 -1.70766790009001
 1  2.63766560946095 -0.11827326532653 -2.11628924822482
 1  4.19826126202620 -1.04651272177218  0.49987903230323
 1  5.32581784628463  1.64398209600960 -2.66120870827083
 1  5.50245720952095 -0.16075011981198 -3.19937300440044
 1  3.87113359855986  0.35711851775178 -2.89656501340134
 1  6.58155825292529  1.24194733863386 -0.48377357775778
 1  6.22565039083908  0.07434184888489  0.70709040314031
 1  7.25856650975098 -1.68899294469447 -0.94740958705871
 1  7.62952270337034 -0.26773126852685 -1.96784564226423
 1  8.98880332193219  0.95561341284128 -0.38133687518752
 1  8.58593132303230 -0.44177126412641  0.89824267716772
 1  10.14404126942694 -0.42358215991599 -1.80036075897590
 1  9.23930111771177 -2.87755641844184 -1.25141436693669
 1  10.79698655965597 -2.77696937333733 -0.96256200180018
 1  9.92768120992099 -2.48767064456446  0.53460993949395
 1  11.16660085018502  0.84512213601360  0.40975443804380
 1  11.06487405680568 -0.60849933543354  0.99799032073207
 1  12.72508901690169 -1.57488136713671 -0.38952239503950
 1  12.80640095669567 -0.21429870277028 -1.66044936343634
 1  13.79957099259926  1.14978537433743  0.31078625272527
 1  13.74768960446045 -0.41242419641964  1.21727130333033
 1  15.19306080348035  0.04032723252325 -1.38935558535854
 1  14.64860025502550 -2.43514179797980 -0.55068908940894
 1  16.51892862916292 -2.23371921142114 -0.42140353295330
 1  15.61350406800680 -1.82208182678268  1.16358906020602
 1  15.82574976657666  1.81430451915192  0.18479232283228
 1  16.16938326102610  0.51147495659566  1.43075507230723
 1  18.07411348864887 -0.31760023862386  0.21840715601560
 1  17.68527125252525  0.88928189128913 -1.29492679727973
 1  17.72800450635064  2.70525925362536  0.55317181218122
 1  18.61189420362036  1.40661949874987  1.58661991759176
 1  20.59124735453545  0.82971370507051  0.12830576767677
 1  20.00913361056106  3.31451358345835 -1.80631560576058
 1  21.04945346254625  1.92662826662666 -1.92833815721572
 1  19.23970220602060  1.41542157875788 -2.04951013221322
 1  20.92449746284629  2.73086263656366  2.01216514431443
 1  22.14508835053505  2.85696381298130  0.46526842664266
 1  20.17681534423442  3.86303597409741  0.75116772117212
 1 -7.25156893939394  1.87486175817582  0.46102935973597
 1 -7.64538590519052 -0.17553242884288  0.01820850065007

