%nproc=4
%Mem=2GB
# td=(NStates=1) B3LYP/SVP 

TD

0 1
 6 -5.14634748524853 -1.95628543454345  0.48170679577958
 6 -4.67284344254425  2.74231446044604  1.29837651375138
 6 -9.21888113171317  3.42813901020102 -0.26000061626163
 6 -9.79084093519352 -1.33195479007901 -1.02951909730973
 7 -5.18238498649865  0.49809627072707  0.95309276727673
 6 -4.55880397799780 -0.80470945454545  0.89240532613261
 6 -3.02708446214621 -0.57023750725073  1.26775002440244
 6 -2.97335148754875  0.91311642924292  1.68070257565757
 6 -4.27505246334633  1.40383742914291  1.21695360676068
 6 -2.83781027892789  1.09674797579758  3.23979383738374
 6 -2.11159650245024 -0.96701171527153  0.03411001870187
 6 -0.61778016611661 -1.04441329612961  0.47017478257826
 6  0.45343984988499 -1.30686760406041 -0.55451130833083
 8  0.11091082698270 -1.67654734463446 -1.67625007960796
 8  1.67883295849585 -0.97274369286929 -0.13227821982198
 7 -7.00428360936094  2.76632137403740  0.43929452345235
 6 -5.84958913991399  3.38528526102610  0.93001712711271
 6 -6.14184545704570  4.79285736953695  1.04088564026403
 6 -7.46540960546055  5.08649997299730  0.62169739983998
 6 -7.95008045844585  3.68629722862286  0.22706404270427
 6 -5.20021917831783  5.74618840124012  1.64171017491749
 6 -8.14752134033403  6.29506922462246  0.44851990629063
 6 -9.10116763956396  6.66098538913891 -0.39903852015202
 7 -9.13343674297430  0.98853732833283 -0.57099407480748
 6 -9.76229800720072  2.17771107280728 -0.59723853455346
 6 -11.21040727872787  2.02975661516152 -0.94287835913591
 6 -11.36949238973897  0.68821286268627 -1.14727478907891
 6 -10.11982869126913  0.08966191679168 -0.93585706610661
 6 -12.20239443664367  3.10928349744974 -1.10545497459746
 6 -12.54653475087509 -0.09339843824382 -1.60790302530253
 6 -12.44573904350435 -0.38008265466547 -3.11221840624062
 7 -7.51658478417842 -1.24346866136614 -0.30833717881788
 6 -8.56798278377838 -1.96360297449745 -0.67323425182518
 6 -8.26697030423042 -3.38799340084008 -0.66955069356936
 6 -6.88564059225923 -3.45149103340334 -0.22880498579858
 6 -6.53462200180018 -2.07451925102510  0.07141929602960
 6 -9.08387237233723 -4.68297169716972 -0.98696120292029
 6 -5.74159028052805 -4.25383060996100 -0.01302863326333
 8 -5.74471632773277 -5.57426393509351 -0.06383946354635
 6 -4.56184178877888 -3.31919903260326  0.41137638723872
 6 -3.87581999679968 -3.89184287948795  1.68508039333933
 8 -3.84768738043804 -3.28192914881488  2.77885834983498
 8 -3.23239575527553 -5.07831811311131  1.41344708770877
 6 -2.60014354465447 -5.65427633293329  2.63582005230523
 6  2.73752379577958 -1.40937962856286 -1.14871907720772
 6  3.95350946074608 -0.84813943734373 -0.45268188138814
 6  4.97619992019202 -0.11458241064106 -1.04782018661866
 6  4.84981549174918  0.58266210791079 -2.32157469646965
 6  6.26314002610261  0.23294592289229 -0.27679914301430
 6  7.44145837303730 -0.41651098419842 -0.87422477587759
 6  8.70005348234823 -0.17092229912991 -0.03291817171717
 6  10.03666552125213 -0.65013949654965 -0.72560354025403
 6  10.03596739013901 -2.14751991779178 -0.80564467916792
 6  11.18668934353435 -0.16824649524953  0.14440197219722
 6  12.47697628222822 -0.39247772617262 -0.51229910711071
 6  13.71948835603560  0.21546884378438  0.30846720932093
 6  15.09128094919492 -0.04694773057306 -0.36663049884989
 6  15.46008333593359 -1.58051221312131 -0.40924065956596
 6  16.13044564176418  0.85364627582758  0.30604386878688
 6  17.48662550125012  0.92156789068907 -0.30163467126713
 6  18.63669352035203  1.70923954295430  0.51537022992299
 6  20.04847474337434  1.62071769706971  0.05463822422242
 6  20.14282521202120  2.16720615181518 -1.31863827282728
 6  20.90908137373738  2.23876761286129  1.04634103480348
 1 -3.75025319291929  3.43367975227523  1.57223946224622
 1 -10.05559314431443  4.29190862736274 -0.31950062396240
 1 -10.58026636653666 -1.95674168416842 -1.31811170507051
 1 -2.80435648714871 -1.09324968906891  2.22361415611561
 1 -2.10635120272027  1.40415036613661  1.22188168656866
 1 -2.01963947984799  0.61043846554656  3.62166889218922
 1 -2.88085138543854  2.15781042464246  3.35888498969897
 1 -3.81409198859886  0.65533623592359  3.70549939563956
 1 -2.45474492839284 -2.04039791749175 -0.36350320662066
 1 -2.12651859045905 -0.08547107280728 -0.63571223192319
 1 -0.40607493089309  0.05621974787479  0.87721375187519
 1 -0.54327734063406 -1.74280346034603  1.39018613761376
 1 -4.40867552495250  5.71433957155716  1.16046918491849
 1 -5.53512473127313  6.75170028872887  1.64825042204220
 1 -4.95859763676368  5.60917076647665  2.65734679527953
 1 -7.99560965986599  6.89821685538554  1.33532483878388
 1 -9.47890328312831  5.85824380988099 -1.14527392339234
 1 -9.33035731493149  7.56698198349835 -0.61717142124212
 1 -12.26511105850585  3.77100759925993 -0.20305270387039
 1 -11.85813473577358  3.84189915461546 -1.84874209170917
 1 -13.23395079507951  2.73884950315032 -1.50378342524252
 1 -12.72945777167717 -1.09007913421342 -1.24424899869987
 1 -13.38026876917692  0.54589425082508 -1.33982766006601
 1 -12.43652816781678  0.52362937803780 -3.80332917631763
 1 -11.74993120082008 -0.99570896729673 -3.51803259996000
 1 -13.37467554075408 -0.69766712481248 -3.65943980268027
 1 -9.78691623842384 -4.74449654155416 -0.17591339523952
 1 -9.65187709790979 -4.81229824332433 -2.00950147074707
 1 -8.29036074157416 -5.56837761766177 -0.98083273677368
 1 -3.78921464876488 -3.39580693199320 -0.32841590139014
 1 -2.20702757075708 -6.76044264796480  2.25923162716272
 1 -1.60138671037104 -5.15164490349035  2.97942239253925
 1 -3.41508256365637 -5.69265626562656  3.43370489068907
 1  2.72766455825583 -2.54779152025203 -1.40583771707171
 1  2.63088493139314 -1.03724516251625 -2.07088470777078
 1  4.15443687958796 -1.10903897439744  0.54617366176618
 1  5.18474373887389  1.57999569736974 -2.12429501690169
 1  5.45349231303130  0.10553650885089 -3.06258932603260
 1  3.84708119331933  0.52228503440344 -2.76526188308831
 1  6.35015511261126  1.43399654355436 -0.37620282068207
 1  6.02546037183718 -0.08566415171517  0.56144583868387
 1  7.27664831793179 -1.53080712611261 -0.88377322342234
 1  7.59537928902890 -0.04862935833583 -1.79076793449345
 1  8.86473091469147  0.89393724522452  0.21788304680468
 1  8.75088781868187 -0.61350843784378  0.95246809970997
 1  10.09398626392639 -0.33454325602560 -1.66881760466047
 1  9.12714990259026 -2.51953061586159 -1.48271749724973
 1  11.02471933293329 -2.63488516491649 -1.27614335993599
 1  10.02453089488949 -2.78105998349835  0.07728420692069
 1  10.95757994809481  0.88713633743374  0.27850131273127
 1  11.02701027042704 -0.50152863836384  1.22526304800480
 1  12.78347485548555 -1.47955183418342 -0.68393183598360
 1  12.48223854045404  0.12952567966797 -1.55719903840384
 1  13.53333436893689  1.19688008380838  0.44030920502050
 1  13.73238807430743 -0.15028798279828  1.30306988318832
 1  15.00935243264327  0.33746694649465 -1.50518716851685
 1  14.87780317531753 -2.23283156695670 -0.91788580908091
 1  16.33744048034804 -1.92824866436644 -0.67346873947395
 1  15.38072078967897 -2.03800341894189  0.68288098939894
 1  15.88816600820082  1.95799888858886  0.34174801840184
 1  16.24964128682868  0.32529633873387  1.37591958875888
 1  17.93206928422842 -0.28553703230323 -0.44303898859886
 1  17.35426815221522  1.21924488758876 -1.45346265086509
 1  18.44461616751675  2.84827355505551  0.43755025002500
 1  18.46932994719472  1.28233707050705  1.56160741634163
 1  20.38520675047505  0.43932466616662  0.01838477557756
 1  19.64821751895190  3.21106323842384 -1.25724069826983
 1  21.38805732293229  2.24586018981898 -1.63226855025503
 1  19.47855609140914  1.56960699729973 -2.03198838003800
 1  21.27802281538154  1.89056860716072  1.91003493129313
 1  22.07650149184918  2.18456657325733  0.96418831863186
 1  20.65306296899690  3.30471014151415  0.96061866626663
 1 -7.00201398389839  1.68903317531753  0.40140339713971
 1 -7.73741510811081 -0.28378325392539 -0.22157547774777

