%nproc=4
%Mem=2GB
# td=(NStates=1) B3LYP/SVP 

TD

0 1
 6 -5.19657250775078 -1.86302610861086  0.40646927202720
 6 -4.74565072327233  2.87116734573457  1.34832150825083
 6 -9.34569381298130  3.37206340264026 -0.17102171837184
 6 -9.89270112121212 -1.45506710131013 -0.88471461686169
 7 -5.15654240224022  0.50160662176218  0.78202566056606
 6 -4.53216131373137 -0.66469545314531  0.80757684328433
 6 -3.12815456915692 -0.53769425292529  1.18658190759076
 6 -3.07648180058006  0.91818693629363  1.75569007440744
 6 -4.34990994909491  1.49226627202720  1.18143005440544
 6 -3.08796529442944  0.90685898689869  3.28052791079108
 6 -2.05405074787479 -0.73572858695870 -0.00702409470947
 6 -0.61986037413741 -0.69932878767877  0.43988175327533
 6  0.36983148904891 -0.98866578387839 -0.69890574777478
 8  0.04090382628263 -1.21517120702070 -1.84448690329033
 8  1.67170224542454 -0.80830724922492 -0.33004799679968
 7 -7.00338351935194  2.75864060596060  0.50852144614461
 6 -5.98231241224122  3.39099583208321  1.06674079947995
 6 -6.34062533503350  4.81694977877788  1.06459801150115
 6 -7.48745180968097  5.01179250225023  0.59291452155216
 6 -8.04797024742474  3.64323292219222  0.24258559485949
 6 -5.29655881228123  5.84120790319032  1.60075607950795
 6 -8.28010459865987  6.22534225192519  0.33664871917192
 6 -9.07603512631263  6.65411470207021 -0.65524414071407
 7 -9.18534193349335  0.90613908850885 -0.55125210061006
 6 -9.91319309670967  2.08299160086009 -0.49466827752775
 6 -11.35673191119112  1.83607724722472 -0.76745081638164
 6 -11.39611505200520  0.48352239363936 -1.06335639723972
 6 -10.11430813921392 -0.07825487488749 -0.77676115651565
 6 -12.30825502270227  2.99107167626763 -0.97977240634063
 6 -12.56926702410241 -0.28670776917692 -1.54417665266527
 6 -12.64215868546855 -0.55420006640664 -3.02602978737874
 7 -7.59933305900590 -1.22890720522052 -0.18861520662066
 6 -8.68122410791079 -2.01579819401940 -0.54782171057106
 6 -8.27367097429743 -3.38506310781078 -0.55313905240524
 6 -6.92816484468447 -3.38983486778678 -0.25040714601460
 6 -6.52926146574657 -1.96177797689769  0.01874402850285
 6 -9.06030001510151 -4.52315571557156 -1.00489299609961
 6 -5.71723784528453 -4.27351257815782  0.02561523112311
 8 -5.73915577167717 -5.51999850855085  0.04940186058606
 6 -4.57964356895689 -3.25767287998800  0.43183843344334
 6 -3.97425984078408 -3.82387608280828  1.69231111641164
 8 -4.21511412311231 -3.28005896179618  2.78864932893289
 8 -3.14297681338134 -4.88686896819682  1.55020076307631
 6 -2.53371690199020 -5.42073297859786  2.69571604190419
 6  2.71513155655566 -1.08562725332533 -1.19598380368037
 6  4.06406051585159 -0.68678330173017 -0.53467008020802
 6  5.16031833203320 -0.13323427582758 -1.19202460706071
 6  5.15497600780078  0.31009485118512 -2.66830936993699
 6  6.33629734183418  0.08315094339434 -0.31990345344534
 6  7.66728095529553 -0.65572490559056 -1.10198755215522
 6  8.84569804680468 -0.49661486838684  0.01145626572657
 6  10.15590744544454 -0.91790627322732 -0.85520650055006
 6  10.19124291769177 -2.48698386418642 -1.33043715841584
 6  11.41707238183818 -0.61111078167817 -0.01170363836384
 6  12.79101768636864 -0.69114759315932 -0.62635051225123
 6  13.83346975417542 -0.03839654275428  0.24087044964496
 6  15.25880770187019 -0.07779081488149 -0.33912774857486
 6  15.65807313491349 -1.55021918381838 -0.71041077657766
 6  16.29287188438844  0.68791970317032  0.62934619901990
 6  17.66328316701670  0.84046978087809  0.02332782498250
 6  18.65252510351035  1.60521914091409  0.82472116501650
 6  20.11484138003800  1.73385901120112  0.23354611501150
 6  20.10907183668367  2.61356078727873 -1.09838624762476
 6  20.98004847044704  2.43085682178218  1.25350175087509
 1 -4.15340350795080  3.61388777307731  1.77530976927693
 1 -9.98407599259926  4.32483191969197 -0.28187686158616
 1 -10.50094843474347 -2.16066207620762 -1.12924281818182
 1 -2.91948800030003 -1.20214057815782  2.01812360706071
 1 -2.16871743934393  1.47434738583858  1.23049254765476
 1 -2.04517203310331  0.61643906560656  3.65734245954595
 1 -3.33787708800880  2.03054769836984  3.81896099729973
 1 -3.68100868026803  0.21972267456746  3.95858470417042
 1 -2.10024947884788 -1.72100597829783 -0.55383223952395
 1 -2.31910784938494 -0.00126265196520 -0.94892355305531
 1 -0.30438476187619  0.25157928382838  0.70393642414242
 1 -0.62544555745575 -1.44814399439944  0.91271839083908
 1 -4.82993765116512  6.34884302190219  0.47340047804780
 1 -5.87580879967997  6.80714583328333  2.26165176217622
 1 -4.70393217021702  5.18820867026703  2.39547060766077
 1 -7.88879897879788  7.00217725142514  1.03652495879588
 1 -9.22159755255526  5.99805779127913 -1.49394879087909
 1 -9.46066034523452  7.73586887218722 -0.69106881098110
 1 -12.39135368276828  3.74999549804981  0.07388498989899
 1 -12.21290021232123  3.54852981768177 -1.92321953945395
 1 -13.44565196519652  2.66338195639564 -0.98611165806581
 1 -12.50298512441244 -1.20977110341034 -0.98105267906791
 1 -13.49107985028503  0.15711537293729 -1.23718739603960
 1 -12.64891940694069  0.48093510861086 -3.43378222162216
 1 -11.77780398809881 -1.17880727712771 -3.20352114881488
 1 -13.68109618281828 -1.01119847794779 -3.24975883458346
 1 -10.11671921872187 -4.66223831573157 -0.62116792069207
 1 -9.10325223542354 -4.39049606310631 -2.15080560116012
 1 -8.33894560006001 -5.47725850575058 -0.78923357685769
 1 -3.84083981128113 -3.11166851815182 -0.43701676147615
 1 -1.91946881488149 -6.07247385108511  2.48626433043304
 1 -2.27350392209221 -4.51508124712471  3.51927637793779
 1 -3.27895895129513 -5.97198419841984  3.23864538473847
 1  2.89156094789479 -2.18125486658666 -1.26766389968997
 1  2.64214605750575 -0.56807824582458 -2.12834045334533
 1  4.10468190409041 -0.99993806430643  0.51436048044804
 1  5.73581884638464  1.31240893869387 -2.81030361776178
 1  5.67555451925193 -0.38644268906891 -3.17627069416942
 1  4.12056854205421  0.55433823972397 -2.95008036493649
 1  6.54152424952495  1.23240638453845 -0.11437663806381
 1  6.00720854665466 -0.33244883018302  0.71649134323432
 1  7.30826147924793 -1.52253629902990 -1.28079292539254
 1  7.61354110521052 -0.05050954635464 -2.11075993369337
 1  8.96278071967197  0.43456130763076  0.18387964646465
 1  8.70536326622662 -1.28903599059906  0.85669852275227
 1  10.09498636393639 -0.19006880858086 -1.76902762566257
 1  9.55528271587159 -2.79875853865386 -2.16904613011301
 1  11.08384524552455 -2.59240091649165 -1.64638038363836
 1  9.77006544834483 -2.95754763226323 -0.55524904640464
 1  11.33526771687169  0.48790641444144  0.19363282588259
 1  11.47251482088209 -1.30093857935794  0.84400492219222
 1  13.15113162116212 -1.80362424142414 -0.86964040684068
 1  12.72700301690169 -0.10083735663566 -1.65850916941694
 1  13.53452448794880  0.97478787458746  0.56942211631163
 1  13.98033286878688 -0.84238719271927  1.22740231643164
 1  15.01582307970797  0.49741294109411 -1.32737938773877
 1  15.00689608460846 -1.80127841164116 -1.73682770327033
 1  16.64449118541854 -1.63861970147015 -1.30373176577658
 1  15.85917863546355 -2.16731635023502  0.09292199349935
 1  15.95477266886689  1.66730981968197  0.90958480208021
 1  16.25848217091709  0.21739554865487  1.75934793159316
 1  18.00922700000000 -0.21756023462346 -0.24424910961096
 1  17.40007273267327  1.23342630573057 -0.93155045964596
 1  18.28076978287829  2.76294502220222  1.07532402740274
 1  18.85909892409241  1.13173201000100  1.83835509110911
 1  20.28860709050905  0.75756649034904 -0.14219128202820
 1  19.92369506670667  3.72958509060906 -0.67968294249425
 1  21.18220673787378  2.33248885268527 -1.75732105550555
 1  19.23161139693969  2.45413545014501 -1.79138431963196
 1  21.29675468856886  1.83689323962396  2.24581850965096
 1  21.83982782448245  2.82849096569657  0.55155705550555
 1  20.66143380608061  3.36404607510751  1.79487209160916
 1 -7.11787557005701  1.73277754975498  0.42450570737074
 1 -7.57489885648565 -0.26868174377438 -0.42720604080408

