%nproc=4
%Mem=2GB
# td=(NStates=1) B3LYP/SVP 

TD

0 1
 6 -5.08324117461746 -1.95653545954595  0.56070469556956
 6 -4.76607276547655  2.73759398839884  1.44049072517252
 6 -9.34905414901490  3.29463565986599 -0.30248486468647
 6 -9.88967081818182 -1.50618221282128 -0.95842198759876
 7 -5.18214496249625  0.44674113521352  0.82794025202520
 6 -4.51112921052105 -0.68409739333933  0.94518060366037
 6 -3.04754650835084 -0.54218470197020  1.42144539393939
 6 -3.04204835723572  0.86067118471847  1.79575408080808
 6 -4.34604956305631  1.38808585398540  1.30118202960296
 6 -3.03430992889289  0.99636793779378  3.32180203820382
 6 -2.03668901170117 -0.85304031813181  0.25269187688769
 6 -0.58421680978098 -0.74898375317532  0.61390915601560
 6  0.35245975187519 -1.00967788508851 -0.48049390659066
 8  0.03096283218322 -1.41354104400440 -1.55288774337434
 8  1.63595867106711 -0.78006442494249 -0.13038803080308
 7 -7.06956013701370  2.74572931483148  0.51381197519752
 6 -6.01204538553855  3.37566429892989  0.99349347474747
 6 -6.30201147364737  4.77978606240624  1.06063761546155
 6 -7.62580564506451  4.96018734173417  0.47817304740474
 6 -8.09257470787079  3.65924452335234  0.17546888318832
 6 -5.40644980138014  5.88838262066207  1.55596160006001
 6 -8.19896648484848  6.21967168486849  0.31469652395240
 6 -9.19209673247325  6.59045833643364 -0.53833244954495
 7 -9.13787718701870  0.89309778437844 -0.51813878927893
 6 -9.90117189458946  2.02269557125713 -0.62721153185319
 6 -11.27322356035604  1.90522416191619 -1.04754882618262
 6 -11.54253969446945  0.55808985038504 -1.29281934353435
 6 -10.09110581898190 -0.04944199359936 -0.97265074547455
 6 -12.32542673987399  2.97477004610461 -1.16040046914691
 6 -12.60484058145815 -0.22620171857186 -1.69738197319732
 6 -12.52930740034003 -0.53641828822882 -3.24733191759176
 7 -7.44451757745775 -1.35393970847085 -0.29055540064006
 6 -8.61857784328433 -2.11450806500650 -0.70271720012001
 6 -8.17334094129413 -3.47282188368837 -0.64722846134613
 6 -6.81951397959796 -3.47429331363136 -0.23602570787079
 6 -6.36235477507751 -2.11924372347235 -0.06810465636564
 6 -8.90964494959496 -4.75174857485749 -0.98470097689769
 6 -5.65465158665867 -4.31194642154215  0.13392606220622
 8 -5.54194605070507 -5.55077158585859  0.04033095349535
 6 -4.45229083368337 -3.29835694839484  0.52974822442244
 6 -3.88452086688669 -3.79428312351235  1.88532041734173
 8 -4.18958156985699 -3.52807376327633  3.04606507050705
 8 -3.07162967866787 -4.87584786608661  1.63157890089009
 6 -2.53110664096410 -5.42250315561556  2.76631310161016
 6  2.66494653805381 -1.12454114471447 -1.11785599089909
 6  3.94247835763576 -0.49872449584959 -0.48108472167217
 6  4.86127842804280  0.19944899249925 -1.16414181878188
 6  4.60429093929393  0.93528737043704 -2.46529906890689
 6  6.19259297139714  0.55249787808781 -0.52133359645965
 6  7.42133636083608 -0.00247958105811 -1.17360471387139
 6  8.80791426842684  0.15274006710671 -0.43286816671667
 6  10.15759761446145 -0.39917440004000 -0.94283526342634
 6  9.97651144454445 -1.90751591739174 -1.32759687438744
 6  11.34288496309631 -0.17895756635664  0.03551108310831
 6  12.68820740534053 -0.32322080048005 -0.83626150335034
 6  13.86757316451645 -0.02594529762976  0.12250861346135
 6  15.21894371547155 -0.19563259905991 -0.48094192999300
 6  15.52999032663266 -1.72039620152015 -0.83324305980598
 6  16.35642824002401  0.36943785498550  0.46008927332733
 6  17.75643248194820  0.41973770767077 -0.11973648144814
 6  18.64549440044004  1.19308792779278  0.74769346224622
 6  20.17672756865687  1.33004863016302  0.33601636203620
 6  20.36171710121012  2.17144657585759 -0.96602301130113
 6  21.16761722732273  1.83818755485549  1.40435683638364
 1 -4.24941310891089  3.41404778907891  2.00159239753975
 1 -10.06639422442244  4.06200563706371 -0.37508618251825
 1 -10.64507284718472 -2.13461947194719 -1.40032992689269
 1 -2.55491154265426 -1.12588295239524  2.27324911961196
 1 -2.26360692829283  1.42765271637164  1.49136863526353
 1 -2.12848036393639  0.71284870657066  3.83769049434943
 1 -2.97092039233923  2.15987063066307  3.55728482968297
 1 -3.93846442584259  0.82053275557556  3.75775462116212
 1 -2.22007146104610 -1.95535941364136 -0.08275513181318
 1 -2.36743268186819 -0.10736326202620 -0.67611627232723
 1 -0.42177650105010  0.23182730863086  1.16587261776178
 1 -0.21941495439544 -1.53276245624562  1.60051717071707
 1 -4.59629428682868  6.03515165276528  0.99856299429943
 1 -6.03411463026303  6.87699281798180  1.50734633163316
 1 -5.21073285028503  5.64476432583258  2.69737079767977
 1 -7.91888198709871  6.85258229192919  1.20558186448645
 1 -9.28775416821682  5.95687367286729 -1.33621301730173
 1 -9.57992227142714  7.70267555285529 -0.71424112821282
 1 -12.58352289968997  3.13561405990599  0.04269187058706
 1 -12.18463738603860  3.86989195389539 -1.65207242474247
 1 -13.24895229522952  2.51733735193519 -1.67821086798680
 1 -12.64343916981698 -1.07248737503750 -1.09973454725472
 1 -13.57725846814682  0.30381004240424 -1.34949862716272
 1 -12.54326884188419  0.37365438053805 -3.78624746814682
 1 -11.66170237793779 -0.90312970937094 -3.69863065976598
 1 -13.33196126932693 -1.20506786488649 -3.44576843554355
 1 -9.69603715051505 -4.87436952885289 -0.27650345424543
 1 -9.34054596479648 -4.69612662616262 -1.96792731333133
 1 -8.09385109060906 -5.65275605550555 -0.76847150065007
 1 -3.77951367866787 -3.44938228952895 -0.14746780658066
 1 -2.05238210621062 -6.44271087478748  2.41249695369537
 1 -1.68739531123112 -4.61199093809381  3.13805825612561
 1 -3.45774683008301 -5.58983598359836  3.53176469666967
 1  2.74493628542854 -2.21621836293629 -1.17554468776878
 1  2.41424326722672 -0.46347778577858 -2.11012863216322
 1  4.19157059295930 -0.99262733323332  0.44784382878288
 1  4.51006627112711  2.06274397219722 -2.29912249964996
 1  5.52115907970797  1.02360831603160 -3.29971303840384
 1  3.57086357155716  0.33056586248625 -2.94092944984498
 1  6.24722481958196  1.63817696159616 -0.37708290869087
 1  6.12549037483748  0.09434384908491  0.52138183228323
 1  7.34495514861486 -1.02424647004700 -1.33705855195520
 1  7.49247899899990  0.44158966356636 -2.11374023172317
 1  8.84793923552355  1.17786563806381 -0.22739148064807
 1  8.54976770667067 -0.33101018801880  0.75304815771577
 1  10.26107297259726  0.25465566386639 -1.92636335923592
 1  9.17538472607261 -2.22557121992199 -2.15777500300030
 1  10.79994685568557 -2.20721239763976 -1.85721146674668
 1  9.82270071187119 -2.39373125062506 -0.41608513001300
 1  11.33018720882088  0.81177880168017  0.37466092869287
 1  11.30200777017702 -1.03495198069807  0.75168569026903
 1  12.88079458745874 -1.27620149914992 -1.24120756355636
 1  12.52727304390439  0.45689841694169 -1.73533685218522
 1  13.83151418691869  1.09596999279928  0.65235040914091
 1  13.69220405590559 -0.61989494349435  1.03419299549955
 1  15.15777727512751  0.49109230903090 -1.47058370817082
 1  14.74929032403240 -2.15756404020402 -1.39444346484648
 1  16.56045278157816 -1.74808064756476 -1.29890128272827
 1  15.59632234983498 -2.30230984958496  0.09547224852485
 1  16.08486567816782  1.24993808250825  0.82947679127913
 1  16.27692401510151  0.05744955405541  1.49135113191319
 1  18.13893997129713 -0.68252673127313 -0.13207789248925
 1  17.53605633103311  0.81511447454745 -1.18177548214821
 1  18.48341004690469  2.26958568626863  0.85775227022702
 1  18.63032604680468  0.69985882268227  1.77858911451145
 1  20.40089831963196  0.21690242394239  0.03981691879188
 1  20.14110680788079  3.35303743584358 -0.92247722192219
 1  21.47746626382638  1.92681828562856 -1.28498382178218
 1  19.77742597839784  1.66659669626963 -1.79344452565257
 1  21.26922193529353  1.18709826012601  2.34280820862086
 1  22.25439928162816  1.91063918051805  1.05787768756876
 1  20.75282294499450  2.87565723622362  1.75587819221922
 1 -7.06472025452545  1.69320359235924  0.35711896869687
 1 -7.54568593519352 -0.31729660526053 -0.47946126632663

