%nproc=4
%Mem=2GB
# td=(NStates=1) B3LYP/SVP 

TD

0 1
 6 -5.28397124762476 -2.01398120412041  0.50189881498150
 6 -4.54346050425043  2.71749197819782  1.30723739983998
 6 -9.14482372597260  3.44774097039704 -0.21589620582058
 6 -9.82278412951295 -1.30882247684768 -1.03499964536454
 7 -5.23072982098210  0.49505596669667  0.81041849984999
 6 -4.65103320092009 -0.78150713431343  0.89999608520852
 6 -3.14076583028303 -0.61414189768977  1.29894314371437
 6 -3.06294044644464  0.82950806840684  1.87922242764276
 6 -4.28437339543954  1.33924096949695  1.26021793319332
 6 -3.00499699759976  0.93528182918292  3.37970782878288
 6 -2.12734807760776 -0.91165617971797  0.15706231393139
 6 -0.66351473957396 -0.99650850565057  0.62272003710371
 6  0.29738424432443 -1.26126304360436 -0.55209106630663
 8 -0.03168343244324 -1.68929861976198 -1.63212566716672
 8  1.56299137433743 -0.82693911241124 -0.15619061106111
 7 -6.86673985498550  2.77173191509151  0.43000359435944
 6 -5.80308448944895  3.36658339083908  0.90641476687669
 6 -6.05480675317532  4.76486457025703  0.89372092379238
 6 -7.30407347184719  5.04498582158216  0.33548877897790
 6 -7.84401985238524  3.67130572947295  0.20173150945095
 6 -5.03141229762976  5.76073985638564  1.44701070497050
 6 -8.00014660286029  6.41429114681468  0.36936199049905
 6 -8.74089161196120  6.83831312191219 -0.63159177547755
 7 -9.20225362466247  0.96476495109511 -0.50680765616562
 6 -9.71959373677368  2.17220052175217 -0.58269708040804
 6 -11.20661689968997  1.95786942644264 -0.86006007730773
 6 -11.44419986048605  0.64786882828283 -1.13765382698270
 6 -10.16869357775778  0.02470542114211 -0.91563504390439
 6 -12.18721291849185  3.11666423552355 -0.87605203430343
 6 -12.63002309970997 -0.14200329872987 -1.55581781678168
 6 -12.59910438003801 -0.38831347774777 -3.06427361176118
 7 -7.57267039273927 -1.21000531503150 -0.29079542464246
 6 -8.67057304280428 -1.97876449064906 -0.69984691309131
 6 -8.29403301050105 -3.42217681918192 -0.74320805930593
 6 -7.00703273147315 -3.46189207350735 -0.28689079437944
 6 -6.62043058265827 -2.09807160626063  0.05575772987299
 6 -9.07599158425842 -4.53109650965096 -1.26856936373637
 6 -5.86742286378638 -4.36143137003700  0.02457512711271
 8 -5.81239309540954 -5.54682119081908 -0.04123720332033
 6 -4.65980158475848 -3.40380749344934  0.45762101170117
 6 -4.08531094589459 -3.96463015821582  1.79318120342034
 8 -4.47970058175818 -3.58021897779778  2.86261672567257
 8 -3.17263977967797 -4.92550283158316  1.51629737273727
 6 -2.58980251055105 -5.47786869216922  2.70702717301730
 6  2.57746779017902 -1.22682137273727 -1.01043524882488
 6  3.86898100790079 -0.99938456185619 -0.48251486468647
 6  4.95138743894389 -0.11561251365137 -0.83441884648465
 6  4.71925243544354  0.74678852055206 -2.15227776677668
 6  6.25904961706171 -0.03323069476948 -0.13808527162716
 6  7.52561678887889 -0.48749808290829 -0.98391574497450
 6  8.81898537553755 -0.33531873877388 -0.23910879077908
 6  10.05879773447345 -0.80447493009301 -0.90430141004100
 6  10.18937273067307 -2.23243840964096 -1.16550066476648
 6  11.33942461706171 -0.33321299189919 -0.09338180618062
 6  12.73921250585058 -0.57192567096710 -0.72277015421542
 6  13.84319072627263  0.13447074397440  0.07467382998300
 6  15.31884370547055 -0.05677871367137 -0.37213104890489
 6  15.68211553915392 -1.53674783668367 -0.35170490599060
 6  16.35137773497350  0.86925783698370  0.34649791419142
 6  17.74313115181518  0.86959269316932 -0.18030253805381
 6  18.69123897489749  1.80944956395640  0.55828452135214
 6  20.15511540744074  1.87305293059306  0.17113987438744
 6  20.22379330883088  2.53157258845885 -1.25071148014801
 6  20.92545301090109  2.48695243134313  1.17080348104810
 1 -3.62574074167417  3.27037342164216  1.63671590989099
 1 -9.90879846484648  4.36956639313931 -0.00282895679568
 1 -10.81482982288229 -1.98963497349735 -1.03547344124412
 1 -3.02047809930993 -1.29158952305231  2.31437323202320
 1 -2.00616118371837  1.22098204930493  1.38949844824482
 1 -1.86462397829783  0.61476889858986  3.54377110241024
 1 -3.26257955825583  2.01393603720372  3.58578767996800
 1 -3.63488406780678  0.27490819311931  3.76555540124012
 1 -2.72373182708271 -1.88727260496050 -0.46765362166217
 1 -2.31612755135514  0.19727720202020 -0.29541820252025
 1 -0.35889021242124 -0.28480435453545  1.31895792629263
 1 -0.74900791369137 -1.98172735273527  1.21593871287129
 1 -4.10974563196320  5.64764290189019  0.76565970397040
 1 -5.52954417321732  6.68042316101610  1.42485808280828
 1 -4.68026980398040  5.78005785518552  2.44397545814582
 1 -7.84216431533153  7.02994002770277  1.24420572687269
 1 -9.27020241304130  6.16930491599160 -1.54241363736374
 1 -9.08332261146115  7.67646293159316 -0.62763246734674
 1 -12.25945049244924  3.72720321882188  0.00326792819282
 1 -11.62668159045905  3.84677964266427 -1.66415363286329
 1 -13.09856725672567  2.80881649984998 -1.36027907480748
 1 -12.52404723062306 -1.18805893219322 -1.01689626342634
 1 -13.58711945424542  0.42682234363436 -1.21120479777978
 1 -12.40976549154916  0.50085710081008 -3.58393723712371
 1 -11.81405761346135 -1.09808920532053 -3.45336613331333
 1 -13.43058113131313 -1.01583894199420 -3.48379223792379
 1 -10.10918846564657 -4.68668075997600 -0.64965076897690
 1 -9.42204411461146 -4.57836484998500 -2.24023454405441
 1 -8.39477118261826 -5.30724150405041 -1.24718937243724
 1 -3.87151287858786 -3.26319367066707 -0.34740780058006
 1 -1.75634250225022 -6.14051065476548  2.31982768676868
 1 -2.33497006870687 -4.73459319831983  3.59648409870987
 1 -3.52229328472847 -5.99447644764476  3.17278879907991
 1  2.37141893369337 -2.40843758485849 -1.23919105240524
 1  2.39561140404040 -0.61266270427043 -2.00574819411941
 1  3.99422085798580 -1.66691476197620  0.37775682008201
 1  4.49619488398840  1.96049374717472 -1.58932151955196
 1  5.59756672047205  0.96763271847185 -3.03130619771977
 1  3.65073155835584  0.70576338223822 -2.65290064696470
 1  6.35612570967097  1.10732387628763 -0.07709290969097
 1  6.23238106390639 -0.78867445274527  0.73042273637364
 1  7.49134978807881 -1.63124717011701 -1.24634948104811
 1  7.47088683978398  0.15587109170917 -1.99836869456946
 1  8.90873531513151  0.63615146664666 -0.03212195369537
 1  8.62111484138414 -0.92611969896990  0.67471032393239
 1  10.26717358265826 -0.07715751745175 -1.80094081698170
 1  9.59758694629463 -2.70896955975598 -1.95421464696470
 1  11.12315917691769 -2.58497017341734 -1.31702744834483
 1  9.73839228102810 -2.95277715521552 -0.33229675117512
 1  11.40173436353635  0.70303792759276  0.41124458705871
 1  11.29155672507251 -0.97052553805381  0.97480800250025
 1  12.84418092609261 -1.43889776877688 -0.86887032983298
 1  12.51202151875187 -0.01171844474447 -1.53099641814181
 1  13.68624966046605  1.21157155295530  0.35660083418342
 1  13.84162899839984 -0.29836279027903  1.15359493569357
 1  15.33377487488749  0.35574877467747 -1.48165481528153
 1  14.64088948394840 -2.15114339813981 -0.91283530403040
 1  16.63264000030003 -1.77178301780178 -0.78654004660466
 1  15.72634535213521 -1.93679329792979  0.59302200350035
 1  15.73832102370237  1.62785587428743  0.32272611621162
 1  16.37511383408341  0.55888969806981  1.43559555635564
 1  18.17512358965897 -0.08351683028303 -0.49582426712671
 1  17.83449617501750  1.21452441554155 -1.38761606620662
 1  18.17738944484449  2.79489821752175  0.47143363836384
 1  18.81732474667467  1.56838567536754  1.87488874447445
 1  20.32276050585059  0.82596333003300 -0.00056711961196
 1  19.60560325752575  3.58657078917892 -1.18285325952595
 1  21.34588310551055  2.55950155395540 -1.67375269866987
 1  19.61640987678768  1.96764680128013 -1.82898808000800
 1  20.97653266636664  1.90505005530553  2.06678060586059
 1  21.93764760646064  2.48881699829983  0.83859575937594
 1  20.69309697239724  3.49339901040104  1.25674827922792
 1 -6.93591737423742  1.65802007400740  0.49484274107411
 1 -7.69345071167117 -0.23535841144114 -0.24314763496350

