%nproc=4
%Mem=2GB
# td=(NStates=1) B3LYP/SVP 

TD

0 1
 6 -5.08901175167517 -1.96620642664266  0.45077370247025
 6 -4.74142030023002  2.77267749674968  1.27657433353335
 6 -9.34023326692669  3.37280347664766 -0.35097971417142
 6 -9.85445729682968 -1.41225281988199 -0.80791693709371
 7 -5.16328307630763  0.46333279437944  0.73523098109811
 6 -4.44237233483348 -0.75717470107011  0.70161624722472
 6 -3.10504225792579 -0.56703718721872  1.20975422482248
 6 -3.08928308070807  0.87694281188119  1.74591909730973
 6 -4.40296525462546  1.37138418381838  1.26707861926193
 6 -3.06294279217922  0.87072537353735  3.27658751675167
 6 -2.05612095489549 -0.79281429552955 -0.00006339863986
 6 -0.56916530463046 -0.69062791759176  0.48597636273627
 6  0.44326883278328 -1.09732664996500 -0.51044690189019
 8  0.07841757765777 -1.81770146004600 -1.49140159475948
 8  1.66191126632663 -0.69628604710471 -0.22975796779678
 7 -7.03745692669267  2.76122086398640  0.49592018601860
 6 -5.92653683468347  3.45167189968997  0.94788891429143
 6 -6.28672994549455  4.82477056085609  1.06717826952695
 6 -7.45515858035804  4.99851117411741  0.56618184828483
 6 -7.98897434783478  3.61316991589159  0.21958329462946
 6 -5.31233038943894  5.80630441284128  1.65417142104210
 6 -8.10742733093309  6.29253897159716  0.43388844314431
 6 -9.09647717051705  6.63727301790179 -0.42058067436744
 7 -9.11586498579858  0.89841831643164 -0.39758673407341
 6 -9.80323210061006  2.10831413311331 -0.49651846254625
 6 -11.24447068506851  1.93275691519152 -0.97749182048205
 6 -11.37798323882388  0.63787782918292 -1.09983004460446
 6 -10.08445515391539  0.02945589618962 -0.85335881628163
 6 -12.17334153135313  3.03711628072807 -1.00076450555055
 6 -12.58429852725273 -0.19958905730573 -1.63866610161016
 6 -12.68081255085509 -0.36936158255826 -3.12741992639264
 7 -7.43511663736374 -1.29990430493049 -0.26724306940694
 6 -8.57425341084108 -1.95996261046105 -0.62249917831783
 6 -8.17400100730073 -3.35306990849085 -0.63400713921392
 6 -6.81471349954995 -3.40458634293429 -0.39454155945595
 6 -6.36584512411241 -2.07900970007001 -0.01174902080208
 6 -9.07613159825983 -4.57084048404840 -0.95958846564656
 6 -5.75734185568557 -4.34519974687469 -0.09219655005501
 8 -5.73051490759076 -5.49026553525353 -0.10404348394840
 6 -4.60948655325532 -3.46381349404940  0.42137738733873
 6 -3.83803621842184 -3.86900059525953  1.80770265556556
 8 -4.12414502620262 -3.44821577747775  2.89855031903190
 8 -3.16239875557556 -4.97540782208221  1.63975971897190
 6 -2.69864339463946 -5.57902880818082  2.82054852515251
 6  2.75591563496350 -1.12476116671667 -1.16262046734673
 6  3.98926303610361 -0.58519314271427 -0.54247086028603
 6  4.96866916711671  0.07799684728473 -1.17964336893689
 6  4.92019252945294  0.69789363106311 -2.54533707270727
 6  6.27647135923592  0.31940456875688 -0.37750921402140
 6  7.53191741894189 -0.35638497159716 -1.26671402480248
 6  8.73881735873587 -0.04809001590159 -0.40161504140414
 6  10.08142999769977 -0.72224670727073 -0.92900388028803
 6  9.87026081948195 -2.27251241704170 -0.86204031873187
 6  11.27698837343734 -0.34665433603360  0.02277980998100
 6  12.65503408800880 -0.72581105950595 -0.56044392159216
 6  13.80527693489349 -0.10822352545255  0.34023038563856
 6  15.18416023712371 -0.14374741054105 -0.39216305210521
 6  15.56235356295629 -1.54283844574457 -0.50971070657066
 6  16.12689528672868  0.70834174537454  0.40346361076108
 6  17.60471731043104  0.69278501240124 -0.07308181598160
 6  18.54512436343634  1.75397401640164  0.59959865276528
 6  20.10959085498550  1.67644326962696  0.23614637503750
 6  20.49692062156216  2.10532996419642 -1.16921333033303
 6  20.91373183878388  2.50751448754876  1.21724812551255
 1 -3.95240340794079  3.33845022932293  1.82203444174417
 1 -9.99860744574457  4.27878731523152 -0.49274794869487
 1 -10.76284462436244 -1.91952796279628 -1.00957085098510
 1 -3.03010906240624 -1.45906627072707  2.07036883158316
 1 -2.21702226982698  1.37567751885189  1.33585308370837
 1 -2.18687620352035  0.22583000470047  3.65656238153815
 1 -3.08491179147915  1.95504014761476  3.77721682288229
 1 -3.87766834623462  0.51342204450445  3.75515436113611
 1 -2.05455490939094 -1.88189206690669 -0.43024988128813
 1 -2.39574551315132 -0.04611713741374 -0.82575123582358
 1 -0.27678200160016  0.21771589748975  0.85429145964596
 1 -0.35270828372837 -1.15861504150415  1.35971309030903
 1 -4.27617227462746  5.91083922152215  1.17010014801480
 1 -5.80411162996300  6.71573669236924  1.54821041804180
 1 -5.13193497049705  5.63244309370937  2.68915997659766
 1 -7.62288238713871  7.05310234393439  0.88560986728673
 1 -9.39924531733173  5.96610459595960 -1.21933132913291
 1 -9.37257153635363  7.65620090539054 -0.46134583868387
 1 -12.29411395879588  3.36080657915792  0.02788038943894
 1 -11.80732965526553  3.71223618831883 -1.63663088058806
 1 -13.22894029402940  2.71561717991799 -1.30420346724672
 1 -12.56122094799480 -1.12810293659366 -1.20708528232823
 1 -13.40695143744374  0.70167982938294 -1.40888456575658
 1 -12.43946846184619  0.76946396149615 -3.47158600200020
 1 -11.78220442814282 -0.90965036143614 -3.51226202290229
 1 -13.59333740694069 -0.83133049114911 -3.36484034273427
 1 -10.19192673947395 -4.49653174507451 -0.66125192909291
 1 -9.36759867006701 -4.75692270577058 -2.04816533713371
 1 -8.47579928542854 -5.26871765166517 -0.61446610011001
 1 -3.64503023032303 -3.38682603390339 -0.45660872067207
 1 -2.13069993799380 -6.45489209290929  2.58125382938294
 1 -2.15018158985899 -5.01483122212221  3.59108355865587
 1 -3.66049710511051 -5.85617261726173  3.38145966616662
 1  2.96950874267427 -2.23358009910991 -1.03630076337634
 1  2.57883972687269 -0.57768920692069 -2.23642126142614
 1  4.28205964186419 -1.00977904840484  0.46012505690569
 1  5.25328059255926  1.74698239603960 -2.57594018141814
 1  5.27809477327733 -0.13110715551555 -3.18883195029503
 1  3.83279976517652  0.78794160006001 -2.93618897579758
 1  6.68256835393539  1.30195333923392 -0.63207840824082
 1  6.28697652345234  0.23507792249225  0.74520421452145
 1  7.36093674677468 -1.41568561396140 -1.25849069516952
 1  7.35191494259426  0.05068057265727 -2.18093695139514
 1  8.94439888148815  0.92939079057906 -0.23299204070407
 1  8.70929365926593 -0.27671475847585  0.77817066996700
 1  10.15223208850885 -0.47266706840684 -1.81061178407841
 1  8.94490167776778 -2.38900756355636 -1.33355258075808
 1  10.66197305830583 -2.84941661806181 -1.29406515211521
 1  9.66122456425643 -2.81311318881888  0.04514099259926
 1  11.22295648574857  0.63956157995800  0.20207366996700
 1  11.14490205960596 -0.68549703520352  1.05161568326833
 1  12.78253476147615 -1.73621750075007 -0.61301474427443
 1  12.65520583718372 -0.32751002390239 -1.57355067356736
 1  13.45450648614861  1.04276467226723  0.11787696179618
 1  13.80575541104110 -0.33797675167517  1.37808738493849
 1  15.13593509090909 -0.02853965416542 -1.54139078887889
 1  14.83066846184619 -2.06334461826183 -1.22320634113411
 1  16.56875361166117 -1.70711655115512 -1.04502589518952
 1  15.59099181678168 -2.07340695929593  0.54814751605161
 1  15.74037122872287  1.86710979967997  0.38338218181818
 1  16.27286360906091  0.22039584868487  1.38077007380738
 1  17.87974405170517 -0.32862134073407 -0.09213389808981
 1  17.53528625402540  0.86983994709471 -1.05963326792679
 1  18.21491319721972  2.75684441214121  0.27562405740574
 1  18.50044305850585  1.46467530433043  1.58369962556256
 1  20.26799502930293  0.54290502420242  0.38113105020502
 1  20.15459815701570  3.13971610371037 -1.44672964716472
 1  21.45679419661966  1.85738134193419 -1.20819614301430
 1  20.02075031083108  1.38210824742474 -1.95648082928293
 1  20.55243025612561  2.25583513381338  2.36624055185519
 1  21.99449329102910  2.23863197979798  1.26347824762476
 1  20.64616227892789  3.63314298479848  1.11319392379238
 1 -6.88123190569057  1.69209348134813  0.22842609940994
 1 -7.60170153675367 -0.36969184478448 -0.01697501770177

