%nproc=4
%Mem=2GB
# td=(NStates=1) B3LYP/SVP 

TD

0 1
 6 -4.99020187068707 -1.97117692369237  0.49834845994599
 6 -4.73896005420542  2.82208243724372  1.61277795389539
 6 -9.33524276787679  3.31096729302930 -0.22996761296130
 6 -9.71826367746775 -1.44103569816982 -1.01878802420242
 7 -5.15447219521952  0.46981344244424  0.89314677267727
 6 -4.37373547114712 -0.75128411201120  0.95142122772277
 6 -3.06737849154915 -0.49709019251925  1.42897614701470
 6 -3.04803895629563  0.85382049964996  2.03095760116012
 6 -4.35291024912491  1.45760280568057  1.56110802220222
 6 -2.70635713361336  0.96110441144114  3.46930678867887
 6 -2.06356169896990 -0.80874588868887  0.20574718241824
 6 -0.55255364346435 -0.69598845364536  0.61413917901790
 6  0.27049155505551 -1.09380629792979 -0.51231708890889
 8  0.08352808870887 -1.71459114901490 -1.51064351895190
 8  1.58675375057506 -0.73263968246825 -0.19330432243224
 7 -7.10148332933293  2.74088883078308  0.55595618961896
 6 -6.06224040504050  3.38605533803380  1.14654878027803
 6 -6.32405367786779  4.72372045584558  1.20940249194919
 6 -7.60468353285329  4.92637396039604  0.75637086718672
 6 -8.06996244664466  3.60322892179218  0.36933827012701
 6 -5.19395855225522  5.86800058245825  1.64825082898290
 6 -8.24830141834183  6.24207392509251  0.50560561486149
 6 -9.18362588538854  6.73326261686169 -0.32296091239124
 7 -9.16090949024903  0.91888036263626 -0.59356633203320
 6 -9.85202698009801  2.07667096879688 -0.55248405910591
 6 -11.22118835683568  1.93322696219622 -1.15114918621862
 6 -11.28468390889089  0.57249129052905 -1.44268433003300
 6 -9.92639934833483 -0.00571762116212 -1.03534701510151
 6 -12.35602980018002  2.97984055315532 -1.37545197429743
 6 -12.55014511191119 -0.20107920632063 -1.91495373037304
 6 -12.27475194479448 -0.50322496889689 -3.43700088448845
 7 -7.33817694339434 -1.25729004350435 -0.25784212931293
 6 -8.48653463896390 -1.97299391359136 -0.65718264666467
 6 -8.08181178837884 -3.39580418191819 -0.72657639613961
 6 -6.72458448664866 -3.40605648994900 -0.15219732503250
 6 -6.30463900350035 -2.07233903300330  0.01763391749175
 6 -8.86353033813381 -4.57350075007501 -1.20344285108511
 6 -5.53251937343734 -4.31078630553055 -0.07270460086009
 8 -5.46284814091409 -5.52406891559156 -0.30757383698370
 6 -4.43544914951495 -3.33901101380138  0.49592484208421
 6 -3.91929434423442 -3.82271596679668  1.85442732803280
 8 -4.11272388408841 -3.28762971887189  2.94330479447945
 8 -3.03829634533453 -4.82351263256326  1.63948969196920
 6 -2.69510304060406 -5.51423232853285  2.90105657595760
 6  2.55870591399140 -1.13842253285329 -1.10424462976298
 6  3.93414752455246 -0.57365198859886 -0.62157877107711
 6  4.89884218441844  0.06168521612161 -1.34398980358036
 6  4.68353886408641  0.57532137383738 -2.76014855385539
 6  6.20700441254125  0.48192082038204 -0.60498196129613
 6  7.42948717591759 -0.28239757285729 -1.13760111351135
 6  8.67794127112711  0.08625341844184 -0.27463234313431
 6  9.91547340204020 -0.67096157875788 -0.86846782668267
 6  9.86780057345735 -2.33406857265727 -0.64370848554855
 6  11.14656533113311 -0.06623629422942 -0.11529399739974
 6  12.53112169676968 -0.47956643504350 -0.66661453865387
 6  13.67534394159416  0.09372666956696  0.09859622222222
 6  15.16354817591759 -0.39511254705471 -0.34937877367737
 6  15.48075540314031 -1.85385954785479 -0.23616335183518
 6  16.22558515571557  0.55382629382938  0.35758902330233
 6  17.59440627932793  0.56360209410941 -0.15180968876888
 6  18.54278412941294  1.41888050705071  0.63504219711971
 6  19.98248814471447  1.54889051435144  0.07267002740274
 6  20.18658958845885  2.05540497169717 -1.28544495349535
 6  20.79264973057306  2.43780751685169  1.03902030273027
 1 -3.88539670727073  3.33208959325933  2.04981722002200
 1 -9.86573415841584  4.20472990949095 -0.34424309820982
 1 -10.39020736063607 -2.12015802580258 -1.36951684558456
 1 -2.85443149464946 -1.29654001810181  2.34705650035004
 1 -2.26924749234923  1.50683063416342  1.48394789318932
 1 -1.59384690059006  0.89357677937794  3.53155988128813
 1 -3.04456775707571  1.92524716831683  3.72332143334333
 1 -3.40151073047305  0.00449115141514  3.97024587028703
 1 -2.35215466936694 -1.91893577127713 -0.06177303360336
 1 -2.14472041064106 -0.30467299299930 -0.67788644934493
 1 -0.14002832623262  0.17475160106011  1.04131016151615
 1 -0.26199921282128 -1.52541172117212  1.40703782278228
 1 -4.47831248864887  5.61074921252125  1.07994113211321
 1 -5.50425164396440  6.84780989968997  1.46127172417242
 1 -4.82446422342234  5.90638048744875  2.77369843044305
 1 -7.96322642154215  6.89096613031303  1.50956226252625
 1 -9.64891028382838  6.29703768926893 -1.16498589458946
 1 -9.48206248544854  7.74015930123012 -0.14045374947495
 1 -12.58203275067507  3.48902940144014 -0.61043344194420
 1 -11.99844876717672  3.66766173087309 -2.21564878237824
 1 -13.17202460246025  2.53374899309931 -1.73540658755876
 1 -12.69022384828483 -1.00898102440244 -1.57715228902890
 1 -13.43354409670967  0.37726738813881 -1.68201187848785
 1 -12.18241275627563  0.62577959305931 -3.96261510491049
 1 -11.38474468216822 -1.02584198059806 -3.54196499319932
 1 -13.06185425862586 -1.14823218131813 -3.72369622832283
 1 -9.87948549534954 -4.78393048494849 -0.71199700360036
 1 -9.12529443964396 -4.39033604710471 -2.28717923852385
 1 -8.27800950645065 -5.46592737263726 -0.88815346884688
 1 -3.51532726002600 -3.48824617591759 -0.12046510631063
 1 -2.36626349434943 -6.47207381108111  2.61384708870887
 1 -1.99864643634363 -4.96928666766677  3.48468291859186
 1 -3.55648670407041 -5.82266926692669  3.48848036823682
 1  2.68377016881688 -2.28680542164216 -1.09759689298930
 1  2.45329717261726 -0.88749018701870 -2.11340896019602
 1  4.06253768966897 -0.68146621712171  0.46670571497150
 1  5.11233649814981  1.58587628542854 -2.84760734813481
 1  5.09090605440544 -0.14177822262226 -3.44519758685869
 1  3.61393787898790  0.73548635453545 -3.05632098899890
 1  6.27558765586559  1.67499064296430 -0.73937913831383
 1  6.00688851465146  0.23030744544454  0.41452114621462
 1  7.22471312441244 -1.36652069746975 -1.17267211331133
 1  7.71392114321432 -0.10636513191319 -2.26257511521152
 1  8.59942438403840  1.29697754925492 -0.59436817831783
 1  8.49302203210321 -0.20203729072907  0.79950280318032
 1  10.09498636393639 -0.39418922062206 -1.91377210011001
 1  9.12759994759476 -2.75883454625462 -1.46129535503550
 1  11.08955581658166 -2.99960163656366 -0.47566331193119
 1  9.26910535233523 -2.59726160366037  0.54857133563356
 1  11.15115930603060  1.02143976777678 -0.16348288568857
 1  11.16981455085509 -0.50908939443944  0.86638716041604
 1  12.61072758075808 -1.62810668966897 -0.58419186198620
 1  12.68668898549855 -0.25364263716372 -1.81711503000300
 1  13.61219225472547  1.09452984878488  0.31512668676868
 1  13.79709454495450 -0.18078103210321  1.14134371057106
 1  15.09166066346635  0.03767696749675 -1.45054170397040
 1  14.57471286628663 -2.47324560836084 -0.74768878937894
 1  16.53284002030203 -2.03396923642364 -0.83431482408241
 1  15.65370808840884 -1.87790740934093  1.00301300260026
 1  15.86791398299830  1.59742283098310  0.33969781338134
 1  16.25594191689169  0.32266607570757  1.56372836963696
 1  17.98300437773777 -0.44797327592759 -0.28337302200220
 1  17.58089081448145  1.11450441354135 -1.11027833243324
 1  17.98797050295030  2.35798452615262  0.52659915491549
 1  18.46145916011601  1.12716155295530  1.58616987258726
 1  20.50476870667067  0.46761749544955  0.19283222032203
 1  19.80007270447045  3.06333846594659 -1.41177615181518
 1  21.28875739293929  2.26044164796480 -1.50635595899590
 1  19.92463069886989  1.35427546414642 -2.23635881708171
 1  20.88867388048805  2.14167371767177  2.06557048484848
 1  21.91963580528053  2.35667378397840  0.79289118891889
 1  20.41830949364937  3.53681335183518  1.06119872427243
 1 -7.27626140864086  1.63118739073907  0.45741899869987
 1 -7.44150551715172 -0.34960983658366 -0.06854017421742

