%nproc=4
%Mem=2GB
# td=(NStates=1) B3LYP/SVP 

TD

0 1
 6 -5.12436528702870 -1.94189399539954  0.59088771387139
 6 -4.77010316851685  2.72998322732273  1.43113979007901
 6 -9.27137638123812  3.35453164946495 -0.24838945514551
 6 -9.80600245134513 -1.48276987158716 -0.97600374577458
 7 -5.29336608460846  0.42264872597260  0.78819627762776
 6 -4.61840993859386 -0.67600658425843  0.82139822542254
 6 -3.07280903460346 -0.57406789028903  1.19713296269627
 6 -3.02965711811181  0.83107822542254  1.82563706910691
 6 -4.47332229032903  1.35735278067807  1.29410132153215
 6 -2.94607110501050  0.83725202620262  3.26916677467747
 6 -2.09169451225122 -0.67540255435544 -0.04856824912491
 6 -0.73842223032303 -0.77740659545955  0.55206297139714
 6  0.39584409030903 -0.95874279157916 -0.56533239043904
 8  0.18018775467547 -1.47786747664766 -1.65113756835684
 8  1.70244531973197 -0.85805222372237 -0.15932092409241
 7 -7.02486566756676  2.71591633353335  0.57964855885589
 6 -5.89503368436844  3.29853658615862  1.05417954335434
 6 -6.18185945844584  4.80292837663766  0.95938749044905
 6 -7.52216528102810  4.99419074207421  0.51736696679668
 6 -7.98062351275128  3.63165176407641  0.13908524482448
 6 -5.30453961036104  5.77858164056406  1.54394039793979
 6 -8.14634122232223  6.30135985368537  0.41863691799180
 6 -8.98999652245224  6.61367065766577 -0.56106472277228
 7 -9.17032043134313  0.88706718131813 -0.40568754415442
 6 -9.78627040444044  2.07176047774777 -0.48854766546655
 6 -11.16660289828983  1.92919655915592 -0.92509658095810
 6 -11.34251969246925  0.53767780918092 -1.29620968256826
 6 -10.11541825022502  0.00549349995000 -0.86698017841784
 6 -12.14044824202420  2.96494906400640 -1.17811224032403
 6 -12.59963006040604 -0.15098419681968 -1.75548778377838
 6 -12.49655412501250 -0.42630727712771 -3.19511669606961
 7 -7.55910903660366 -1.29621393589359 -0.09652599769977
 6 -8.53469945544554 -2.05899251345134 -0.64940186858686
 6 -8.20561416861686 -3.34334893639364 -0.71852559105911
 6 -6.84684671287129 -3.36657254155416 -0.14016612191219
 6 -6.49226776637664 -2.06328812791279  0.15487764186419
 6 -9.14732871797180 -4.55559895989599 -1.03986649344934
 6 -5.79470559205921 -4.28246347324732 -0.02587991839184
 8 -5.68297015311531 -5.47914442314231 -0.03920700030003
 6 -4.53765937053705 -3.34037114981498  0.50239548914892
 6 -3.95682809760976 -3.86925062026203  1.80648253355336
 8 -4.35519813151315 -3.45292624852485  2.89652011601160
 8 -3.09368188388839 -4.88239852115212  1.71359710271027
 6 -2.77658118841884 -5.55766667196720  2.86098256855686
 6  2.71961200460046 -1.23033172377238 -1.17456166146615
 6  4.01637574737474 -0.73416804020402 -0.62080869406941
 6  4.93879617981798  0.04851389898990 -1.07878328292829
 6  4.89130964116412  0.83225706740674 -2.40979351835183
 6  6.32279599169917  0.23434606290629 -0.37887935103510
 6  7.52660688788879 -0.50669000210021 -1.04125147854785
 6  8.73022649964997 -0.20033524042404 -0.10061494139414
 6  10.00284213891389 -0.67459194179418 -0.82582356225623
 6  10.02858665206521 -2.27502266806681 -1.08526264096410
 6  11.26918759335934 -0.16522619321932 -0.03936640464046
 6  12.63850243484348 -0.46531500990099 -0.59106698389839
 6  13.89643605080508  0.09858715561556  0.24419078167817
 6  15.26393821492149 -0.02083511931193 -0.53372720852085
 6  15.58521584918492 -1.47729189108911 -0.82248198369837
 6  16.31169376657666  0.74246515771577  0.30162342674267
 6  17.71222806150615  0.69080481438144 -0.19662417021702
 6  18.68036788778878  1.46373499249925  0.71239993289329
 6  20.13822371827183  1.51948757405741  0.19083184358436
 6  20.29156008550855  2.21516094729473 -1.15427183618362
 6  20.96339680528053  2.26739047514751  1.33247964866487
 1 -4.09433760136014  3.47548393269327  1.93615585388539
 1 -10.09355694069407  4.24492392889289 -0.39951862576258
 1 -10.70390873077308 -1.91160717071707 -1.17473736763676
 1 -2.98572462396240 -1.34811517561756  2.03059485418542
 1 -2.20018058565857  1.38227817891789  1.36095559395940
 1 -2.04156167206721  0.34627204890489  3.74321104640464
 1 -2.83916721702170  1.88796343994399  3.83784288548855
 1 -3.84943552295230  0.23943464576458  3.63858270397040
 1 -2.35270472437244 -1.43365724342434 -0.58210506680668
 1 -2.35161109970997  0.17498497279728 -0.75003366406641
 1 -0.50764508790879  0.22956708260826  1.02517854835484
 1 -0.58295130803080 -1.57828700870087  1.35795291429143
 1 -4.51225588298830  5.74849298689869  0.99963310131013
 1 -5.71853307210721  6.72350746944694  1.38111370837084
 1 -4.94932670967097  5.60985083448345  2.59741080168017
 1 -7.89841994089409  6.91384841854185  1.09837114341434
 1 -9.35709110191019  5.87220520602060 -1.37916731273127
 1 -9.38751303050305  7.81279656495650 -0.35335503960396
 1 -12.42320686808681  3.65548604710471 -0.29478187678768
 1 -11.75909483178318  3.60926589128913 -1.94273149064907
 1 -13.00016741674168  2.41089670787079 -1.41630467736774
 1 -12.80318514441444 -0.96624675097510 -1.19277385118512
 1 -13.46482722502250  0.42756241764176 -1.71759543684368
 1 -12.30619513451345  0.43246026112611 -3.88988783218322
 1 -11.61581778947895 -1.08330772717272 -3.42316311301130
 1 -13.39349742294229 -1.01228858695870 -3.70177403610361
 1 -10.15474302110211 -4.45573766566657 -0.43477928182818
 1 -9.35625753595359 -4.56055306880688 -2.10876139673967
 1 -8.72727443294329 -5.63128390829083 -0.99162381588159
 1 -3.81067679497950 -3.57852520382038 -0.27320037983798
 1 -2.10810767876788 -6.54371097479748  2.51937764176418
 1 -2.11804837653765 -4.90512025102510  3.57825227552755
 1 -3.79786084148415 -5.90212721272127  3.25917743794379
 1  2.60791258305831 -2.23508024912491 -1.36878401170117
 1  2.50212205510551 -0.48439987798780 -1.99720734003400
 1  4.12808424432443 -1.28172624312431  0.31353039743974
 1  5.05659092359236  1.87534523232323 -2.32505509290929
 1  5.53669063286329  0.30608656385639 -3.26595966306631
 1  3.82827931313131  0.63718652455246 -2.75179053595360
 1  6.40464056115612  1.32033517741774 -0.47378257865787
 1  6.07955578137814 -0.05202078737874  0.69838953305331
 1  7.10939159225923 -1.45982002740274 -1.23667851395140
 1  7.81015076617662  0.06977248184819 -1.95049390709071
 1  8.65165960756076  0.75161301280128  0.10215147364737
 1  8.58791152105211 -1.03464055105510  0.81347420032003
 1  10.03652051735173 -0.14677447914791 -1.70947167006701
 1  9.20127731533153 -2.46062472527253 -1.84523374887489
 1  10.98445530653065 -2.26527820422042 -1.69634538013801
 1  9.97852629442944 -2.82075395289529 -0.10933445494549
 1  11.21741593169317  1.02859048284828  0.16694015661566
 1  11.09696726612661 -0.56969545504550  1.02675319701970
 1  12.57536404440444 -1.54680855985599 -0.77044048684868
 1  12.61044136073607 -0.06627390029003 -1.68917223572357
 1  13.70104113961396  1.21513190899090  0.51125629972997
 1  13.93965880138014 -0.69636259025903  1.10688026422642
 1  15.01777327472747  0.48804200400040 -1.61904855465546
 1  14.91864725972597 -1.68766705050505 -1.69525354585459
 1  16.65370210651065 -1.51363720322032 -1.13310470307031
 1  15.64413713131313 -2.07326694529453  0.12668536983698
 1  16.13780097169717  1.77293038173817  0.49256309990999
 1  16.36033235593559  0.19681349044904  1.31744374117412
 1  18.37305338263826 -0.20707918651865 -0.31997668236824
 1  17.77102982838284  1.19773273637364 -1.29323662826283
 1  18.39053075897590  2.61823055075508  0.99226572157216
 1  18.55121813601360  1.06510534733473  1.68973022862286
 1  20.74474270407041  0.53573430713071  0.31631456855686
 1  20.09849254645465  3.25052718481848 -1.16634160836084
 1  21.36197471467147  2.16757236103610 -1.70195551895189
 1  19.58346658245825  1.82335237183718 -1.84866004720472
 1  20.70236524962496  1.73850340064006  2.36630055785579
 1  22.07354119581958  1.98500661726173  0.88148004780478
 1  20.72962062476248  3.28660833133313  1.35779838423842
 1 -7.08974275677568  1.70451472347235  0.22816607340734
 1 -7.65170653725373 -0.16927180278028 -0.06594991519152

