%nproc=4
%Mem=2GB
# td=(NStates=1) B3LYP/SVP 

TD

0 1
 6 -5.04014686518652 -1.90172997899790  0.49410803590359
 6 -4.76023218141814  2.68909913891389  1.47945462156216
 6 -9.32292153575358  3.35209140544054 -0.24541915811581
 6 -9.69665151625163 -1.43076467106711 -0.97595374077408
 7 -5.13262001000100  0.45755221632163  0.82644010201020
 6 -4.48081617921792 -0.72140112371237  0.84285037063706
 6 -3.06644839853985 -0.58343882738274  1.28041129052905
 6 -3.03550770317032  0.81891700930093  1.89804430983098
 6 -4.35905086318632  1.39829687508751  1.36105801720172
 6 -3.00883738163816  0.78199650065007  3.44580443844384
 6 -2.02913825662566 -0.70898591269127  0.06730333803380
 6 -0.54906329442944 -0.81041989678968  0.48399616471647
 6  0.29552405830583 -1.19910682798280 -0.62957881508151
 8 -0.12923318741874 -1.72892258215822 -1.64916737133713
 8  1.56433150835083 -0.85970238873887 -0.28368336033603
 7 -7.02058523952395  2.66320106200620  0.54654524852485
 6 -5.86745092609261  3.32946967946795  1.01626575197520
 6 -6.08183945644564  4.77458554235424  1.05750730243024
 6 -7.39253231773177  5.01583290629063  0.60356558665867
 6 -8.02668811921192  3.63434203310331  0.27478881518152
 6 -5.20928008440844  5.82450623302330  1.54688069196920
 6 -8.19093568176818  6.31439115681568  0.34580963526353
 6 -9.02363988678868  6.74282357295730 -0.52730134643464
 7 -9.19312271157116  0.97159563416342 -0.52123909930993
 6 -9.83787556495650  2.11999530123012 -0.57583639433943
 6 -11.25453169116912  1.95420906040604 -0.94987905920592
 6 -11.38120356085609  0.58940298169817 -1.16143620522052
 6 -10.08014472287229 -0.01196824622462 -0.84636811721172
 6 -12.29998419561956  3.01877444654465 -1.28111254035404
 6 -12.62077217461746 -0.10847994639464 -1.62491472647265
 6 -12.46392086168617 -0.48609325572557 -3.30281746614661
 7 -7.55246837253725 -1.18307262176218 -0.07761410651065
 6 -8.61633761926192 -2.01109772397240 -0.39213614201420
 6 -8.16291989918992 -3.38042264376438 -0.51792553105311
 6 -6.80475250345035 -3.32924880918092 -0.14613671897190
 6 -6.40994953455345 -1.99232103120312  0.19116127022702
 6 -9.05622960806081 -4.51697509750975 -0.99634214101410
 6 -5.77441356285629 -4.29898512541254  0.01719438903890
 8 -5.67270912701270 -5.45752226092609 -0.16404948454845
 6 -4.54455005960596 -3.35661277397740  0.38352360196020
 6 -4.04784719951995 -3.86644033923392  1.75064694999500
 8 -4.23732634433443 -3.41379233513351  2.83532399639964
 8 -3.09128164386439 -4.84384466576658  1.53217896089609
 6 -2.64689822012201 -5.57879878517852  2.75688215851585
 6  2.64341438483848 -1.16521521212121 -1.24932913821382
 6  3.88609271907191 -0.76743136653665 -0.66975358855886
 6  4.96861916211621 -0.01243219561956 -1.27254265886589
 6  4.87376788698870  0.57009085078508 -2.67047958695870
 6  6.25764947704771  0.19541216951695 -0.44225568866887
 6  7.46979120632063 -0.43523285638564 -1.12440979437944
 6  8.78422189918992 -0.24867007390739 -0.20665554545455
 6  10.03451530623062 -0.68767324992499 -0.89189016891689
 6  10.00567436083608 -2.22720788658866 -1.04309842454245
 6  11.30165083968397 -0.24980465106511  0.06878441044104
 6  12.72323090769077 -0.34994347274727 -0.64126200340034
 6  13.84815122232223  0.15585288218822  0.31212757535754
 6  15.20143196429643 -0.02866590239024 -0.34790862666267
 6  15.63509083668367 -1.46571073297330 -0.62287202270227
 6  16.27405000220022  0.68184909610961  0.38219148354835
 6  17.75048188688869  0.66886262016202 -0.08670317811781
 6  18.64527437843784  1.54373299229923  0.81022971587159
 6  20.02553244914492  1.66656228152815  0.34682744314431
 6  20.18336926642665  1.92934236543654 -1.15124153315332
 6  20.94125459105911  2.55996973307331  1.14706110681068
 1 -4.17963613121312  3.44481086538654  1.86974921322132
 1 -9.98032561756176  4.10982041854185 -0.30942961686169
 1 -10.59234757465747 -2.04549055905591 -1.23404329822982
 1 -2.78575462696270 -1.71800216431643  1.84871666636664
 1 -2.20694126172617  1.40918086918692  1.30193969236924
 1 -2.05247276317632  0.27003442514251  3.61505823112311
 1 -3.06666996729673  1.86996163976398  3.77195629682968
 1 -3.62870344974498  0.13804450675068  3.75385423112311
 1 -2.20846029992999 -1.48950282798280 -0.64205106140614
 1 -2.05834177277728 -0.08600112581258 -0.58773743444344
 1 -0.16458078147815  0.22151627752775  0.75336136663666
 1 -0.47034004690469 -1.43563274327433  1.48734585358536
 1 -4.35164982238224  5.84223236083608  0.86471960996100
 1 -5.73378459725973  6.85730084878488  1.62021761876188
 1 -5.13086486348635  5.44243409280928  2.64808586918692
 1 -7.55305540444044  7.12504953865387  1.06896820312031
 1 -9.46269166196620  5.93377136263626 -1.13237263326333
 1 -9.29813409260926  7.75115040034003 -0.72697240134013
 1 -12.32976752415241  3.79819031753175 -0.40020241884188
 1 -12.11057998029803  3.66853181788179 -2.07031424892489
 1 -13.22720012001200  2.54466008420842 -1.25036808370837
 1 -12.77798262416242 -0.95690581688169 -0.98813338713871
 1 -13.49112985528553  0.46835649704970 -1.60112378967897
 1 -12.21945646064606  0.38410542564256 -3.88756760016002
 1 -11.63417962566257 -1.34806420282028 -3.56493729042904
 1 -13.67594566776678 -0.82771012911291 -3.52495635433543
 1 -10.05294284108411 -4.50990308220822 -0.54923072697270
 1 -9.19514142434243 -4.61095810931093 -2.25257577817782
 1 -8.36840854635464 -5.37842862276228 -0.59796444994499
 1 -3.66243197049705 -3.44835218651865 -0.17605066486649
 1 -2.02635950395039 -6.47480408410841  2.18219392339234
 1 -2.19274584628463 -4.91789152815281  3.50826527682768
 1 -3.54301535693569 -5.98847584758476  3.18447996819682
 1  2.54272606440644 -2.27707444854485 -1.57872500580058
 1  2.42394423732373 -0.58705014301430 -2.35435305460546
 1  4.14325576147615 -1.03637170767077  0.24358340274027
 1  5.14495976047605  1.74860255805580 -2.48691127852785
 1  5.49997696149615 -0.03189723452345 -3.38422148924893
 1  3.80005649084909  0.37566037193719 -3.25385074197420
 1  6.47390748784878  1.37027017091709 -0.26820202060206
 1  5.94668249404940 -0.14293987928793  0.59750944504450
 1  7.27104775787579 -1.44969901530153 -1.36844169026903
 1  7.59087883898390 -0.01376587198720 -1.93194205190519
 1  9.00279472107211  0.80960881238124  0.18581984048405
 1  8.50420315021502 -0.89701678867887  0.68426127902790
 1  10.12388925422542 -0.06794659635964 -1.91641236413641
 1  9.21028821642164 -2.25904456725673 -1.79595882138214
 1  10.97185404640464 -2.59477115351535 -1.65932167776778
 1  9.71549999179918 -2.85103698119812 -0.10566408790879
 1  11.10685487558756  0.69175679947995  0.30648411101110
 1  11.11112868226823 -0.94569305480548  1.02412293399340
 1  13.07900440844084 -1.40848472747275 -1.09095253805381
 1  12.89114943154315  0.23809653675368 -1.47668098659866
 1  13.62458349384939  1.25638603440344  0.62785795989599
 1  13.80155499099910 -0.53377633163316  1.22307188338834
 1  15.17356885428543  0.39335253505350 -1.33334998479848
 1  14.90063545854585 -1.93812209600960 -1.26516053655366
 1  16.55561229752976 -1.59299513901390 -1.15369676227623
 1  15.77075979357936 -2.01884150275027  0.48456115741574
 1  16.03673086468647  1.74202729142914  0.44864870847085
 1  16.37847417011701  0.27495130423042  1.37623962076208
 1  18.16827290459046 -0.25564404300430 -0.40869555425543
 1  17.43001572697270  1.05872883598360 -1.14134143874387
 1  18.10546225212521  2.69730845854585  0.95294178917892
 1  18.46185920012001  1.11779061586159  1.84963621922192
 1  20.54097232703270  0.64395512921292  0.47442037913791
 1  19.66128882608261  2.86083821592159 -1.55150012421242
 1  21.36855537273727  2.09548515231523 -1.09880520392039
 1  19.81476971277128  1.28853889048905 -2.00687586878688
 1  20.76919193229323  2.48537808810881  2.34216814461446
 1  22.12141598329833  2.39386750335034  1.01629352915291
 1  20.53246090879088  3.82778244874487  0.86549915431543
 1 -7.30843462596260  1.63723799579958  0.42158541534153
 1 -7.65524689128913 -0.20007488308831 -0.02910623082308

