%nproc=4
%Mem=2GB
# td=(NStates=1) B3LYP/SVP 

TD

0 1
 6 -5.07361021152115 -1.91578138413841  0.46291491659166
 6 -4.69197535573557  2.74967519651965  1.47181385748575
 6 -9.18764800840084  3.54450064636464 -0.36620123632363
 6 -9.77810966206621 -1.41356295089509 -1.14328047344734
 7 -5.23154990299030  0.46374283538354  0.68511596959696
 6 -4.44014211181118 -0.77994697829783  0.94915100070007
 6 -3.11341309500950 -0.60322080558056  1.38621187058706
 6 -3.12396654905491  0.91693681128113  1.90839534493449
 6 -4.37002196029603  1.37818486388639  1.27790970237024
 6 -3.12770926882688  0.86356465746575  3.39533939193919
 6 -2.06242158495850 -0.99137415151515  0.40644725242524
 6 -0.61121951005101 -0.83690254505451  0.80084784988499
 6  0.37760226612661 -1.22473939123912 -0.30048590579058
 8  0.08940867676768 -1.87186687658766 -1.31507396199620
 8  1.68819389458946 -0.64291070957096 -0.02655764776478
 7 -6.99451263226323  2.71904664656466  0.46220681468147
 6 -5.91100528152815  3.40993772627263  1.10574469986999
 6 -6.16522779527953  4.81719980378038  1.17571912361236
 6 -7.42160522502250  5.04491581458146  0.52183741384138
 6 -7.86220167056706  3.68913751265127  0.04529586588659
 6 -5.26085524192419  5.75459924232423  1.72860886478648
 6 -8.05010159835984  6.36604632233223  0.43681873617362
 6 -9.00497802060206  6.67368665926593 -0.50436905320532
 7 -9.04094749404941  1.04973344794479 -0.53615059045905
 6 -9.70056183358336  2.19665296699670 -0.57530634133413
 6 -11.03679991799180  2.03575721522152 -1.10495456675668
 6 -11.28095353585359  0.67995203660366 -1.35590565216522
 6 -10.04797150555056  0.04724767536754 -1.00333381378138
 6 -12.09260345754575  3.06595916501650 -1.07691212031203
 6 -12.54693479087909 -0.03497259565957 -1.77881011601160
 6 -12.53777824742474 -0.30070471687169 -3.32523970837084
 7 -7.50370349604960 -1.26523083758376 -0.27113345844584
 6 -8.59371535703570 -2.05089170337034 -0.86357328572857
 6 -8.11381498869887 -3.41730633213321 -0.75134887338734
 6 -6.82423445164516 -3.43931981628163 -0.49009111441144
 6 -6.42727126672667 -2.08135993509351 -0.00316816271627
 6 -8.88000198529853 -4.52883628362836 -1.24210671747175
 6 -5.65779190069007 -4.25417064396440 -0.05940327072707
 8 -5.58605046114612 -5.55446195489549 -0.24666774637464
 6 -4.51798740334033 -3.30739785248525  0.47846309590959
 6 -4.11994440924092 -3.86524021922192  1.79727161246125
 8 -4.23106571827183 -3.42205316121612  2.90104056805681
 8 -3.47997051275128 -5.03325360666067  1.68625436843684
 6 -3.03556708700870 -5.77930883618362  2.85768223852385
 6  2.62033207660766 -1.20784947554755 -1.03684789008901
 6  3.90784489428943 -0.78499312271227 -0.41655826902690
 6  4.92923522372237 -0.00128108050805 -0.99934533913391
 6  4.82481299149915  0.62248609030903 -2.33661620062006
 6  6.27269098119812  0.06962959125913 -0.10310177327733
 6  7.50387461466147 -0.46112544564456 -1.00319767316732
 6  8.73129660666067 -0.36198140504050 -0.14498937883788
 6  10.07831968666867 -0.84429891249125 -0.68660964086409
 6  10.14029782318232 -2.33049821562156 -0.76104021872187
 6  11.27821849644964 -0.19781945254525 -0.05018748674867
 6  12.63825240984098 -0.64599307770777 -0.54499237643764
 6  13.75349175637564  0.12028932583258  0.07850421302130
 6  15.18325014611461 -0.11564460026003 -0.47549138493849
 6  15.48345567316732 -1.68011217311731 -0.46654639013901
 6  16.18840143734374  0.93773468466847  0.27062032643264
 6  17.70708754745474  0.73885961986199 -0.25812031983198
 6  18.59926977797780  1.67269588858886  0.42707140004000
 6  19.98770866676668  1.79255488078808 -0.13593083268327
 6  20.06954788428843  2.51778120932093 -1.48960536953695
 6  20.86597706330633  2.56563029912991  0.90346674737474
 1 -4.08115628322832  3.44492087638764  2.16937917621762
 1 -9.95065265026503  4.36359579607961 -0.16790546444644
 1 -10.67034537443745 -1.98785479547955 -1.31459135303530
 1 -2.88395444694469 -1.42600296439644  2.13517531223122
 1 -2.09807037463746  1.29909986108611  1.76348584698470
 1 -2.03313082898290  0.29408683038304  3.64480120542054
 1 -2.79072237253725  1.86738138173817  3.82265136633663
 1 -4.00918149754976  0.49012971527153  4.08428727442744
 1 -2.20114956885689 -1.93482736043604 -0.20757761406141
 1 -2.16538247684768 -0.21456398209821 -0.40933959465947
 1 -0.44246857025703  0.10720484638464  1.22322835333533
 1 -0.48108112101210 -1.55746492649265  1.74063118211821
 1 -4.41097575497550  5.98423656125613  1.09448258625863
 1 -5.73777499629963  6.77962308100810  1.79412500950095
 1 -4.94048582558256  5.67451730113011  2.74756581718172
 1 -7.55256535543554  6.92710974467447  1.30416172247225
 1 -9.06977237003700  5.71820980648065 -1.28537793379338
 1 -9.68217249644965  7.72127741304130 -0.77957766186619
 1 -12.26663121052105  3.52400289878988 -0.02432483108311
 1 -11.92289121142114  3.99273423812381 -1.72672989048905
 1 -13.18146554655466  2.59381499969997 -1.44719776667667
 1 -12.47168199409941 -1.10497062336234 -1.39909448324832
 1 -13.47275801810181  0.56317597899790 -1.36046972427243
 1 -12.57498201320132  0.66036305140514 -4.08261710511051
 1 -11.55786199389939 -0.72468186458646 -3.62479327602760
 1 -13.38753682688269 -0.96641399949995 -3.68050190889089
 1 -9.67326487328733 -4.85176726862686 -0.55385118901890
 1 -9.36547845804580 -4.32240925442544 -2.16586710731073
 1 -8.21038274377438 -5.50470125002500 -1.19019367286729
 1 -3.65998172547255 -3.46567391869187 -0.31560462026203
 1 -2.85444231223122 -6.97077368106811  2.44088979297930
 1 -2.11540811251125 -5.30296003500350  3.13833828412841
 1 -3.96047710311031 -5.85344234423442  3.65254677487749
 1  2.53870566236624 -2.34975171627163 -0.91791892519252
 1  2.43770561346135 -0.94865630363036 -2.27110472977298
 1  3.98172960886089 -1.14600267076708  0.58018706310631
 1  5.56591185568557  1.56971466926693 -2.33584617201720
 1  5.31089805360536 -0.25499954475448 -3.02478554565457
 1  3.79764624982498  0.70420322622262 -2.64503986088609
 1  6.34248434553455  1.31360450435043  0.05511031063106
 1  6.15017284308431 -0.18115370067007  0.95453514761476
 1  7.29027968106811 -1.58640268566857 -1.19117396349635
 1  7.50719047014701  0.08346385098510 -1.97497635533553
 1  8.86126056765677  0.66796464796480  0.12258351685169
 1  8.44275700560056 -0.75714280128013  0.89097195009501
 1  10.11892875817582 -0.40996079777978 -1.68271899479948
 1  9.28225541314131 -2.89269793259326 -1.09682890839084
 1  11.04852171317132 -2.87279895629563 -1.23927967356736
 1  10.39901834363436 -2.88896077357736  0.23783026152615
 1  11.25084927502750  0.99684730853085 -0.18684522192219
 1  10.94968253765377 -0.20887937343734  1.08041856355636
 1  12.74622113011301 -1.80147402640264 -0.41505494829483
 1  12.61923223982398 -0.60310758365837 -1.84735805430543
 1  13.37652868836884  1.02999339513951 -0.03103792969297
 1  13.85265010051005 -0.10925387938794  1.26033560976098
 1  15.03002449984999  0.21659485928593 -1.42284893469347
 1  14.77980337533753 -2.10716900070007 -1.04221824232423
 1  16.64145088138814 -1.77071291079108 -0.64581597419742
 1  15.32362508010801 -2.13857347594759  0.63698639993999
 1  15.91066825842584  1.91043413211321 -0.01124728112811
 1  16.02613893659366  0.63876768586859  1.20097209400940
 1  17.93910998829883 -0.41998047664766 -0.16807149184919
 1  17.59987271267127  1.16495945904590 -1.26790409500950
 1  18.05090679657966  2.67130585828583  0.35953244824482
 1  18.74597761196120  1.35043388018802  1.55992724832483
 1  20.42779100890089  0.76433716741674 -0.10830789368937
 1  19.56894959215922  3.57240937303730 -1.48780375457546
 1  21.15571408860886  2.77656326012601 -1.81781710511051
 1  19.81202943874387  1.92732276887689 -2.25845102630263
 1  20.71292630573057  2.16897644794479  1.86797072487249
 1  22.02301614331433  2.42674079067907  0.47787968776878
 1  20.75938360106011  3.72429209970997  1.18563116751675
 1 -7.10924470697070  1.79153342534253  0.25219847664766
 1 -7.62029339593959 -0.35523039863986 -0.10226354655466

