%nproc=4
%Mem=2GB
# td=(NStates=1) B3LYP/SVP 

TD

0 1
 6 -5.06284913541354 -1.89537934393439  0.48979760486049
 6 -4.78633479167917  2.85052528152815  1.39625630173017
 6 -9.33449269286929  3.19291548784878 -0.18870348654865
 6 -9.79263111421142 -1.55149674427443 -1.02133827922792
 7 -5.25852260026003  0.49940640174017  0.78826628462846
 6 -4.42297039463946 -0.66878586218622  0.76959304490449
 6 -3.03583533723372 -0.32956343984398  1.17978122752275
 6 -3.19471362376238  1.01009612721272  1.87279178457846
 6 -4.46049100720072  1.53997104250425  1.26875878727873
 6 -3.15956245414541  0.90116841784178  3.38278813681368
 6 -2.07828317111711 -0.43855886998700  0.00775738343834
 6 -0.57487587568757 -0.50512936773677  0.44222198729873
 6  0.36441094699470 -0.75375229252925 -0.67418327552755
 8 -0.00497076117612 -1.12848253815382 -1.76430888548855
 8  1.64005908110811 -0.62533895239524 -0.28130312231223
 7 -7.05481866286629  2.83516825872587  0.48886948094809
 6 -6.04849903090309  3.40317705020502  1.05541966736674
 6 -6.40182145464546  4.85710379417942  1.09738128982898
 6 -7.72563562806281  4.93865518851885  0.60247547764776
 6 -8.10595604600460  3.67512611151115  0.23614495079508
 6 -5.43871302770277  5.89773355575558  1.52401840574057
 6 -8.52985957415742  6.11542125982598  0.41654670897090
 6 -9.42078960176018  6.55553484408441 -0.55289390569057
 7 -9.18506190549055  0.85388386298630 -0.61084806020602
 6 -9.89515129252925  1.93831713341334 -0.52022083278328
 6 -11.29158539653965  1.72406604610461 -0.88964303560356
 6 -11.37034247474748  0.44197823922392 -1.08558862046205
 6 -9.99442615101510 -0.13418046744674 -0.87054053445345
 6 -12.40548474567457  2.71194376347635 -0.95838026712671
 6 -12.57980807820782 -0.35458455685569 -1.57303953895390
 6 -12.63425789538954 -0.54596924332433 -3.08381556595660
 7 -7.47200032573257 -1.30827514201420 -0.21967831293129
 6 -8.56228221372137 -2.12525914011401 -0.64774170257026
 6 -8.10698430563056 -3.40336493799380 -0.76584032253225
 6 -6.71280330853085 -3.44908079237924 -0.23131523682368
 6 -6.44106264586459 -2.06408820792079  0.08239039313931
 6 -8.85816980208021 -4.75374877487749 -1.10338284508451
 6 -5.52643876537654 -4.29522474937494  0.07182985258526
 8 -5.36274813091309 -5.39278578727873 -0.15649872947295
 6 -4.32587819241924 -3.21756886958696  0.41228647824782
 6 -3.67384979977998 -3.61201489668967  1.72197408270827
 8 -4.19565217691769 -3.25659661556156  2.72262272627263
 8 -2.85746826252625 -4.65947622892289  1.53185892889289
 6 -2.26551008130813 -5.26923782908291  2.62471894219422
 6  2.68436848024802 -0.93838252885289 -1.31980618591859
 6  4.03477758755876 -0.73312793619362 -0.67425403860386
 6  5.04208650885088  0.14783383098310 -1.01538694329433
 6  4.90763127332733  1.08242208390839 -2.33943648264826
 6  6.24168788088809  0.20462309060906 -0.16903836693669
 6  7.46718094529453 -0.46842617571757 -0.82140949434943
 6  8.77298077507751 -0.16513172007201 -0.08696357625763
 6  10.08293014771477 -0.75842032463246 -0.76843782368237
 6  10.00807460086009 -2.42244741054105 -0.89227334203420
 6  11.21014168876888 -0.38101777237724  0.12965049704970
 6  12.68925751035104 -0.83937241564156 -0.42326020322032
 6  13.86947335453545 -0.21619432253225  0.32870923352335
 6  15.23832565366537 -0.40785382118212 -0.35024886068607
 6  15.60597792539254 -1.95332949484948 -0.62708244374437
 6  16.24453705090509  0.40063097429743  0.49746301070107
 6  17.60463730243024  0.54691042494249 -0.18982349014901
 6  18.60438028902890  1.48174679367937  0.60524921782178
 6  20.05877577347735  1.47323294859486  0.01236399679968
 6  20.13488441794179  2.30190962216222 -1.30507691669167
 6  21.09510997659766  2.19152288838884  1.06536293699370
 1 -3.99079724732473  3.68831521582158  1.52532477077708
 1 -10.25054263926393  4.11876131263126 -0.07190586448645
 1 -10.48704704460446 -2.30418642864286 -1.16973686758676
 1 -2.74889094059406 -1.12662302640264  1.79614140884088
 1 -2.31972253985399  1.63981393249325  1.63854335273527
 1 -2.25941345724573  0.55082250395039  3.68340506580658
 1 -3.18187148744875  1.97898254185419  3.87873697489749
 1 -3.87703828322832  0.39978068036804  3.74511335703570
 1 -2.33619307320732 -1.32502638033803 -0.52047890419042
 1 -2.14012995159516  0.30896837113711 -0.85576423712371
 1 -0.16145046844684  0.45975010091009  0.95338136863686
 1 -0.40343335623562 -1.26672585258526  1.16265338433843
 1 -4.56651130853085  6.08205634323432  0.90058319631963
 1 -6.21559277807781  6.81273639233923  1.54961055805581
 1 -5.01769354635463  5.95141499089909  2.52420348094810
 1 -8.35255535443544  6.82996002970297  1.16543785008501
 1 -9.67537293009301  5.91487947344734 -1.48546794279428
 1 -10.05927020622062  7.37815310061006 -0.37992769686969
 1 -12.83958850625062  3.13659415791579  0.01286888828883
 1 -11.99520844314432  3.60931589628963 -1.60464768226823
 1 -13.35413281328133  2.21007662586259 -1.56383943084308
 1 -12.57725255115512 -1.46320644694469 -1.03730830463046
 1 -13.62743348564856  0.24697435883588 -1.14407808510851
 1 -12.72102661766177  0.34746176127613 -3.64375321872187
 1 -11.83897010471047 -0.99079847624762 -3.44086488318832
 1 -13.52862093529353 -1.11100845894589 -3.64470832953295
 1 -9.88097564436444 -5.02274436633663 -0.42682848674867
 1 -9.13995590579058 -4.90157717121712 -2.15411593219322
 1 -8.08333003850385 -5.53557433733373 -1.09456410991099
 1 -3.69378510581058 -3.62576992829283 -0.43707676747675
 1 -1.65294216221622 -6.04594119781978  2.24714041804180
 1 -1.54077064876488 -4.58562830183018  3.20078452875288
 1 -3.01744279967997 -5.37207420742074  3.50031155135514
 1  2.54311610341034 -1.99324606570657 -1.45581271457146
 1  2.55382722562256 -0.20138157615762 -2.27319493879388
 1  4.11942337823782 -1.19694776527653  0.28594763916392
 1  5.16419168366837  2.13466116391639 -2.03677626502650
 1  5.73676063986399  0.77191314651465 -3.12496556365637
 1  4.03152963816382  1.09805261116112 -2.71699705660566
 1  6.64376447354736  1.23642678657866  0.11320612021202
 1  6.00361818761876 -0.22488807410741  0.85190488458846
 1  7.11742239533953 -1.62922696809681 -1.07263210931093
 1  7.55386513761376 -0.41489598499850 -1.99765862356236
 1  9.02237667926793  0.79077692919292  0.09747100560056
 1  8.78194092399240 -0.96188327532753  0.75008786168617
 1  10.05007187248725 -0.31109091079108 -1.75994671757176
 1  9.05144233183318 -2.63142180498050 -1.42828205370537
 1  10.74380124112411 -3.12607428382838 -1.36441218681868
 1  10.02576101790179 -2.90019189668967  0.03627010551055
 1  11.17437162726273  0.84667229102910  0.27902136473647
 1  11.13626119551955 -0.69317780328033  1.23123364506451
 1  12.39205571357136 -1.92763664266427 -0.54777822062206
 1  12.86031634823482 -0.33084035693569 -1.41760507900790
 1  13.66399743524352  0.83726412221222  0.43339851395140
 1  13.95139997549755 -0.48195114911491  1.40363994019402
 1  15.11597309470947  0.00074327412741 -1.39285593539354
 1  14.69003439843985 -2.13747203100310 -1.38039205970597
 1  16.56776351265126 -1.97646348584858 -1.14553594619462
 1  15.75397811541154 -2.57287690629063  0.44459716101610
 1  15.80039723132313  1.55562865156516  0.74968881248125
 1  16.29836615931593  0.07570137923792  1.45313731053105
 1  18.08507458475848 -0.52358083668367 -0.20536522122212
 1  17.50207293269327  0.68320128322832 -1.25793309790979
 1  18.28629033493349  2.56465519321932  0.52951944694469
 1  18.68935194939494  1.12689152595260  1.69944119971997
 1  20.55915414521452  0.52093282698270 -0.20131719461946
 1  19.67176987418742  3.24719685178518 -1.21986696089609
 1  21.12755127232723  2.37798340214021 -1.52382770617062
 1  19.65784402020202  1.73697373397340 -2.21654683588359
 1  20.99472448554856  1.77507705800580  2.09609353715372
 1  22.03570741244124  2.18656677327733  0.65099699949995
 1  20.82163982668267  3.30153982448245  1.17385999039904
 1 -7.01872565506551  1.77868214021402  0.30896415321532
 1 -7.50503186978698 -0.19592446804680 -0.09622294249425

