%nproc=4
%Mem=2GB
# td=(NStates=1) B3LYP/SVP 

TD

0 1
 6 -5.18819166966697 -2.00642044804480  0.57012563766377
 6 -4.73622978117812  2.71270149914991  1.51755843194319
 6 -9.25519476307631  3.33343954025403 -0.29910452665267
 6 -9.89500135123512 -1.50965255985599 -1.05361150655066
 7 -5.24623137113711  0.42435889698970  0.76966442444244
 6 -4.54647274487449 -0.79636862046205  0.85548163376338
 6 -3.17957971167117 -0.59337982148215  1.23629687908791
 6 -3.08088224062406  0.81384650225023  1.88489299469947
 6 -4.39503446154615  1.35596264166417  1.32280419181918
 6 -2.98935543344334  0.79975827682768  3.37120697869787
 6 -2.21442678547855 -0.74263927802780  0.07674428212821
 6 -0.62969135723572 -0.77750660546055  0.54121188628863
 6  0.38401290719072 -1.08868578587859 -0.62390824802480
 8  0.12979271517152 -1.68092778267827 -1.66027848244824
 8  1.56056113131313 -0.43516993549355 -0.29161415341534
 7 -6.99916309730973  2.78041278317832  0.45728632263226
 6 -5.91630581158116  3.41781851435143  1.01284540994099
 6 -6.25580685318532  4.75512359615962  1.09720127182718
 6 -7.42907597209721  4.97608893189319  0.49720495059506
 6 -8.00345579597960  3.66999559845985  0.10608194449445
 6 -5.22065122152215  5.81895567796780  1.64618062196220
 6 -8.06058264646465  6.21172088978898  0.37354240854085
 6 -8.99786730953095  6.68448773937394 -0.54849346564656
 7 -9.21836523582358  0.93798227282728 -0.47795477087709
 6 -9.88115989338934  2.05350865256526 -0.42020083078308
 6 -11.19696593459346  1.93176681618162 -0.98090216151615
 6 -11.47074251475147  0.48559260066007 -1.14337439903990
 6 -10.16562327072707 -0.11180823022302 -0.88911239163916
 6 -12.26023022022202  2.99385195429543 -1.12614704380438
 6 -12.57166726412641 -0.17304640304030 -1.68249048404840
 6 -12.68123259285929 -0.33116776317632 -3.22415960036004
 7 -7.58345147084709 -1.24180849534953 -0.26738308340834
 6 -8.58575456095610 -2.02264887908791 -0.74072100050005
 6 -8.22647625482548 -3.39821442294229 -0.70606434493449
 6 -6.98691071927193 -3.41979786408641 -0.17708981428143
 6 -6.60275881548155 -2.15397719681968  0.18511066516652
 6 -9.05756974207421 -4.60034343434343 -1.24202670947095
 6 -5.81993811531153 -4.32726795369537  0.12089475907591
 8 -5.71081293739374 -5.58141465016502 -0.13142622222222
 6 -4.64636024062406 -3.40484759745975  0.55340058965897
 6 -3.92141455625563 -3.84791848704870  1.73545543084308
 8 -4.09288189988999 -3.29283023892389  2.85809627362736
 8 -3.09669218491849 -4.91238151945195  1.58343408640864
 6 -2.59775330563056 -5.53133403870387  2.79214568486849
 6  2.68694873827383 -0.80688937953795 -1.17045125042504
 6  3.91468557835784 -0.34011863526353 -0.45815242844284
 6  4.93417571777178  0.13426247384738 -1.07981338593859
 6  5.20392090229023  0.49869371107111 -2.58722126112611
 6  6.31879559165917  0.36302893119312 -0.31241270437044
 6  7.49144337153715 -0.43819315241524 -0.90428778217822
 6  8.74674815181518 -0.26735194209421 -0.04012889278928
 6  10.03728558325833 -0.69332381498150 -0.72524350425043
 6  10.21957575097510 -2.18640380618062 -0.91805592029203
 6  11.25438611321132 -0.14748441904190  0.04904243624362
 6  12.59210779537954 -0.51630010841084 -0.50999887708771
 6  13.83441984918492  0.10607790469047  0.20217658025803
 6  15.28801062216221 -0.13869690549055 -0.40149398519852
 6  15.57601492909291 -1.73204736663666 -0.60440017551755
 6  16.31186378357836  0.58264917611761  0.41493475787579
 6  17.76177301600160  0.53667940184018 -0.14811931973197
 6  18.71172102310231  1.62205082408241  0.56441513441344
 6  20.14012390829083  1.56822244754475  0.14729749014901
 6  20.23813474297430  2.25628505970597 -1.32603901290129
 6  21.05328579417942  2.29932366846685  1.08716511721172
 1 -3.93083125072507  3.36254263856386  1.88408064636464
 1 -9.96083366836684  4.15317475397540 -0.50044871877188
 1 -10.66231457135714 -2.29645565556556 -1.38581847574758
 1 -2.84741079257926 -1.31575193929393  2.00428222292229
 1 -2.10031059865987  1.31104105520552  1.45761525992599
 1 -1.98790630653065  0.28720614231423  3.63670039533953
 1 -2.81018431873187  2.03165780938094  3.89288839003900
 1 -3.85726630603060  0.29954065636564  3.83435228092809
 1 -2.45194464836484 -1.67226110381038 -0.51702855915592
 1 -2.34525046364636  0.08546602090209 -0.69944860556056
 1 -0.30499482288229  0.29618374427443  0.71614764526453
 1 -0.41096410931093 -1.64475365536554  1.23169028802880
 1 -4.31565622302230  5.62937107470747  1.05222836083608
 1 -5.74526574537454  6.85605072377238  1.37280287728773
 1 -4.99819159615962  5.42726257565757  2.66296735733573
 1 -7.60214031293129  6.94097113081308  1.12676398269827
 1 -9.25423081588159  5.78106609210921 -1.21576097209721
 1 -9.43729800900090  7.72642792809281 -0.32306201030103
 1 -12.40836538393839  3.55059555805581 -0.28488088668867
 1 -12.03563248554856  3.73917888258826 -2.08270548804880
 1 -13.18142554255426  2.52090770897090 -1.28278132503250
 1 -12.86010083598360 -1.06911703800380 -1.07421199499950
 1 -13.46308705100510  0.53067272867287 -1.35131880918092
 1 -12.79585410041004  0.77710472557256 -3.60039888328833
 1 -11.89848605630563 -1.01740113651365 -3.63444424112411
 1 -13.67123519671967 -0.96583394149415 -3.49820367906791
 1 -9.88634618141814 -4.72164425632563 -0.57357316121612
 1 -9.60371228142814 -4.37155416891689 -2.16163668426843
 1 -8.59568127362736 -5.53548432833283 -1.27691234473447
 1 -3.93435916321632 -3.49478682998300 -0.35193825362536
 1 -2.19742661066107 -6.49564616831683  2.43423912791279
 1 -2.03478004970497 -4.80370010901090  3.25126957725773
 1 -3.50605166056606 -5.57611461146115  3.44726624682468
 1  2.71988378017802 -2.08307504860486 -1.10862799609961
 1  2.31168301120112 -0.44327576557656 -2.11116873617362
 1  3.93539497539754 -0.74324239473947  0.58883792819282
 1  5.96121138563856  1.30405810361036 -2.65413800120012
 1  5.54867183098310 -0.51187523232323 -3.22333540064006
 1  4.19775626082608  0.93652645854585 -2.84719007590759
 1  6.33903400050005  1.67487063096310 -0.39708490889089
 1  6.34934276007601  0.17044145884588  0.85815550965097
 1  7.19022967606761 -1.52107615301530 -0.76545139123912
 1  7.63687343844384 -0.28453294869487 -1.86861571927193
 1  8.75934037563756  0.71899975147515  0.25721698019802
 1  8.70234296419642 -0.84988207520752  0.92193504640464
 1  10.12033889918992 -0.08615841754175 -1.72692341524152
 1  9.47649483708371 -2.50232889568957 -1.42678190369037
 1  11.15412227322732 -2.35255693209321 -1.39279502510251
 1  10.36360480228023 -2.50253213071307  0.01852833133313
 1  11.08486267636764  0.87841546534653  0.21001446404640
 1  11.15225279467947 -0.66049453495350  1.08303882558256
 1  12.59955646364636 -1.70541442044204 -0.59893333613361
 1  12.69912022862286 -0.25836310921092 -1.61347466596660
 1  13.89807084258426  1.24827522332233  0.00745591969197
 1  13.87573240874087 -0.08628158215822  1.38298787498750
 1  15.20534203160316  0.16278947874787 -1.37628427822782
 1  14.81913730873087 -2.06718500230023 -1.29076309680968
 1  16.46975371167117 -1.93560940044004 -1.13379477207721
 1  15.74923764136414 -2.44243386198620  0.38847154845485
 1  16.27137432903290  1.67788087678768  0.31206505010501
 1  16.54633095579558  0.22258606770677  1.38820081688169
 1  18.14676075337534 -0.29230770937094 -0.29643432813281
 1  17.62414513991399  0.85615857895790 -1.27787509210921
 1  18.44345605150515  2.77340606830683  0.66466296129613
 1  18.74554756895690  1.44243308010801  1.57938919451945
 1  20.46984521432143  0.50823155685569 -0.02053911681168
 1  20.21704440164017  3.48057018911891 -1.23269824402440
 1  21.46501501870187  2.35278088188819 -1.53919924332433
 1  19.70336857265726  1.50912094869487 -2.08403358455846
 1  21.01958697179718  1.85343489378938  1.85689961776178
 1  22.11445528722872  2.33276139273927  0.80621252105211
 1  20.68804646734674  3.43054272477248  1.25577818221822
 1 -7.26938072057206  1.64370864286429  0.04194745154516
 1 -7.61414278087809 -0.19549442504250 -0.29797311751175

