%nproc=4
%Mem=2GB
# td=(NStates=1) B3LYP/SVP 

TD

0 1
 6 -5.07882073257326 -1.95142494849485  0.42581120622062
 6 -4.61175733393339  2.79631986098610  1.37671434753475
 6 -9.33154239783978  3.32253845014501 -0.23973859005901
 6 -9.86425827692769 -1.41136273087309 -0.77933407880788
 7 -5.20608735673567  0.48169463056306  0.82433989198920
 6 -4.51597969556956 -0.70790977457746  0.83876996259626
 6 -3.04256601030103 -0.54156463996400  1.24563781318132
 6 -3.03564771717172  0.77140225782578  1.92931743714371
 6 -4.35151010911091  1.39648669406941  1.33635554695470
 6 -3.15672217011701  0.79703800480048  3.48610846884688
 6 -2.07712305510551 -0.71270628472847  0.08451505920592
 6 -0.57471585968597 -0.69116797159716  0.54607237233723
 6  0.33561806770677 -0.80709762706271 -0.55377123432343
 8 -0.01956222032203 -1.15652534243424 -1.67869032363236
 8  1.65654072927293 -0.62126854535454 -0.23625861786179
 7 -7.02216539753975  2.77918266016602  0.39420001400140
 6 -5.88636281728173  3.35941267376738  1.05160928632863
 6 -6.15882715521552  4.77736582038204  1.00745229692969
 6 -7.41142420692069  4.96782810581058  0.55364059415942
 6 -8.04266971737174  3.69745834473447  0.23853518981898
 6 -5.10891004740474  5.70381416381638  1.58715471937194
 6 -8.02898948714872  6.27905762346235  0.45194024832483
 6 -9.04469199199920  6.77738702930293 -0.44148276457646
 7 -9.28725212451245  0.92028050265027 -0.47799477487749
 6 -9.86279805720572  2.08161146284628 -0.55945475617562
 6 -11.30160639863986  1.88894253375338 -1.10810488178818
 6 -11.40175561606161  0.55356939833983 -1.25802586418642
 6 -10.15381208960896 -0.10505755515552 -0.85162864326433
 6 -12.20469466666667  3.02517508660866 -1.47352178127813
 6 -12.57483758115812 -0.09180827922792 -1.80497273227323
 6 -12.48289275887589 -0.39743438983898 -3.38448563296330
 7 -7.60310343604360 -1.26709102360236 -0.01211755685569
 6 -8.71170715621562 -2.03391000520052 -0.38791571997200
 6 -8.13456706390639 -3.43968857035704 -0.45878961746175
 6 -6.85539756795680 -3.40131601590159 -0.19310141544154
 6 -6.51147968756876 -2.08955075417542  0.11350350445045
 6 -8.90050403550355 -4.54883828382838 -1.07201970877088
 6 -5.71611773327333 -4.31789701660166 -0.04068139853985
 8 -5.62956481258126 -5.46454296299630 -0.07274035363536
 6 -4.53230883548355 -3.35613272597260  0.42063731333133
 6 -3.90895331013101 -3.90885458065807  1.78634051935194
 8 -4.20467307900790 -3.49499045494549  2.90416088008801
 8 -3.08792130783078 -4.87889817111711  1.58221396439644
 6 -2.52748627892789 -5.74689559485949  2.59424589488949
 6  2.64983502690269 -0.87171586218622 -1.20364456975698
 6  3.94270838063806 -0.74516914031403 -0.65005161836184
 6  5.01030333053305 -0.07047800020002 -1.03526893149315
 6  4.90379088928893  0.78167200890089 -2.27665020402040
 6  6.20975468756876  0.17590021832183 -0.21583304640464
 6  7.45092932013201 -0.54989432253225 -0.96597395079508
 6  8.70717419441944 -0.39015422232223 -0.22549742964296
 6  10.07669952465247 -0.84707919051905 -0.76332731263126
 6  10.04260805420542 -2.46744190999100 -0.94277839253925
 6  11.33492416701670 -0.37895756635664  0.07381491349135
 6  12.72667125172517 -0.84354283268327 -0.50755863306331
 6  13.83384979217922 -0.09393209630963  0.24245060766077
 6  15.26198801990199 -0.30876391219122 -0.36030986678668
 6  15.65738306590659 -1.79831399329933 -0.42578231373137
 6  16.27719031623162  0.60002091329133  0.41259452385239
 6  17.72122896159616  0.69953568746875 -0.22051655945595
 6  18.52793264426442  1.71925054405441  0.52380107300730
 6  19.97250714661466  1.80310593589359 -0.02743998359836
 6  20.10631156065607  2.42204163536354 -1.35586199519952
 6  20.78075854145415  2.72547628372837  1.03751015171517
 1 -4.04082224982498  3.57222360666067  1.98374061236124
 1 -10.07050463546355  4.09117855435544 -0.23730240414041
 1 -10.61284962486249 -2.32997900790079 -0.96651654555456
 1 -2.94552060356036 -1.43142350645065  2.01811360606061
 1 -2.16837740534053  1.47390734183418  1.58804830323032
 1 -2.29763727962796  0.15463288498850  3.93227995329533
 1 -3.16349965026503  1.90241488508851  3.83465256645665
 1 -4.12209278867887  0.17644834713471  3.70123896959696
 1 -2.20379983388339 -1.87275115281528 -0.56726358265827
 1 -2.27794373297330  0.07268474277428 -0.76582524322432
 1 -0.31269559295930  0.23572769866987  1.11592762326233
 1 -0.43130614351435 -1.36359553955396  1.22738985798580
 1 -3.92203686108611  5.16492463006301  1.16877001500150
 1 -5.47616883568357  6.69986510521052  1.11433703070307
 1 -5.24408618561856  5.90214006340634  2.88551961256126
 1 -7.66537663656366  7.05181221492149  1.16654796109611
 1 -9.35965135793579  6.09296728222822 -1.37384678067807
 1 -9.12415669486949  7.80446573187319 -0.68405810991099
 1 -12.29288383578358  3.80260075857586 -0.64248664726473
 1 -11.67588651095109  3.50278524322432 -2.30192741024102
 1 -13.20949834983498  2.77729334753475 -1.71716476337634
 1 -12.70786561246125 -1.04699482578258 -1.32539711351135
 1 -13.53251399369937  0.40550021142114 -1.58638231553155
 1 -12.52970748574858  0.76375339043904 -3.83692253565357
 1 -11.56732293999400 -1.01085048144814 -3.33703450015001
 1 -13.50153822702270 -0.86182354045405 -3.87550140884088
 1 -9.62572011881188 -4.78450054195419 -0.36286209010901
 1 -9.63708561876188 -4.29513652715272 -2.03593411401140
 1 -8.26680838633864 -5.44325510541054 -1.39230388388839
 1 -3.68059378667867 -3.51953930523052 -0.36460952075208
 1 -1.86059292729273 -6.51736834053405  2.14260996499650
 1 -1.81991856355636 -5.16610634963496  3.06929137943794
 1 -3.29267032243224 -6.15539253925393  3.19072059225923
 1  2.69340113191319 -1.94156089718972 -1.63291042434243
 1  2.48078992189219  0.03253181518152 -1.99260687998800
 1  4.00130156605661 -1.32439050955096  0.34420346474647
 1  5.46637190169017  1.83326102390239 -2.24197678507851
 1  5.50206717051705  0.44481043624362 -3.12261532863286
 1  3.99880636583658  0.88722152805281 -2.85088044494450
 1  6.45779587668767  1.21226437033703 -0.08953415381538
 1  6.21113893969397 -0.35784136943694  0.73144283838384
 1  7.08575922902290 -1.60907495289529 -1.15597044314431
 1  7.70088984008401 -0.00088458385839 -1.93257211491149
 1  8.85666010761076  0.78185603710371  0.03513477197720
 1  8.48697142704270 -0.74017110411041  0.66621947484748
 1  10.21666853215321 -0.34762456415641 -1.64398512141214
 1  9.17993518111811 -2.74700336313631 -1.50971019651965
 1  10.90656751775178 -2.82393406980698 -1.48768451405141
 1  9.92590103190319 -2.83260513801380  0.04339081758176
 1  11.37364155425542  0.59287691149115  0.16016947954796
 1  11.08015558495850 -0.62681116661666  1.00965148684869
 1  12.77518402640264 -1.88187206620662 -0.40751419421942
 1  12.76749706630663 -0.59831710461046 -1.67435075357536
 1  13.60107114261426  1.05237563336334  0.21721689578958
 1  13.86584141964197 -0.46245919991999  1.27344692089209
 1  15.04903640104011 -0.02502930313031 -1.47940459025903
 1  15.07379277427743 -2.48163644744474 -1.00429444994499
 1  16.74604134043404 -1.98888472797280 -0.60632202480248
 1  15.57943066066607 -1.95718533713371  0.65348805010501
 1  15.58480567216722  1.63645673437344  0.58738258185819
 1  16.43118944164416  0.11640544964496  1.43575557235724
 1  18.21428750605061 -0.28804728332833 -0.33526821152115
 1  17.46677940334033  1.15179814291429 -1.34205150975098
 1  18.10019172507251  2.69671839953995  0.49587608260826
 1  18.56618963316332  1.44507334413441  1.50658191379138
 1  20.48660689048905  0.61091182488249  0.02471540864087
 1  19.84056675387539  3.28467059915992 -1.40042501670167
 1  21.18374689188919  2.54642024582458 -1.74744006740674
 1  19.60656889268927  2.03824386098610 -2.11971715291529
 1  20.96126113921392  2.37870742104210  1.99832376017602
 1  21.87549139083908  2.87935605220522  0.77658955875588
 1  20.33420108280828  3.73263293379338  1.04606721112111
 1 -7.13157694019402  1.73069734173417  0.40133339013901
 1 -7.47592895949595 -0.22593746934693  0.20836751655166

