%nproc=4
%Mem=2GB
# td=(NStates=1) B3LYP/SVP 

TD

0 1
 6 -5.20701355185519 -1.99894970097010  0.57253587868787
 6 -4.58940509870987  2.74228445744574  1.49558623472347
 6 -9.17225646924692  3.39156535283528 -0.36582119831983
 6 -9.75563741484148 -1.45160675527553 -0.98571471687169
 7 -5.20965771377138  0.41000746184618  1.02967042504250
 6 -4.65399349694970 -0.81613059665967  0.93698978457846
 6 -3.11185293899390 -0.69693017651765  1.39635288468847
 6 -3.09858401080108  0.80237535513551  1.98874337973797
 6 -4.36968192629263  1.32099914531453  1.37609952135214
 6 -2.89615611351135  0.81403970497050  3.50801065906591
 6 -2.09641498429843 -0.78386340044004  0.12181878957896
 6 -0.58842723082308 -0.79313816861686  0.58799656475648
 6  0.36093059895990 -1.17252416971697 -0.50797665486549
 8  0.06728646454645 -1.67375706560656 -1.51695415001500
 8  1.54004908010801 -0.97187360586059 -0.15266025802580
 7 -6.96342952395239  2.75695043694369  0.47768836283628
 6 -5.80387456845685  3.40201693419342  1.01113523892389
 6 -6.12828410091009  4.83256133993399  1.08048960066007
 6 -7.41025408990899  4.99395071807181  0.47498272837284
 6 -7.87118256865687  3.61179977887789  0.14519585588559
 6 -5.13772292869287  5.76469025142514  1.57124312821282
 6 -8.05201178937894  6.33331304900490  0.31411646594659
 6 -8.77973549634964  6.85017430803080 -0.71255987228723
 7 -9.18855225452545  1.01319979457946 -0.57936491189119
 6 -9.80611238863886  2.13508681038104 -0.57148595929593
 6 -11.18984522252225  1.98748238773877 -1.00530460176018
 6 -11.32680812131213  0.58049209060906 -1.17686774837484
 6 -10.01010771917192 -0.06057310671067 -0.90191367176718
 6 -12.18206240344034  3.07697026612661 -1.22365679477948
 6 -12.49127922532253 -0.15080417881788 -1.79660189518952
 6 -12.54005847544754 -0.34705935233523 -3.30335752015202
 7 -7.52057518321832 -1.27625193969397 -0.21007735283528
 6 -8.56404238973897 -1.97106372057206 -0.65327225562556
 6 -8.24026763396340 -3.37876247774777 -0.66439017751775
 6 -6.94306633483348 -3.38522440674067 -0.21575368066807
 6 -6.50062860246025 -2.11925372447245  0.03614576867687
 6 -9.13784776987699 -4.41178457845785 -1.35494800160016
 6 -5.81738786028603 -4.32098732563256  0.05323799339934
 8 -5.64708656475648 -5.54179068776878 -0.18697177677768
 6 -4.62123772837284 -3.43947105980598  0.54008925852585
 6 -3.93339575437544 -3.88788248344834  1.76626851215121
 8 -4.12764537623762 -3.48770972687269  2.90003046704670
 8 -3.16929944564456 -4.87969825112511  1.49689543254325
 6 -2.46439997029703 -5.55593649894989  2.62159863016302
 6  2.64003404680468 -1.18925761636164 -1.12313651895190
 6  3.96693080288029 -0.88380300370037 -0.47413402660266
 6  4.90135243544354  0.00687973557356 -0.86980238483848
 6  4.76672718291829  0.83223706540654 -2.19713225222522
 6  6.22224593669367  0.23027565586559 -0.21871333443344
 6  7.50350457765777 -0.26746607970797 -0.93369072247225
 6  8.71038451545155 -0.17667287418742 -0.10350523042304
 6  10.10670252495250 -0.71471595419542 -0.79794077397740
 6  10.10933472687269 -2.25924108990899 -0.85847996269627
 6  11.22012268686869 -0.11018068866887  0.08657618961896
 6  12.56900548514852 -0.46931540994099 -0.52185006220622
 6  13.75824223142314 -0.01959466256626  0.28414477707771
 6  15.18198001910191 -0.16244928072807 -0.36001983778378
 6  15.53566089368937 -1.66124028592859 -0.56741647714771
 6  16.20288288548855  0.62012292349235  0.37610087448745
 6  17.56627346604660  0.61319705360536 -0.38046255405541
 6  18.47250710171017  1.63411203020302  0.49382807570757
 6  20.01963185908591  1.76405203050305  0.01232399279928
 6  20.09629055855586  2.23985341654165 -1.41038744774477
 6  20.78642910851085  2.65642937903790  0.97966436713671
 1 -3.88500666826683  3.40418680298030  1.76416865516552
 1 -9.66578416341634  4.38223766026603 -0.38311698559856
 1 -10.37953629352935 -2.09235524552455 -1.45303519741974
 1 -2.77971402290229 -1.33783414751475  2.14013580828083
 1 -2.31647221482148  1.33490344144414  1.50238973737374
 1 -2.00679819571957  0.47456487818782  3.92836956225623
 1 -2.91694499479948  1.87700234383438  3.82975207640764
 1 -3.68149872927293  0.19470017231723  4.03423226892689
 1 -2.23698315221522 -1.62025590329033 -0.45343219951995
 1 -2.31955789438944 -0.03201572727273 -0.67561622232223
 1 -0.40828515191519  0.21114524042404  1.09073510401040
 1 -0.54363737663766 -1.70912009200920  1.37209432843284
 1 -4.32065672307231  5.64346248384838  0.89937307530753
 1 -5.54326554535453  6.90665578427843  1.88371396839684
 1 -4.62575435243524  5.37221707110711  2.61038209880988
 1 -7.75493559245925  7.01885891959196  1.08590989728973
 1 -8.86409180198020  6.12717070257026 -1.52508190419042
 1 -9.18693297249725  8.01038632393239 -0.51623132723272
 1 -12.11319586698670  3.91366186468647 -0.55231763036304
 1 -11.93328225052505  3.47438240294029 -2.24534175167517
 1 -13.20855825582558  2.71621723992399 -1.24811785868587
 1 -12.60192501840184 -1.11487161346135 -1.22007658145815
 1 -13.68268901120112  0.25226488788879 -1.39672334963496
 1 -12.42286680168017  0.50375739083908 -3.93303214661466
 1 -11.67208341604161 -0.90721011741174 -3.60807160386039
 1 -13.24194226742674 -0.88892625072507 -3.72415627432743
 1 -10.13360090689069 -4.62889498139814 -0.81230703460346
 1 -9.33356526672667 -4.22632964646465 -2.43825434603460
 1 -8.58704040954096 -5.46226700660066 -1.38800345384538
 1 -3.72943867116712 -3.38550590189019 -0.26886994679468
 1 -1.82101896989699 -6.42805940964096  2.14240994499450
 1 -2.01760833253325 -4.75855559455946  3.22696714701470
 1 -3.14452550795080 -5.98427542754275  3.36264778497850
 1  2.75350714251425 -2.31540828192819 -1.36851398469847
 1  2.49919176207621 -0.60355179317932 -2.02334995429543
 1  4.01461289718972 -1.37096516701670  0.61104014841484
 1  5.34561982648265  1.79121681948195 -1.91304389178918
 1  5.37814477827783  0.43849980518052 -3.06990005710571
 1  3.64399088428843  1.01531433733373 -2.52591794869487
 1  6.26325642274227  1.28389153305331 -0.22654785518552
 1  6.11239906570657 -0.36274185948595  0.88055774987499
 1  7.37421807490749 -1.60202424782478 -1.27977282338234
 1  7.68898864996500  0.26646215081508 -1.95577443514351
 1  8.75083952555256  0.97331518301830  0.13764502300230
 1  8.68491122102210 -0.78591567856786  0.89361221412141
 1  10.07595446074607 -0.09906970867087 -1.80128085098510
 1  9.17320450805081 -2.70797946074607 -1.58808803430343
 1  10.96476333733373 -2.61290296669667 -1.64138988458846
 1  10.10840928272827 -2.86064794229423  0.19148562706271
 1  11.16278046814681  0.97978560236024  0.41866532913291
 1  11.20811838123812 -0.80355884138414  1.01061158285829
 1  12.49371587958796 -1.74730860986099 -0.74985842864286
 1  12.68728904550455 -0.07937521042104 -1.42103542204220
 1  13.79145018051805  1.25044544034403  0.50503567766777
 1  13.85437027252725 -0.63586654065407  1.30040961716172
 1  15.11025252265227  0.23626682648265 -1.37946459625963
 1  14.62651804680468 -2.32191047484748 -1.05091911241124
 1  16.60983772007201 -2.06920275977598 -1.41946333893389
 1  15.72844556215622 -2.21711132973297  0.34042674397440
 1  15.96386357795780  1.66767985668567  0.29684352795280
 1  16.14459078177818  0.39115292439244  1.45151714851485
 1  18.25124120142014 -0.20908938753875 -0.58306299099910
 1  17.47806053145315  1.25541850495049 -1.34526183078308
 1  18.06294800070007  2.73996272397240  0.48591508650865
 1  18.27614062826283  1.45572440924092  1.61038229382938
 1  20.38842707250725  0.81949268296830  0.12903584068407
 1  19.76086878407841  3.16908904100410 -1.69947492169217
 1  21.16392490969097  2.23787939173917 -1.61967729112911
 1  19.53539177497750  1.86044608120812 -2.17633281448145
 1  20.69384439753976  2.22538208850885  1.94611853965397
 1  21.89030287198720  2.51339945654566  0.69489138893889
 1  20.34766242894290  3.71812148264826  0.81748435283528
 1 -7.10897467996800  1.73200747274727  0.55470872767277
 1 -7.53015438203820 -0.28038291389139 -0.29229254945495

