%nproc=4
%Mem=2GB
# td=(NStates=1) B3LYP/SVP 

TD

0 1
 6 -5.20094294479448 -2.01722152815281  0.46767539263926
 6 -4.61531768996900  2.71405163416342  1.30738741484148
 6 -9.29543878747875  3.55338153445345 -0.26087070327033
 6 -9.84295614671467 -1.26527812241224 -0.93677982338234
 7 -5.05975272327233  0.41533799489949  0.82914037203720
 6 -4.52487058465847 -0.89120810441044  0.90657674327433
 6 -2.99783153685369 -0.65063554705471  1.23808705810581
 6 -2.96493064546455  0.85536065366537  1.62825733113311
 6 -4.31408636673667  1.32684973037304  1.22560447184718
 6 -2.78172467036704  0.91140944194419  3.15779563756376
 6 -2.05169051185118 -1.11976699079908 -0.02204559685969
 6 -0.66253464156416 -1.03140199499950  0.49998776387639
 6  0.32278678457846 -1.40872779007901 -0.57212306950695
 8  0.07348708460846 -1.63944363426343 -1.75048750335033
 8  1.55861093629363 -1.25946236473647 -0.06501149314931
 7 -7.02393557455746  2.72496723862386  0.38785937993799
 6 -5.85246942794279  3.32912964546455  0.88705283068307
 6 -6.08056932943294  4.75327341114111  1.05473702540254
 6 -7.38830189468947  5.00087141014101  0.68914414451445
 6 -7.93218866926693  3.78541714061406  0.25097643394339
 6 -5.10020917731773  5.77881166356636  1.53675967986799
 6 -8.03794038223822  6.32609232693269  0.61206626092609
 6 -9.00816833963396  6.87241653225323 -0.21269988628863
 7 -9.13646704600460  1.09407788238824 -0.40679765516552
 6 -9.88457023442344  2.29335263696370 -0.54003281398140
 6 -11.24472071007101  2.05392903240324 -0.98299237053705
 6 -11.37491293179318  0.74015805720572 -1.19328939053905
 6 -10.05682239063906  0.10290324092409 -0.86127960836084
 6 -12.29715391259126  3.12159472857286 -1.21669609870987
 6 -12.54547464486449 -0.07212631103110 -1.68687092209221
 6 -12.58058252785279 -0.21901654805481 -3.21889907430743
 7 -7.45171829752975 -1.20511482598260 -0.25255160026003
 6 -8.56974295979598 -1.87629424362436 -0.73981090949095
 6 -8.31696530373037 -3.38915351685169 -0.70401413991399
 6 -6.96968899709971 -3.39467535183518 -0.36506861216122
 6 -6.46984552415242 -2.01761356045605  0.00687284138414
 6 -9.16666065116511 -4.58267166716672 -1.05875838263826
 6 -5.88416453795380 -4.28735396229623 -0.00358768916892
 8 -5.75338719481948 -5.45412192089209 -0.09762284188419
 6 -4.62206781138114 -3.38155526822682  0.56115136473647
 6 -4.02881529632963 -3.82535623082308  1.77449933523352
 8 -4.23078569026903 -3.42233318921892  2.86351681568157
 8 -3.16736925262526 -4.85045532683268  1.54930067306731
 6 -2.72702623292329 -5.50894179947995  2.71650812111211
 6  2.73842388578858 -1.37380607120712 -1.10977518281828
 6  4.00910502030203 -0.95085970937094 -0.50585719891989
 6  4.99656195639564 -0.17524847724772 -1.07700310491049
 6  4.87700821102110  0.36401024272427 -2.47249978897890
 6  6.25507922002200  0.14218684698470 -0.32535399849985
 6  7.47840206740674 -0.50542987608761 -0.88794614801480
 6  8.78663214021402 -0.26896210311031 -0.09457433733373
 6  10.09637149184918 -0.91825630823082 -0.63385436533653
 6  9.94149794319432 -2.33713887968797 -0.74381849654965
 6  11.29133980858086 -0.50019969056906  0.16782431443144
 6  12.74611319591959 -0.74207268566857 -0.40835871307131
 6  13.90869727692769 -0.13389609270927  0.26659302190219
 6  15.32789461056106 -0.10433346914691 -0.42660649644964
 6  15.77719504710471 -1.59627378927893 -0.54093382888289
 6  16.21658425562556  0.70926183738374  0.44773803820382
 6  17.54787162586258  0.88941467536754 -0.20008451625163
 6  18.48362821382138  1.91675029402940  0.53384207710771
 6  19.90282017791779  2.01324694999500  0.03368612901290
 6  20.04947587708771  2.63868329952995 -1.35790219921992
 6  20.68248871447145  3.03589732583258  0.93817021772177
 1 -3.90724889248925  3.34143052735274  1.82698493679368
 1 -9.85689327432743  4.46682611911191 -0.69188786268627
 1 -10.57804614451445 -1.86234224422442 -1.42924281818182
 1 -2.89337538903890 -1.13592395649565  2.25069686438644
 1 -2.22812337993799  1.60508045914591  1.02894239263926
 1 -1.79885740164016  0.55494291599160  3.37442416771677
 1 -2.44499780008001  2.15477012061206  3.49269837103710
 1 -3.70556113551355  0.38482918521852  3.74245309100910
 1 -2.42668212211221 -2.23862774047405 -0.50695755205521
 1 -2.23576951555155 -0.35576810251025 -0.77495615631563
 1 -0.12864718811881 -0.17258313241324  0.98265429592959
 1 -0.38197121002100 -1.84741392139214  1.21048816781678
 1 -3.96249090649065  5.47950608820882  1.08684182218222
 1 -5.33104432323232  6.80282540124013  1.45748134513451
 1 -4.99322109910991  5.41960180958096  2.62922398299830
 1 -7.74153425232523  7.09522655635563  1.31192249854986
 1 -9.37996338913891  6.34682266776678 -1.14094349034903
 1 -9.29462374157416  7.92622790809081 -0.26945664976498
 1 -12.54144869226923  3.75307580608061 -0.23686608520852
 1 -11.77902682498250  3.83723868856886 -1.91875909340934
 1 -13.15378277827783  2.77027264546455 -1.69163221012101
 1 -12.70534536043604 -1.07371749804981 -1.22801737553755
 1 -13.31118186048605  0.53376303770377 -1.35243892119212
 1 -12.45884039903990  0.62350936603660 -3.78304714811481
 1 -11.64573078077808 -0.96855625202520 -3.59381017771777
 1 -13.53450152335234 -0.62171953005300 -3.58861271997200
 1 -9.90281782858286 -4.73354544644464 -0.47057286118612
 1 -9.61157306750675 -4.52488950245025 -2.13654417501750
 1 -8.35876758225823 -5.35962674257426 -1.25978063156316
 1 -3.85899162646265 -3.44894224552455 -0.27433049284928
 1 -2.15190205820582 -6.37930453415342  2.08458416241624
 1 -2.14435100680068 -4.94453419241924  3.63177762806281
 1 -3.54758581398140 -5.89334633463346  3.16337785798580
 1  2.76699849164917 -2.32338908000800 -1.42580971427143
 1  2.32179402230223 -0.79768120612061 -1.84200181948195
 1  4.14155559145915 -1.22896096659666  0.49678872327233
 1  5.18367363186319  1.37051474927493 -2.39988257565757
 1  5.56368333213321 -0.00644468926893 -3.33480654775478
 1  3.90406689188919  0.31728453435344 -3.00758611551155
 1  6.32801289838984  1.29040218411841 -0.58540374077408
 1  6.04004182998300 -0.10912649794980  0.62279197329733
 1  7.24904555765577 -1.57516156155616 -0.83773861996200
 1  7.90852060316032 -0.22829732513251 -1.84944380208021
 1  9.14055849744974  0.83441129262926 -0.13630237173717
 1  8.80848357825783 -0.68915600260026  0.87061991489149
 1  10.16189305460546 -0.57399720142014 -1.63633435633563
 1  9.43526071367137 -2.72679134193419 -1.55030425592559
 1  11.02937979897990 -3.07793947034703 -0.76949269486949
 1  9.70728917071707 -2.86813869136914  0.28381485998600
 1  11.19457364746475  0.55615323912391  0.43403686628663
 1  11.37116468586859 -1.04202268776878  1.03186370807081
 1  13.09628613661366 -1.92600647964797 -0.59261270407041
 1  12.81933224982498 -0.32920019291929 -1.41925524402440
 1  13.57588862436244  0.95986638243824  0.31663683778378
 1  14.25160999649965 -0.44620757475748  1.24889446564656
 1  15.04846634403440  0.29019221902190 -1.37597424722472
 1  15.09321471647165 -2.03858214201420 -1.11488550905091
 1  16.82412914921492 -1.73918975847585 -0.99893128572857
 1  15.89230194779478 -1.93529314791479  0.48860156145615
 1  15.87496468806881  1.60926401510151  0.35276912051205
 1  16.33446976967697  0.28889269836984  1.50119211601160
 1  17.96481255855586 -0.04084256285629 -0.35736042074207
 1  17.56139886528653  1.12486544964496 -1.21972927752775
 1  17.94081578747875  2.87941666936694  0.40357685268527
 1  18.44863787798780  1.78658749554956  1.57623887948795
 1  20.49165739553955  1.08040877457746  0.03184612171217
 1  19.46613931113112  3.68565069716972 -1.44269924412441
 1  21.18688720592059  2.53139874367437 -1.72673799719972
 1  19.46891512731273  2.06019605620562 -2.18383356455646
 1  20.54841985508551  2.86659620992099  2.16109003680368
 1  21.86986082778278  2.96341445804580  0.90417231703170
 1  20.33529119181918  3.94400407090709  0.88442104650465
 1 -7.29388317081708  1.81085535753575  0.42202545934593
 1 -7.37352871947195 -0.14550942654265 -0.17350067026703

