%nproc=4
%Mem=2GB
# td=(NStates=1) B3LYP/SVP 

TD

0 1
 6 -5.03137598809881 -1.96006581258126  0.38674729982998
 6 -4.69802596079608  2.76167639663966  1.29490616671667
 6 -9.35363460706071  3.29028522482248 -0.32488710491049
 6 -9.80125197629763 -1.59613120772077 -0.82580872627263
 7 -5.12624937293729  0.51538799989999  0.70376783478348
 6 -4.51017911551155 -0.70054903850385  0.80088617421742
 6 -3.02948470217022 -0.54374485798580  1.20889413881388
 6 -3.05441959435944  0.84676979457946  1.75234974037404
 6 -4.35569052715272  1.44335138053805  1.23508541994199
 6 -3.05107160506051  0.97410571157116  3.36592645064506
 6 -2.09154449724972 -0.75277029112911 -0.02915630793079
 6 -0.54914330243024 -0.68747760256026  0.42706047114711
 6  0.39326383228323 -0.85497241454145 -0.62818867606761
 8 -0.06309657375738 -1.14811450135014 -1.72456491109111
 8  1.69551462666267 -0.70461688018802 -0.33892888488849
 7 -7.00013319431943  2.75363010491049  0.40125071907191
 6 -5.92875705670567  3.32976970947095  0.97231135653565
 6 -6.29501077357736  4.82816089988999  0.96784833653365
 6 -7.60208327282728  4.98999032203220  0.45975120522052
 6 -8.01010646104610  3.65535413431343  0.09360069636964
 6 -5.25524468086809  5.80919470187019  1.39342534643464
 6 -8.29285587378738  6.21059077677768  0.35142019631963
 6 -9.23073059585959  6.66439573017302 -0.48593721002100
 7 -9.20222362166217  0.84615308990899 -0.47492446784678
 6 -9.87750952835284  2.03309661136114 -0.59877868856886
 6 -11.37767400540054  1.80358399789979 -0.87830190149015
 6 -11.41891733223322  0.44959900130013 -1.04114417601760
 6 -10.08604531293129 -0.14291134053405 -0.72263574397440
 6 -12.38189238643864  2.87737030613061 -0.91566599569957
 6 -12.74354445184519 -0.39090818921892 -1.32462469746975
 6 -12.92013648324833 -0.56248089448945 -2.87442462686269
 7 -7.39613273897390 -1.25694000850085 -0.21540788588859
 6 -8.54039002450245 -2.03849046324632 -0.57813474187419
 6 -8.10098370557056 -3.40411501300130 -0.65189892839284
 6 -6.79061108930893 -3.33707959225923 -0.29746185148515
 6 -6.31107964756476 -2.04057585668567 -0.05690353625363
 6 -9.02153613871387 -4.57816121612161 -0.94932743954395
 6 -5.65421154265427 -4.20942616951695 -0.04849217961796
 8 -5.63101495759576 -5.50301681038104  0.07095401580158
 6 -4.48635424002400 -3.30189730243024  0.38669391899190
 6 -3.90671308610861 -3.84600829602960  1.71890377567757
 8 -4.20476308800880 -3.40636159205921  2.84344480848085
 8 -3.02323483918392 -4.90880116141614  1.46020176317632
 6 -2.41599512981298 -5.41267217251725  2.69650612091209
 6  2.70326036943694 -1.01287997859786 -1.36083028832883
 6  4.03967807760776 -0.71954657805781 -0.63133974717472
 6  4.92265456565657  0.14824387198720 -1.07534293889389
 6  4.78844935513551  0.98123196489649 -2.30068260726073
 6  6.23667737983798  0.35273790209021 -0.34550601370137
 6  7.53694792199220 -0.24773410651065 -0.98223557695770
 6  8.77147062406241 -0.17966317321732  0.05253037313731
 6  10.02382423712371 -0.64375885848585 -0.78033901380138
 6  9.92269606300630 -2.23206837263726 -1.03318743344334
 6  11.25852652725272 -0.22633230383038  0.02636016801680
 6  12.62349093369337 -0.39755823422342 -0.72285016221622
 6  13.83799020622062 -0.08331103420342  0.17582394499450
 6  15.26781860296030 -0.21648468426843 -0.36781061686169
 6  15.70408773637364 -1.63168733063306 -0.56789652515252
 6  16.26220881808181  0.60262117331733  0.39660292469247
 6  17.62558939763976  0.66171190509051 -0.26650115791579
 6  18.57659751075107  1.49991861086109  0.68305699859986
 6  20.10380027592759  1.28822444774477  0.28570133053305
 6  20.44010493999400  1.99564899609961 -1.02333874287429
 6  21.02157262286229  2.02818655475548  1.37350375107511
 1 -4.01854002160216  3.57572395669567  1.70490272857286
 1 -10.07421500650065  4.08275771227123 -0.48836751065107
 1 -10.47197553745375 -2.36489249924993 -1.13076297019702
 1 -2.50604665616562 -1.19609997409741  2.06917871257126
 1 -2.15496606420642  1.63167311841184  1.33300279867987
 1 -1.99205672157216  0.65868329002900  3.75193191849185
 1 -3.45848914921492  2.00384502810281  3.84674377557756
 1 -3.91316189558956  0.42838354065407  3.71358020372037
 1 -2.03654310821082 -1.61762564026403 -0.69328618491849
 1 -2.47697363596360  0.16644411871187 -0.60959962066207
 1 -0.33972829622962  0.24186831273127  0.85334136463646
 1 -0.27175018791879 -1.38155733573357  1.42573969296930
 1 -4.35255991339134  5.87387552515251  0.76038917691769
 1 -5.72437365616562  6.86971208990899  1.27579317631763
 1 -4.65834761176118  5.52574242364236  2.33219428002800
 1 -8.07306740564056  7.10015704940494  0.91215252155216
 1 -9.77008240104010  5.81747973347335 -1.11162055805581
 1 -9.70505478467847  7.49244452975298 -0.26794649874987
 1 -12.72600714811481  3.25369586808681  0.02869047044704
 1 -11.75674459675968  3.64355932063206 -1.61313853135314
 1 -13.23875127512751  2.60328594679468 -1.73209625652565
 1 -12.84508933483348 -1.52271239753975 -1.06813138693869
 1 -13.57251799409941  0.17480714211421 -0.72418609590959
 1 -13.10049456445645  0.19958697379738 -3.54083292669267
 1 -12.15818202590259 -1.25116451285129 -3.26882767946795
 1 -13.92657073027303 -1.01647900600060 -3.01835569426943
 1 -9.85761330813081 -4.81917400930093 -0.40813661756176
 1 -9.47555946614662 -4.56987400090009 -1.90037055765577
 1 -8.41086279177918 -5.49743052295230 -0.99830448394839
 1 -3.70222594989499 -3.49956730803080 -0.39147220702070
 1 -1.86784365236524 -6.30695729942994  2.46005170917092
 1 -1.67333390509051 -4.55206494549455  3.11731618191819
 1 -3.09174022942294 -5.63369036903690  3.43965548574857
 1  2.48381017281728 -1.96121286238624 -1.92486962026203
 1  2.56191803470347 -0.14165560356036 -2.10413803310331
 1  4.27255869176918 -1.22763083358336  0.39752879727973
 1  4.93823908840884  2.02943064086409 -1.95826841424142
 1  5.67443440724072  0.90669662486249 -3.18902196929693
 1  3.95166165136514  0.78569137503750 -2.82786814371437
 1  6.33211330843084  1.36101924582458 -0.11340654105411
 1  6.01704953075307 -0.24951053635363  0.62996269036904
 1  7.40129078217822 -1.43817786318632 -1.10510535663566
 1  7.56551630273027  0.23158866346635 -1.90858971667167
 1  8.98407284888489  0.96341419291929  0.05201646014601
 1  8.56780951085109 -0.59999708670867  0.89009186208621
 1  10.19220608590859 -0.06464626632663 -1.85811653455346
 1  9.09973716131613 -2.26037470027003 -1.74984420992099
 1  10.84568142914291 -2.53501517791779 -1.30964671027103
 1  9.41612005380538 -2.77040891839184 -0.13805732723272
 1  11.33121731183118  0.81684930873087  0.39883334593459
 1  11.31558912831283 -0.58773725922592  1.09928044974497
 1  12.81809831783178 -1.53094697369737 -1.25295873867387
 1  12.44729504610461  0.24617734483448 -1.64123744224422
 1  13.77858889438944  0.99120951675167  0.52805797989799
 1  13.76229106460646 -0.64002695669567  1.18739831603160
 1  15.09861135853585  0.24203740354035 -1.28544519431943
 1  14.90171556655666 -2.16101438523852 -1.29871389188919
 1  16.73085982228223 -1.78594443394339 -1.29489088168817
 1  15.73895661326133 -2.19974959355936  0.30710341164116
 1  15.69738693029303  1.62781587028703  0.80604444804480
 1  16.47544386708671  0.08869267836784  1.42677467426743
 1  18.24948102540254 -0.31028950755075 -0.13339802450245
 1  17.44096682208221  0.87077004010401 -1.28857616221622
 1  18.24758646454645  2.49183791149115  0.70768726372637
 1  18.52416543074307  1.09069790659066  1.68958021362136
 1  20.43403163296330  0.25189592329233  0.16826976407641
 1  20.25711840904091  3.16143827592759 -1.05543051725173
 1  21.58638715591559  2.11327693149315 -1.12686801020102
 1  20.05954419021902  1.39786982358236 -1.90503568476848
 1  20.88573358645865  1.64379392969297  2.34347827562756
 1  22.19125296699670  1.85664378097810  1.19853175297530
 1  20.56997466016602  3.16382605310531  1.61872447684769
 1 -7.10369415191519  1.74371864386439  0.34956821362136
 1 -7.28785015161516 -0.32439731533153 -0.07309062926293

