%nproc=4
%Mem=2GB
# td=(NStates=1) B3LYP/SVP 

TD

0 1
 6 -5.07795064556456 -1.95837564356436  0.39066769186919
 6 -4.61859801800180  2.63294352335234  1.46343301940194
 6 -9.20330957455745  3.31626782308231 -0.16461107730773
 6 -9.74789664076408 -1.36859845444544 -0.82366851225123
 7 -5.16563331133113  0.40287674877488  0.92006946494649
 6 -4.45056315391539 -0.80825980958096  0.79900598619862
 6 -3.05767752145215 -0.64544502800280  1.38747199659966
 6 -3.05998015041504  0.78150326792679  2.01549605500550
 6 -4.38515347344734  1.28221526692669  1.43043495489549
 6 -3.15022152005201  0.80282858385839  3.53771362936294
 6 -2.06058140094009 -0.83501851595160  0.19010561826183
 6 -0.54931331943194 -0.75329418421842  0.51166893199320
 6  0.31344585048505 -0.95957287458746 -0.69427528472847
 8  0.00072980888089 -1.38154784468447 -1.74133658825883
 8  1.62346742194219 -0.70302672117212 -0.37112210421042
 7 -7.03188636963696  2.70693543544354  0.66448704270427
 6 -5.84457863886389  3.30805753825383  1.06157028242824
 6 -6.13395466796680  4.78931701550155  1.02227377907791
 6 -7.43303636813681  4.97947927092709  0.46148137823782
 6 -7.95342079247925  3.65400399929993  0.24267560386039
 6 -5.14202335873587  5.87362114451445  1.50648665256526
 6 -7.99955654385438  6.27736745444544  0.14818987328733
 6 -8.96643416621662  6.65211450205021 -0.70911952825283
 7 -9.13915731503150  0.83762223682368 -0.50465744114411
 6 -9.83553533093309  2.08035133683368 -0.50251906260626
 6 -11.18917515551555  1.90772441194119 -0.96750082138214
 6 -11.36213165366537  0.49949399079908 -1.23765382698270
 6 -10.06004271267127  0.02191514211421 -0.83232671307131
 6 -12.12656685388539  3.07482005110511 -1.22875730483048
 6 -12.54249434683468 -0.18571767016702 -1.77215945094509
 6 -12.48840330993099 -0.34360900730073 -3.35049223362336
 7 -7.52326545224522 -1.33505782028203 -0.21763810891089
 6 -8.56271225672567 -2.07132374657466 -0.62480940934093
 6 -8.18320192739274 -3.42499710121012 -0.65868960746075
 6 -6.91114314251425 -3.42209809410941 -0.24966707200720
 6 -6.44047258685869 -2.09876167526753  0.09439159325933
 6 -9.07696168126813 -4.60595399539954 -0.98177068386839
 6 -5.80948707020702 -4.32505773267327  0.03277594719472
 8 -5.68986084218422 -5.58390489918992  0.00609753015302
 6 -4.54454005860586 -3.38090520322032  0.49723497309731
 6 -3.84702711751175 -3.80307400260026  1.81305319061906
 8 -3.97513012471247 -3.27115807170717  2.89492995699570
 8 -3.15550806650665 -4.97234751605161  1.65147089008901
 6 -2.52347587788779 -5.48246915221522  2.80889736003600
 6  2.65121516491649 -0.82417110771077 -1.32035624092409
 6  4.00973508330833 -0.66390101350135 -0.65162177537754
 6  4.91700400060006  0.21388043564356 -1.08494389898990
 6  4.94639514971497  1.03828767046705 -2.31952449144914
 6  6.19186289838984  0.27926055435544 -0.28289975307531
 6  7.45072930013001 -0.35103443654365 -1.02912026542654
 6  8.68932240924092 -0.33254846174617 -0.20708558845885
 6  9.94440629532953 -0.80200468306831 -0.92865384528453
 6  10.02802659605961 -2.29172433823382 -1.10284439913991
 6  11.22276295089509 -0.45822549314932 -0.02119458745875
 6  12.66504508910891 -0.66366484488449 -0.62966084328433
 6  13.66084249144915 -0.01053375647565  0.17166352895290
 6  15.13523534463446 -0.17814084988499 -0.46760059585959
 6  15.43436076367637 -1.60523468536854 -0.62393212871287
 6  16.16423902110211  0.52787369856986  0.54608787318732
 6  17.55456229492949  0.72463819771977 -0.05358986678668
 6  18.49264911591159  1.57928654765477  0.73408210111011
 6  19.90778067396739  1.68042366766677  0.17257001740174
 6  20.07322825232523  2.40546997819782 -1.26306271527153
 6  20.95833629922992  2.32337607370737  1.12989939063906
 1 -3.98216638423842  3.46024240854085  2.07179941824182
 1 -9.99497708270827  4.14020345684568  0.00009133523352
 1 -10.65611395129513 -1.94332034203420 -1.27717761166117
 1 -2.82407845934593 -1.36145650975098  2.23406520122012
 1 -2.35403597119712  1.45915586668667  1.71663116151615
 1 -2.17527504340434  0.26061348304831  3.88557528282828
 1 -2.95642894319432  1.91241588518852  3.75242434363436
 1 -3.97517809720972  0.07828853115312  3.70808965466547
 1 -2.22146160006001 -1.63387726542654 -0.39903675997600
 1 -2.32164810341034  0.00000747504751 -0.57699636033603
 1 -0.27783210661066  0.12790691659166  0.86808283878388
 1 -0.30282329522952 -1.46155533553355  1.26209332833283
 1 -4.29216387378738  5.82588072567257  0.75299843784378
 1 -5.71275249404940  6.84707982668267  1.47979357635764
 1 -4.73659543654365  5.66532638203820  2.50765182578258
 1 -7.50192029092909  7.11216825052505  0.86981828812881
 1 -9.39468486128613  5.81383936943694 -1.35732512851285
 1 -9.41687596679668  7.78858414371437 -0.87967767186719
 1 -12.47307185458546  3.50794129262926 -0.27417981658166
 1 -11.58041696399640  3.79831479617962 -2.01583880138014
 1 -13.01291869186919  2.61798741694169 -1.95844889178918
 1 -12.77382220812081 -1.27440756705671 -1.35728030183018
 1 -13.56710745304530  0.31144080548055 -1.48154183148315
 1 -12.32381689668967  0.66470348544855 -4.06682552595259
 1 -11.57305351305131 -1.07691708810881 -3.40637143384338
 1 -13.34886295949595 -1.04773213131313 -3.86512037073707
 1 -10.04562210901090 -4.58529062096210 -0.35013081698170
 1 -9.50373228342834 -4.42076909040904 -2.01785230583058
 1 -8.53365507100710 -5.58669944984499 -0.81761641514151
 1 -3.73406913421342 -3.51801915321532 -0.21878493829383
 1 -1.88642551055106 -6.38622522622262  2.50324602860286
 1 -1.98256482818282 -4.69467920692069  3.40560501080108
 1 -3.36849790519052 -5.88616561656166  3.56299781998200
 1  2.63017480928093 -1.82157889898990 -1.87886501980198
 1  2.33352519541954 -0.10384182218222 -2.22353997329733
 1  4.22693412931293 -1.07194526502650  0.39075812021202
 1  5.33579884438444  2.05120281808181 -2.17883047044704
 1  5.56772373617362  0.62035799099910 -3.06809987708771
 1  3.98857534273427  1.05294810071007 -2.91626698359836
 1  6.41294139123912  1.42065520942094 -0.15306050645065
 1  6.09299712551255 -0.38806439173917  0.66272596669667
 1  7.29474012711271 -1.38777282268227 -1.08406325242524
 1  7.72567231833183  0.02578808340834 -2.10332919061906
 1  8.62176661826183  0.66482433393339  0.56631789028903
 1  8.49701243114312 -1.25933302030203  0.63549640254025
 1  10.24190105540554 -0.05334513621362 -1.99563028592859
 1  8.97005419301930 -2.54111277407741 -1.53161238673867
 1  10.96713357435744 -2.68629030543054 -1.65913165876588
 1  9.93608205000500 -2.93789566706671 -0.28067158865887
 1  11.04298848894889  0.55132275607561  0.39317277987799
 1  11.09551712111211 -1.07988647414741  0.93736425812581
 1  12.50435694369437 -1.75113899289929 -0.61019446224623
 1  12.57341765836584 -0.24000127302730 -1.73298661716172
 1  13.24543557905790  1.20706110191019  0.46179135323532
 1  13.83016785228523 -0.35886884088409  1.17767734393439
 1  15.09255075247525  0.35204840464046 -1.48749539933993
 1  14.77814320932093 -2.26374465826583 -1.27514153465347
 1  16.54622135843585 -1.60480632013201 -1.04003539613961
 1  15.71467418501850 -2.23460307890789  0.34607730903090
 1  15.73444063566357  1.48864195289529  0.76770061366137
 1  16.39277560026003  0.18264207330733  1.63758575537554
 1  18.13115919321932 -0.32195067366737 -0.21792647734773
 1  17.33773649904991  1.03995695879588 -1.14161146574657
 1  18.10838254415442  2.57117584528453  0.86790328532853
 1  18.64681769596960  1.13060189698970  1.76503775937594
 1  20.24938316811681  0.54091482518252  0.17073001010101
 1  19.50935363256326  3.41682381448145 -1.27471244544454
 1  21.10409892709271  2.56337194099410 -1.58418374177418
 1  19.58712694849485  1.77206724332433 -2.27549273047305
 1  20.91052606570657  1.72778232853285  2.12028595639564
 1  22.07641148284828  2.44181229782978  0.82954485428543
 1  20.60971863456346  3.27131680218022  1.41664426882688
 1 -6.96451023352335  1.80333460546055  0.38388164496450
 1 -7.61505287188719 -0.27583245884588 -0.21111443164316

