%nproc=4
%Mem=2GB
# td=(NStates=1) B3LYP/SVP 

TD

0 1
 6 -5.08769161966197 -1.96031583758376  0.56102472757276
 6 -4.61255741394139  2.83559378837884  1.48401507760776
 6 -9.22286152975298  3.34973116941694 -0.18998361456146
 6 -9.81239309040904 -1.39712130673067 -1.09021516691669
 7 -5.15837258525853  0.45238169926993  0.93093055105511
 6 -4.53780187778778 -0.78381736533653  0.85433151875188
 6 -3.11106285998600 -0.59561004450445  1.30104335373537
 6 -2.95862001440144  0.79125424302430  1.95203970937094
 6 -4.36678163626363  1.39274632003200  1.39874178557856
 6 -3.09483598149815  0.66104440544054  3.49127898589859
 6 -2.07870321312131 -0.72795780988099  0.05914252195219
 6 -0.60662905100510 -0.84386324112411  0.63642140724072
 6  0.32448695459546 -1.19698661596160 -0.50900675787579
 8  0.06345608150815 -1.65768545844584 -1.64983743834383
 8  1.58880395559556 -0.95286170467047 -0.17784277627763
 7 -6.82881606260626  2.80012475437544  0.54690528452845
 6 -5.85437961896190  3.40327706020602  1.03038716411641
 6 -6.04852612511251  4.77596568036804  0.99756130783078
 6 -7.40512357685769  5.01276259925993  0.56948217831783
 6 -7.87661311171117  3.68073667256726  0.21788312461246
 6 -5.14891404780478  5.88179196159616  1.47885388928893
 6 -8.04484107230723  6.23929364706471  0.39375442974297
 6 -8.83144066686669  6.56026531713171 -0.68400701700170
 7 -9.18930232953295  0.95705418001800 -0.53214018941894
 6 -9.84945672307231  2.12043534523452 -0.47396620732073
 6 -11.18324456245625  1.98227186668667 -1.02395646694669
 6 -11.38047348784879  0.64810885228523 -1.19611967356736
 6 -10.10116682508251 -0.05138218761876 -0.87221070147015
 6 -12.24869906710671  3.05183775287529 -1.03174760386039
 6 -12.56246634403440 -0.04385348374837 -1.80877311231123
 6 -12.39715418501850 -0.24822946934693 -3.44280146454645
 7 -7.49663278897890 -1.26290060456046 -0.19743608870887
 6 -8.55744172967297 -2.01644825902590 -0.67189411781178
 6 -8.20981458865887 -3.35672027352735 -0.74280801930193
 6 -6.82436446464646 -3.39097498179818 -0.20294239953995
 6 -6.50129866946695 -2.00475227432743  0.10063221732173
 6 -8.96216020112011 -4.49292269226923 -1.24811731853185
 6 -5.85700182168217 -4.27319254615462  0.05256792639264
 8 -5.68724058015802 -5.40643715241524 -0.11892497209721
 6 -4.64568017261726 -3.30685779847985  0.60871612121212
 6 -4.04412682748275 -3.88309200440044  1.84038592389239
 8 -4.23606621832183 -3.50081103700370  2.90133059705971
 8 -3.38103061876188 -5.02714299559956  1.67287303030303
 6 -2.92260579087909 -5.65304620992099  2.88924539483948
 6  2.64016405980598 -1.30370906150615 -1.16764096939694
 6  3.93554766456646 -0.85950057345735 -0.50646725992599
 6  4.88656095629563 -0.13655460786079 -1.07855325992599
 6  4.83449395959596  0.48188202990299 -2.43146568556856
 6  6.25722943504350  0.13026565486549 -0.37438890199020
 6  7.48887311451145 -0.46544587768777 -1.10862821622162
 6  8.73060653765377 -0.31243645054505 -0.16797167706771
 6  10.14017587228723 -0.61645612821282 -0.94839581948195
 6  10.03880767416742 -2.20424559035904 -1.04034814951495
 6  11.22115278987899 -0.26304597519752 -0.08038050605061
 6  12.62651123572357 -0.49750822922292 -0.64733261046105
 6  13.72908931613161  0.09776707360736  0.18254461706171
 6  15.15302712381238 -0.16186922272227 -0.33932776857686
 6  15.57641496909691 -1.53360752265226 -0.47342707820782
 6  16.25086768396840  0.67561847304730  0.51071433583358
 6  17.66370320902090  0.81953768766877 -0.16605111291129
 6  18.70080993199320  1.60812943194319  0.62552124502450
 6  20.18625852175218  1.84956058135814  0.14464722512251
 6  20.17639856935694  2.42005143634363 -1.39812622162216
 6  20.83736420202020  2.65444918101810  1.13496989768977
 1 -3.80185835343534  3.51830821512151  1.84729696799680
 1 -9.95574315931593  4.23699313581358 -0.09443811771177
 1 -10.41123946384639 -2.05169117911791 -1.55062495639564
 1 -2.78604465596560 -1.50035039913991  2.11610340504050
 1 -2.15402597019702  1.34394434553455  1.66638613701370
 1 -2.22199971587159  0.37275469716972  3.78643536883688
 1 -3.07154045434544  1.67849249284928  3.97580668186819
 1 -3.75831641104110 -0.22651194889489  3.89994884058406
 1 -2.25052450635063 -1.78520239793979 -0.25791264756476
 1 -2.22623856245625 -0.10813333903390 -0.76873553425343
 1 -0.25514983838384  0.05130925682568  1.23595962646265
 1 -0.35569858275828 -1.60628980898090  1.49948706770677
 1 -4.13443810121012  5.83165130273027  0.81629476747675
 1 -5.78251947074707  6.92437755645564  1.33365896289629
 1 -4.75879765676568  5.66141599099910  2.63090415101510
 1 -7.68720881978198  6.89193622732273  1.15365667196720
 1 -8.96104149694969  5.73601158665867 -1.55393478947895
 1 -9.23540781998200  7.56859214451445 -0.81659136323632
 1 -12.19652419981998  3.46531703020302  0.00850845224522
 1 -12.05117403970397  3.97323228792879 -1.61599881738174
 1 -13.20608800880088  2.59989560776078 -1.34635768266827
 1 -12.59555438133813 -1.04878500480048 -1.46729130293029
 1 -13.38206894919492  0.47585724712471 -1.38925260256026
 1 -12.38168268326833  0.75975299039904 -3.73676251965197
 1 -11.58775498319832 -1.02307170357036 -3.68329912661266
 1 -13.43970204340434 -0.71141849995000 -3.80970482918292
 1 -9.83769131593159 -4.57946003790379 -0.60878668256826
 1 -9.35946785698570 -4.37419443294329 -2.41790231083108
 1 -8.39410111561156 -5.29209998989899 -1.22704735823582
 1 -3.73269899719972 -3.40017736903690 -0.24576763656366
 1 -2.32258912691269 -6.47840444414441  2.48320402440244
 1 -2.41545811751175 -4.79955969496950  3.18612306260626
 1 -3.80025108050805 -5.84630163016302  3.67904942514251
 1  2.51654344614461 -2.40107684878488 -1.39640677397740
 1  2.21561340424042 -0.78170960896090 -2.20181780108011
 1  4.05296673257326 -1.23685175567557  0.31953099749975
 1  5.27382264676468  1.62847054485449 -2.46713930133013
 1  5.38274523832383 -0.15107915271527 -3.23003607070707
 1  3.67753423862386  0.57250005590559 -2.51990734763476
 1  6.61760185728573  1.16396954085409 -0.42861806220622
 1  6.17246507230723 -0.23888947424743  0.61899159325933
 1  7.14442509560956 -1.53203724912491 -1.41633647974797
 1  7.74962471357136  0.00631613621362 -1.95587444514451
 1  8.66995143674367  0.79352720422042 -0.05537427892789
 1  8.71625435533553 -0.86591367836784  0.84692754565457
 1  10.12574944024402 -0.15653545524552 -1.87608833173317
 1  9.19700688828883 -2.45512417521752 -1.41419064456446
 1  10.87651451245124 -2.60895257165717 -1.64164991059106
 1  9.76288473027303 -2.77857973547355 -0.03576709820982
 1  11.26129031913191  0.76244386818682  0.06787024962496
 1  10.92747031643164 -0.62972145764576  0.94167468916892
 1  12.50106661466147 -1.69772365136514 -0.78342178497850
 1  12.72079239583958 -0.21996926982698 -1.65168848734873
 1  13.42034306980698  1.09452984878488  0.50178535263526
 1  13.76861169666967 -0.46659961396140  1.18354793099310
 1  15.02628412581258  0.13107630743074 -1.39726637643764
 1  15.22101749674968 -2.24710299409941 -1.33147716821682
 1  16.57080381668167 -1.37154299379938 -0.72444383698370
 1  15.58121083868387 -2.19148876747675  0.40434313561356
 1  16.03122031363136  1.61484457315732  0.79196303990399
 1  16.33838016071607  0.21754556365637  1.54016601340134
 1  18.17931400870087 -0.18982746134613 -0.68530321502150
 1  17.37603032843284  1.35299826292629 -1.20114741934193
 1  18.44140584648465  2.47767649534954  0.58764525952595
 1  18.82941595579558  1.26207504430443  1.57480873647365
 1  20.53762199199920  0.78461919561956 -0.21154821772177
 1  19.54014671187119  3.39311144324432 -1.32842781698170
 1  21.37292580978098  2.89454505830583 -1.82650797419742
 1  20.16049428522852  1.66002603920392 -2.29285446664666
 1  20.90419543264327  2.29621917221722  2.19831375917592
 1  21.74129797149715  2.97242535913591  0.75290719051905
 1  20.33279094179418  3.67902757325733  1.29712231663166
 1 -6.80846462896290  1.80782505450545  0.49363262006201
 1 -7.75279664626463 -0.19773464906491 -0.38713203340334

