%nproc=4
%Mem=2GB
# td=(NStates=1) B3LYP/SVP 

TD

0 1
 6 -5.22686553705371 -1.82379218521852  0.58666729182918
 6 -4.84051020922092  2.85689591859186  1.44069074517452
 6 -9.50541978557856  3.24972116841684 -0.11183579977998
 6 -9.83104495559556 -1.57871946654665 -1.08830497589759
 7 -5.23305005300530  0.51885834693469  0.85904336233623
 6 -4.55353345094509 -0.61311029462946  0.77837392299230
 6 -3.13724547824782 -0.48517900140014  1.19418266766677
 6 -3.15721987438744  0.95077019461946  1.75624012941294
 6 -4.49757471557156  1.50338738413841  1.39418132953295
 6 -2.98300479837984  1.06791509250925  3.31645150315032
 6 -2.03274861766177 -0.59512452655266  0.18201480918092
 6 -0.57728611671167 -0.58698755355536  0.65536330143014
 6  0.46548105400540 -0.88625554285429 -0.49968582578258
 8  0.19439917581758 -1.28965865576558 -1.56851930653065
 8  1.61222629782978 -0.54841125962596 -0.04711970397040
 7 -7.14637781878188  2.72159690159016  0.57275786978698
 6 -6.08428260926093  3.44841157365737  1.04769889528953
 6 -6.38461973447345  4.82060014381438  0.98309986168617
 6 -7.75207827232723  4.91282260526053  0.63201843194319
 6 -8.23558900930093  3.60236883578358  0.27601893819382
 6 -5.42800195659566  5.85367915031503  1.59599560346035
 6 -8.43052964116412  6.26172589028903  0.42846790109011
 6 -9.48051557435744  6.64710400100010 -0.31268988528853
 7 -9.21007440674067  0.77041551615162 -0.53917089248925
 6 -9.98063984138414  2.00278358005801 -0.55237404810481
 6 -11.31463770177018  1.78431207070707 -0.96639071037104
 6 -11.46119155965597  0.43127716911691 -1.18925898749875
 6 -10.17907461586159 -0.22151920132013 -0.86994047444744
 6 -12.31369556675668  2.80170273937394 -1.17041147024702
 6 -12.57613771117112 -0.31544064246425 -1.75020725572557
 6 -12.43959842944295 -0.79518416481648 -3.33650083448345
 7 -7.60573369906991 -1.30591490599060 -0.22914926002600
 6 -8.57081306680668 -2.13081969616962 -0.66938386678668
 6 -8.11904551175117 -3.44627922942294 -0.71016475497550
 6 -6.77471950015001 -3.36895277957796 -0.27842994829483
 6 -6.49197773737374 -2.03455525462546  0.07126928102810
 6 -8.81333531863186 -4.74679807980798 -1.27357986478648
 6 -5.58801492299230 -4.26049127602760 -0.01080841124112
 8 -5.57064892099210 -5.46302281098110 -0.03485656525653
 6 -4.55703130773077 -3.21521863456346  0.44464971457146
 6 -3.76111852665267 -3.71718541374137  1.65196708200820
 8 -4.01665427712771 -3.32527348324832  2.84947541154115
 8 -3.05486800250025 -4.74684496579658  1.36585232823282
 6 -2.27799132943294 -5.45411631693169  2.35098156845685
 6  2.71399144254425 -0.79769846044604 -1.13144735003500
 6  4.04900901070107 -0.39451407480748 -0.54321093429343
 6  5.00705300550055  0.31736078367837 -1.03594899949995
 6  5.06145665586559  0.88169201090109 -2.48192073107311
 6  6.41203491559156  0.54258688698870 -0.33437490059006
 6  7.61500572777278 -0.16186551965197 -0.93350070347035
 6  8.80551402840284 -0.08186339323932 -0.01096597649765
 6  10.08631048574857 -0.79304378697870 -0.58225920582058
 6  9.94060785418542 -2.40728589438944 -0.64933904860486
 6  11.24114478907891 -0.26313598419842  0.20696822882288
 6  12.69897848244825 -0.58746722512251 -0.51771964916492
 6  13.92339874707471 -0.17373007610761  0.27408377097710
 6  15.13892571367137 -0.34681771757176 -0.31661549734974
 6  15.56379370697070 -1.80815497739774 -0.45274501000100
 6  16.33212580978098  0.44655556675668  0.47754101850185
 6  17.76035287398740  0.51192692659266 -0.30295480328033
 6  18.81963181418142  1.30498911791179  0.51494018691869
 6  20.23251314721472  1.35640126542654 -0.10464770437044
 6  20.22183311281128  1.78609804100410 -1.57990439943994
 6  21.04654512011201  2.24118785488549  0.88668506920692
 1 -4.15453362096210  3.55902228652865  1.76848908720872
 1 -10.30971855685569  3.98880831733173 -0.32940161406141
 1 -10.58667700760076 -2.22698870887089 -1.34413430733073
 1 -2.69903595509551 -1.11403176727673  2.05059685438544
 1 -2.37617818541854  1.69960991209121  1.32071156955696
 1 -2.09343685958596  0.65043246494650  3.62952967826783
 1 -3.07038033833383  2.25556019961996  3.74454355555556
 1 -3.84649522892289  0.51622232453245  3.73251209690969
 1 -2.10054950885088 -1.52133601130113 -0.36435329162916
 1 -2.14937087568757  0.09806728102810 -0.63489214991499
 1 -0.13285760916092  0.51579570547055  1.06415244574457
 1 -0.19597261016102 -1.13742292229223  1.63701082008201
 1 -4.34665932333233  5.84706284388439  1.39747288528853
 1 -5.84569578837884  6.86261137983798  1.30965656265627
 1 -5.47877965496550  5.96885673507351  2.86350741134113
 1 -8.08352845174518  7.09934696839684  1.20719202550255
 1 -9.79610500330033  6.22002998849885 -1.09646904290429
 1 -10.01505578477848  7.54252953825383 -0.40389009310931
 1 -12.54893944134413  3.38302880138014 -0.33619601820182
 1 -11.87936685898590  3.34759972467247 -2.11497871537154
 1 -13.30742814281428  2.32443806200620 -1.38219126602660
 1 -12.73633845974597 -1.45660578687869 -1.26537111091109
 1 -13.53113385568557  0.37818748014801 -1.85816949424943
 1 -12.45063957895790  0.24998201330133 -3.93036187958796
 1 -11.14045025272527 -1.29182857925793 -3.43918471517152
 1 -13.08142621582158 -1.56858421652165 -3.81078493719372
 1 -10.03249079587959 -4.71267335923592 -0.85546135003500
 1 -8.82862477267727 -4.99791680518052 -2.45939646024602
 1 -8.23636534203420 -5.73390417031703 -0.83019767326733
 1 -3.66031175847585 -3.14849220052005 -0.31417447724772
 1 -2.07872474047405 -6.53481008470847  1.97873357735774
 1 -1.45383195489549 -4.97525726472647  2.82461691199120
 1 -3.09319037443744 -5.49742674267427  3.27392891309131
 1  2.61903369516952 -1.78978571967197 -1.30127726102610
 1  2.58200004290429 -0.10588202620262 -1.99122674197420
 1  4.28500993689369 -0.86177424792479  0.36174521892189
 1  5.34540980548055  1.96472417021702 -2.41791437883788
 1  5.62666963076308  0.03529948514851 -3.04156722382238
 1  3.91530801600160  1.14334714061406 -2.67054241114111
 1  6.58570866796680  1.62645578947895 -0.39834503490349
 1  6.32471029682968  0.08776319101910  0.76294598869887
 1  7.30604125722572 -1.34307835323532 -1.00014486058606
 1  7.78794854595460  0.26879238383838 -1.97775663336334
 1  8.97633207480748  0.92028988048805  0.16783804230423
 1  8.34657738763877 -0.54257134413441  0.93846669956996
 1  10.15954281958196 -0.52345214691469 -1.79166988988899
 1  9.20263745134514 -2.55201386418642 -1.62135136063606
 1  10.96711357235724 -3.06855853225323 -0.69426517211721
 1  9.12692113391339 -2.64755663316332  0.35993247174718
 1  11.34265845594559  0.72147977177718  0.24636809940994
 1  11.21861943134313 -0.75374385988599  1.23364388608861
 1  12.79326583458346 -1.73083696269627 -0.61541498429843
 1  12.74069438603860 -0.12477975087509 -1.62261558005801
 1  13.74346538203820  0.95579597539754  0.39257443154315
 1  13.58654348984899 -0.81099405340534  1.34305388158816
 1  15.20991248864886  0.11880508030803 -1.25487213701370
 1  14.78077347234724 -2.34620290409041 -0.98276229672967
 1  16.56405314161416 -1.78356419591959 -0.74020541314131
 1  15.57002972057206 -2.16255587418742  0.67181988328833
 1  16.32168936053605  1.53817690639064  0.74914875847585
 1  16.59178550125013 -0.25886207710771  1.47610960776078
 1  18.04300037733773 -0.48241672027203 -0.55243992869287
 1  17.52478520392039  1.15146810991099 -1.35996330093009
 1  18.50926263216322  2.37484621232123  0.71368786378638
 1  18.85708872307231  1.12090092689269  1.60762201780178
 1  20.80090832063206  0.32643337703770 -0.19158622152215
 1  19.88911160836084  2.72620475257526 -1.92981795599560
 1  21.36976549374937  1.85742134593459 -1.81474679807981
 1  19.79042727852785  1.08553859045905 -2.25285046624662
 1  21.20608562166217  1.77158670897090  1.91908583638364
 1  22.25036887858786  2.40666878347835  0.42785468526853
 1  20.58256591929193  3.26466613711371  0.94585719011901
 1 -7.13075685818582  1.66621089308931  0.60649390619062
 1 -7.73744511111111 -0.19056393199320 -0.02617593779378

