%nproc=4
%Mem=2GB
# td=(NStates=1) B3LYP/SVP 

TD

0 1
 6 -5.17381023152315 -1.99768957495750  0.51170979607961
 6 -4.62787894609461  2.76063629262926  1.36107278337834
 6 -9.13642288588859  3.47223341964196 -0.26850146634663
 6 -9.85081693279328 -1.36998859345935 -0.87135328072807
 7 -5.21463821182118  0.37427388848885  0.91075853385339
 6 -4.54222231983198 -0.79901888548855  0.83026911251125
 6 -3.13542529622962 -0.69727021052105  1.35833908330833
 6 -2.98976312871287  0.86077119471947  1.81861636703670
 6 -4.28809376747675  1.44709175457546  1.27502941434143
 6 -2.92101859975998  0.93026132713271  3.36869672767277
 6 -2.08070341314131 -0.98017303140314  0.28936554425443
 6 -0.61606999509951 -1.01992084688469  0.56644440954095
 6  0.31450595649565 -1.29511642894289 -0.63880973817382
 8 -0.01170143424342 -1.83748343824382 -1.63578603320332
 8  1.62688776397640 -1.07405382388239 -0.25820081208121
 7 -6.84372755375538  2.83237797969797  0.43334392839284
 6 -5.76839102010201  3.43049978247825  0.91333545894589
 6 -6.06547782028203  4.84062214601460  0.92071362306231
 6 -7.28950201470147  5.04371569456946  0.45374060416042
 6 -7.90518596899690  3.70114871377138  0.16625796209621
 6 -5.00662981938194  5.91059484188419  1.36982298619862
 6 -7.95520210841084  6.29258897659766  0.33196825112511
 6 -8.84549207200720  6.79689898049805 -0.59877849414941
 7 -9.22083548284829  0.99719819441944 -0.43164013941394
 6 -9.78688046544655  2.19480278197820 -0.49516832753275
 6 -11.18051428942894  2.11830547004700 -0.89890396169617
 6 -11.41001644214422  0.70268430983098 -1.08839890149015
 6 -10.09572628102810  0.04046699729973 -0.80570405080508
 6 -12.21396559375938  3.20569313841384 -0.95731016011601
 6 -12.60875097249725 -0.00666976537654 -1.62304453945395
 6 -12.63342781238124 -0.25459010541054 -3.16241342574257
 7 -7.56998012371237 -1.29383369786979 -0.17453379847985
 6 -8.63011899739974 -1.91899851405140 -0.60051698009801
 6 -8.29346295349535 -3.35985058655866 -0.56516025452545
 6 -6.98650067826783 -3.36608249254926 -0.24310641594159
 6 -6.48356689628963 -1.99773157225723  0.06241839593959
 6 -9.25955994109411 -4.47349074907491 -1.01185369216922
 6 -5.93062918441844 -4.31464669156916  0.04204687428743
 8 -5.85734759085909 -5.50621713041304 -0.00974405400540
 6 -4.59641524612461 -3.44015112781278  0.49839508910891
 6 -3.94425684048405 -3.92155585078508  1.75150703600360
 8 -4.20513312501250 -3.65065602150215  2.80952141614161
 8 -3.13787630333033 -4.97220750205021  1.43310905390539
 6 -2.68910244054405 -5.67328823412341  2.64431090139014
 6  2.57207725112511 -1.43190188078808 -1.29589379467947
 6  3.94731884168417 -1.13833845724572 -0.67658427162716
 6  4.93353565376538 -0.29941089348935 -1.23042844744474
 6  4.77766827702770  0.49968381008101 -2.48043058205821
 6  6.17755146724673 -0.07116448814881 -0.38572003510351
 6  7.49429365656566 -0.60437977107711 -1.00908826222622
 6  8.84108758575858 -0.30442564946495 -0.27000188008801
 6  10.15756761146115 -0.65568005060506 -1.02361334123412
 6  10.21053484688469 -2.19033419921992 -1.23238735343534
 6  11.18983965856586 -0.09117878847885 -0.05363783178318
 6  12.69162774737474 -0.35637411581158 -0.63507138433843
 6  13.89591599879988  0.08180547744774  0.27207356995700
 6  15.32112393349335 -0.18695173097310 -0.32527636343634
 6  15.69795712331233 -1.66970113201320 -0.50960069556956
 6  16.27618021522152  0.61550246144614  0.58305156955696
 6  17.66754359305931  0.80100583448345 -0.10733524132413
 6  18.47594744574457  1.71550016901690  0.83165185808581
 6  19.97679757565756  2.12784841014101  0.28236099649965
 6  20.10179110861086  2.73622305350535 -1.15822223122312
 6  20.88172863846385  2.76703043914391  1.26870327102710
 1 -3.80121828942894  3.18379476377638  1.90083232153215
 1 -9.76577416241624  4.32374181068107 -0.25456413031303
 1 -10.78356669656966 -1.97724373437344 -1.15404529842984
 1 -3.07545359685969 -1.33051341544154  2.18814060876088
 1 -2.26106667426743  1.29623957505751  1.12682218061806
 1 -1.97440495639564  0.56324374607461  3.90327705300530
 1 -2.94979828012801  2.04998964256426  3.81357045824582
 1 -3.70529110851085  0.24689539183918  3.75116396209621
 1 -2.06113556745675 -2.05646952465247  0.00462360606061
 1 -2.18452439103910 -0.28811133683368 -0.92145080578058
 1 -0.25187951135114  0.06515064096410  0.85759178967897
 1 -0.41303431633163 -1.50931011101110  1.38762588158816
 1 -4.29648430583058  5.83695183278328  0.30955409340934
 1 -5.42401362016202  6.96159127782778  1.31588718571857
 1 -4.57996977397740  5.69478932833283  2.26682774337434
 1 -7.85484558345835  6.98172520622062  1.04711601790179
 1 -9.30742613541354  6.29332731823182 -1.46935633163316
 1 -9.27887216641664  7.80863614891489 -0.35032473657366
 1 -12.25662020942094  3.72424292279228 -0.01931433003300
 1 -11.99567849014902  3.94095906060606 -1.82952016951695
 1 -13.22650005000500  2.84978059625963 -1.08006105300530
 1 -12.97179200510051 -0.92891301760176 -0.98534310811081
 1 -13.52248299059906  0.66368603000300 -1.37321099839984
 1 -12.79482399739974  0.77106412151215 -3.74003284668467
 1 -11.57734394209421 -0.60143954035404 -3.56146694339434
 1 -13.56209428262826 -1.24309166726673 -3.27460131883188
 1 -10.18298584538454 -4.32625471737174 -0.38889469336934
 1 -9.65993790399040 -4.31870888438844 -1.97284780538054
 1 -8.71002270777078 -5.52864364426443 -0.78721337483748
 1 -3.96579230653065 -3.76106345764576 -0.22734579437944
 1 -2.17260412841284 -6.54518112181218  2.25348105210521
 1 -2.15557212891289 -5.16734647364736  3.43437788808881
 1 -3.70181123652365 -6.14480148014801  3.09370089028903
 1  2.72056384818482 -2.51529827092709 -1.48372550585058
 1  2.22584442734273 -1.12214365236524 -2.29721734103410
 1  4.13193462936294 -1.64307237773777  0.20596964136414
 1  5.03604886938694  1.57074477227723 -2.39863245064506
 1  5.46259322312231  0.07392334753475 -3.36414948204820
 1  3.79330581578158  0.49174198009801 -3.00411576847685
 1  6.14202429952995  1.05810895479548 -0.25749094949495
 1  6.06740456625663 -0.39105469076908  0.65594528862886
 1  7.40022067516752 -1.56211025642564 -1.14116896299630
 1  7.58471822292229  0.10562606720672 -1.88367722542254
 1  8.88002244384438  0.76264411591159  0.11535279377938
 1  8.76295902580258 -0.96572365936594  0.60781363426343
 1  10.27856472177218 -0.19669947164716 -2.06547727062706
 1  9.17912510011001 -2.51479014181418 -1.57332655815582
 1  11.01169803080308 -2.45877755415542 -1.95950169576958
 1  10.20256869866987 -2.79271114861486 -0.41792531403140
 1  11.15093928402840  0.89647727152715  0.06545000760076
 1  11.19114668406841 -0.64209269476948  0.98311883358336
 1  12.80007651565156 -1.23441732073207 -0.74505794859486
 1  12.73008332493249  0.23060578767877 -1.66084940344034
 1  13.98770980648065  1.15391578737874  0.48401357545755
 1  13.73105794129413 -0.50922387638764  1.25284486068607
 1  15.39484098149815  0.22762596239624 -1.46749339913991
 1  15.06841223622362 -2.01982026582658 -1.47305132563256
 1  16.66814355065507 -1.93479931943194 -1.21362275487549
 1  15.77713043064307 -2.38496811541154  0.31850455175518
 1  15.95950314191419  1.54272736143614  0.92972681628163
 1  16.49340566326633 -0.09986617751775  1.42541453825383
 1  18.12606868416842 -0.34226270487049 -0.27921260596060
 1  17.53920664606461  1.37422038513851 -0.95770307490749
 1  18.11510321622162  2.68284701240124  1.15112160716072
 1  18.82218523272327  1.32594143094310  1.90432168776878
 1  20.34404263406341  0.98274900860086  0.17134007110711
 1  19.48315101230123  3.61959409150915 -1.02819779397940
 1  21.03196171337133  3.09003460726073 -1.43483880728073
 1  19.35204344014402  2.01830186678668 -1.80132531373137
 1  20.63505851895190  2.42677222752275  2.11873580138014
 1  22.06792063376338  2.94026214281428  1.04699659945995
 1  20.46364402710271  3.86351602210221  1.43812641704170
 1 -6.84669845234523  1.94450872287229  0.47575083188319
 1 -7.62046341294129 -0.29593446904690 -0.08055137533753

