%nproc=4
%Mem=2GB
# td=(NStates=1) B3LYP/SVP 

TD

0 1
 6 -5.16346919741974 -2.07083688968897  0.63094171927193
 6 -4.60393655185519  2.78454868386839  1.40300697679768
 6 -9.14407365096510  3.35856205250525 -0.36515113131313
 6 -9.74976682778278 -1.43332492709271 -1.11414756015602
 7 -5.19601634963496  0.36699316041604  0.86138359635964
 6 -4.56495459305931 -0.88688767236724  0.96491257685769
 6 -3.12463421712171 -0.75449593309331  1.46475972537254
 6 -3.17195134753475  0.78151326892689  2.11410591599160
 6 -4.41683664176418  1.40847789318932  1.38526043744374
 6 -3.18936543444344  0.68750705170517  3.54099395739574
 6 -2.11516685948595 -0.84439945404540  0.25384199189919
 6 -0.68849723782378 -0.89258811361136  0.71730949604960
 6  0.17866237213721 -1.12698961626163 -0.44488034523452
 8 -0.05834609870987 -1.29945963586359 -1.66349880448045
 8  1.51752682788279 -0.91708812731273 -0.05645063706371
 7 -6.95129831083108  2.75892063396340  0.46732732673267
 6 -5.79291347234723  3.32053878637864  1.08066219161916
 6 -6.09101037353735  4.78359644344434  1.17525907760776
 6 -7.36918998349835  4.97486880988099  0.50786601670167
 6 -7.82937838823882  3.61748034693469  0.13569490579058
 6 -5.11772092849285  5.73136691909191  1.75113111701170
 6 -8.01296788498850  6.30348006570657  0.35310036433643
 6 -8.77610513331333  6.73594288488849 -0.58135675197520
 7 -9.01744514381438  0.91743021762176 -0.73112008740874
 6 -9.74714649204921  2.10537383908391 -0.64020283098310
 6 -11.04322056005600  2.01635527502750 -1.19243331463146
 6 -11.27686312681268  0.70966500790079 -1.44731479307931
 6 -9.92209891829183 -0.00037708710871 -1.06543002340234
 6 -12.04598879607961  3.10690325942594 -1.31748617771777
 6 -12.47819791719172 -0.00507960636064 -2.02999523452345
 6 -12.55745021462146 -0.43603825022502 -3.49483666806681
 7 -7.45969909560956 -1.24431874637464 -0.31987833293329
 6 -8.57251323682368 -1.98964557875788 -0.79704663306331
 6 -8.22021562876288 -3.39542414391439 -0.56702044054405
 6 -6.88517054525453 -3.41133701800180 -0.24426653195320
 6 -6.56876541614161 -2.15066686578658  0.13208536263626
 6 -9.02166615171517 -4.75602900290029 -0.96892939973997
 6 -5.82843896539654 -4.28976420332033  0.13267593719372
 8 -5.80007186328633 -5.44872138083808 -0.02412549214921
 6 -4.65278088268827 -3.42727984068407  0.55559080868087
 6 -3.97762017681768 -3.90748444364436  1.84197608290829
 8 -4.25051766346635 -3.52877383328333  2.91405186918692
 8 -3.36495901160116 -5.11693197449745  1.53157890089009
 6 -2.83604713501350 -5.69241014631463  2.74916138643864
 6  2.53475351875188 -0.89395808640864 -1.07931213651365
 6  3.95505961576158 -0.74596922032203 -0.44271088428843
 6  4.95709801000100  0.14566361396140 -0.84801020562056
 6  4.78997950815082  0.91780562226223 -2.01778431743174
 6  6.22254596669667  0.26031866016602 -0.01515297839784
 6  7.33049727692769 -0.24892422552255 -0.86060341374137
 6  8.71497497449745 -0.16369157605761 -0.15681056095610
 6  10.03166502120212 -0.71182566516652 -0.85753673357336
 6  9.96047984138414 -2.16116128192819 -0.97629174387439
 6  11.21593226782678 -0.25187485808581 -0.05361782978298
 6  12.67651623622362 -0.61718019641964 -0.64204208140814
 6  13.83739014621462 -0.05530823392339  0.16522288488849
 6  15.24881670277028 -0.21651468726873 -0.54037787358736
 6  15.71349867746775 -1.63413757565757 -0.64283401890189
 6  16.22772536973698  0.62401331253125  0.35305857025703
 6  17.64064090279028  0.63953968786879 -0.21977648544854
 6  18.65472532353235  1.69318793779378  0.47888658155816
 6  20.15604550045004  1.72733835913591 -0.01233847344734
 6  20.23713464296430  2.27946737793779 -1.53846025502550
 6  20.88134860046005  2.74781851795180  0.89824622532253
 1 -3.68617678527853  3.46306269056906  1.57144938323832
 1 -9.74661224622462  4.23751318781878 -0.54499317321732
 1 -10.72892123202320 -2.07594360436044 -1.46467636153615
 1 -2.82262831433143 -1.72542290639064  2.31016281098110
 1 -2.18503907150715  1.49272922402240  1.86527602600260
 1 -2.29601711761176  0.21102852455245  3.89131585688569
 1 -2.97609090939094  1.80661530513051  3.83261236243624
 1 -3.95838641804181  0.11611231353135  3.80767961366137
 1 -2.33068252215222 -1.65663954165417 -0.44594145044504
 1 -2.33160909950995 -0.17335986168617 -0.56664532523252
 1 -0.39523384678468  0.06438056395639  1.31102713321332
 1 -0.55835884878488 -1.82135131513151  1.54789190819082
 1 -4.08452310971097  5.56931506910691  1.21114425242524
 1 -5.60806202500250  6.59750486918692  1.49620521752175
 1 -5.11044282128213  5.67843769316932  2.84547560816082
 1 -7.74610470937094  6.96574360806081  1.24689599589959
 1 -9.11400679347935  6.11438942444244 -1.53171256725673
 1 -9.12303658285829  7.65026031133113 -0.69066877097710
 1 -11.80950549794979  3.75498599709971 -0.41219361796180
 1 -11.84969389168917  3.94574953965397 -2.45012222972297
 1 -13.08030543054305  2.83464908310831 -1.20481352825283
 1 -12.68514334023402 -0.99161928822882 -1.35748032183218
 1 -13.30272101440144  0.54011367276728 -1.78352202950295
 1 -12.39267378237824  0.51402841794179 -4.15252409580958
 1 -11.95944215191519 -1.34957435383538 -3.68234903160316
 1 -13.56439451265127 -0.76426378447845 -3.88187204590459
 1 -10.03780132693269 -4.34203629552955 -0.50608641254125
 1 -9.17393930413041 -4.88815582908291 -2.11329184978498
 1 -8.56566827232723 -5.58389916981698 -0.28272292579258
 1 -4.01983771107111 -3.55607295859586 -0.31083414321432
 1 -2.55518238623862 -6.80947755145515  2.20124582858286
 1 -1.74066063776378 -5.20909064806481  3.21104555485549
 1 -3.60030108550855 -5.52241924192419  3.75481700190019
 1  2.50805259705971 -1.88816555765577 -1.64601173447345
 1  2.02149399229923 -0.09785122312231 -1.87851547084708
 1  4.18704013991399 -1.23512158265827  0.49269831423142
 1  5.09618488298830  1.96282398019802 -1.87329991739174
 1  5.63818078187819  0.56434238943894 -2.61556462356236
 1  3.79858634383438  0.96998980488049 -2.52895825272527
 1  6.35981607870787  1.29074221812181  0.29692449204920
 1  6.00937876367637 -0.40189577487749  1.17723741784178
 1  7.27794844794479 -1.40034407980798 -1.27600244634463
 1  7.40577032813281  0.42505801040104 -1.72461131883188
 1  8.87812225382538  0.79950780228023 -0.08706744824482
 1  8.69133186308631 -0.63228031503150  0.91057391029103
 1  10.13837070237024 -0.14529433113311 -1.70953167606761
 1  9.16101328892889 -2.63832249504950 -1.68317754325433
 1  10.89670653165317 -2.66238791519152 -1.38829457505751
 1  9.68273671547155 -2.49166104360436  0.05158163666367
 1  11.34039822992299  0.76819444324432  0.02908637123712
 1  11.23099066846685 -0.57693617911791  0.85495601730173
 1  12.78586509450945 -1.73767764676468 -0.68110155295530
 1  12.74268458505851 -0.32772004490449 -1.67288060656066
 1  13.65984702020202  1.04064446024602  0.24173934803480
 1  13.81549638513851 -0.41619457345735  1.12307188338834
 1  15.18476997439744  0.24653785358536 -1.58509515931593
 1  15.09749514451445 -2.27222550635064 -1.30080410091009
 1  16.70972770907091 -1.67697353685368 -1.21991338393839
 1  15.87556027362736 -1.97850746934693  0.28117081838184
 1  15.77053424502450  1.60713380208021  0.70749459305931
 1  16.33075939863987 -0.11555774667467  1.15661765856586
 1  18.07035311261126 -0.35746422502250 -0.16055073977398
 1  17.58137086248625  0.94210717381738 -1.27986529112911
 1  18.26022772867287  2.63783251095110  0.25676217121712
 1  18.66811982618262  1.27380621742174  1.41301255685569
 1  20.68106633643364  0.72106283998400 -0.05225228812881
 1  20.06146884408441  3.42038417051705 -1.65888086228623
 1  21.28559707690769  2.18832443624362 -1.97364268766877
 1  19.56429466526653  1.77967800440044 -2.24718990019002
 1  21.08460347344734  2.22474202450245  1.92786671447145
 1  22.04352819451945  2.70901901850185  0.54863676347635
 1  20.49749741244124  3.65648531903190  1.15323792819282
 1 -7.03307709020902  1.77294156615662  0.49169242604260
 1 -7.66343771037104 -0.21292616821682  0.01860854065407

