%nproc=4
%Mem=2GB
# td=(NStates=1) B3LYP/SVP 

TD

0 1
 6 -5.19290214071407 -1.99363916991699  0.44715334043404
 6 -4.67146330453045  2.63789401840184  1.32909958605861
 6 -9.26331557515751  3.52997919421942 -0.19977459365937
 6 -9.71325317641764 -1.26804839943994 -1.11489763516352
 7 -5.20436718471847  0.32291875297530  0.85354281228123
 6 -4.58212631023102 -0.85006398999900  0.86380246584658
 6 -3.13911566526653 -0.68450893439344  1.33327657705771
 6 -2.99544369676968  0.76641175877588  1.71667617301730
 6 -4.35720067816782  1.28644568996900  1.26880879227923
 6 -2.78796529442944  0.85303360436044  3.24295415341534
 6 -2.04987032983298 -1.09293430753075  0.25802240994099
 6 -0.57688607670767 -1.33432228702870  0.66059382448245
 6  0.39610411631163 -1.61263818111811 -0.46838269546955
 8  0.06811654755476 -1.94121381128113 -1.59341179577958
 8  1.66651172637264 -1.29900631913191 -0.09089408140814
 7 -6.91683486448645  2.84663940584058  0.51765235923592
 6 -5.80076425742574  3.40990772327233  1.04881900730073
 6 -5.92181345384538  4.81745982978298  1.04333588528853
 6 -7.28736180068007  5.09201052405241  0.53494872497250
 6 -7.90786623702370  3.83927252615262  0.22504384068407
 6 -4.90154931133113  5.87435121752175  1.46620262416242
 6 -7.78971555975598  6.49788950665067  0.38048310261026
 6 -8.88291581438144  6.83658294889489 -0.40442905920592
 7 -9.10620401970197  1.09356783138314 -0.56425340074007
 6 -9.72273405080508  2.30493379507951 -0.51664047474747
 6 -11.17556379437944  2.07647128662866 -0.93929800110011
 6 -11.35306074657466  0.75836987838784 -1.23024308590859
 6 -10.04008071647165  0.18848179877988 -0.89810329072907
 6 -12.18281247844785  3.14432700180018 -1.02340676977698
 6 -12.52402249964996  0.07459836143614 -1.73441567656766
 6 -12.58676314591459 -0.21499614601460 -3.19714689908991
 7 -7.40082320802080 -1.14095841034103 -0.39353569866987
 6 -8.54545053055305 -1.76213282748275 -0.76621354975498
 6 -8.25793940114011 -3.26209081058106 -0.75588932743274
 6 -6.99637166536654 -3.35664154845485 -0.32146425172517
 6 -6.46812535213521 -2.02177397649765 -0.03128097399740
 6 -9.14151813691369 -4.44787818781878 -1.15751825862586
 6 -5.90053617511751 -4.32011723862386 -0.03436076647665
 8 -5.90459231533153 -5.56074258295830 -0.05885896549655
 6 -4.67151275587559 -3.42999011171117  0.46350159975998
 6 -4.13445586038604 -3.97932162736274  1.71348323362336
 8 -4.21399401110111 -3.56751770767077  2.78627909190919
 8 -3.24054657035704 -4.94058433973397  1.44952069506951
 6 -2.65334886518652 -5.60973187848785  2.54534100440044
 6  2.70219026242624 -1.63467215781578 -1.01339554485449
 6  3.92347645744574 -1.08093271667167 -0.37521413461346
 6  4.82996529672967 -0.27123807620762 -1.02059746434643
 6  4.68693920412041  0.32239608130813 -2.38687122612261
 6  6.09557326942694  0.17185981428143 -0.25999746284628
 6  7.40589481668167 -0.52698203130313 -0.89153650705071
 6  8.70361383838384 -0.24555976287629 -0.12191707160716
 6  10.04095595029503 -0.79961444404440 -0.58666964686469
 6  10.03259705310531 -2.30173533933393 -0.56380049474947
 6  11.24004467906791 -0.30983065366537  0.11780931293129
 6  12.60683926852685 -0.57446592499250 -0.51317919511951
 6  13.77911431863186  0.18841613851385  0.17904426702670
 6  15.12527434853485 -0.07699073487349 -0.34921875767577
 6  15.60910823842384 -1.42334649654965 -0.33260299579958
 6  16.15166776397640  0.87754866606661  0.44501776617662
 6  17.59261610031003  1.02710844474447 -0.23913842164216
 6  18.45858570957095  1.98146676567657  0.40208890179018
 6  19.92958285418542  2.01442706800680 -0.03886112571257
 6  20.05561649114912  2.58986841804180 -1.50789719871987
 6  20.90388085368537  2.87724146024603  0.87884428512851
 1 -3.83612177977798  3.29941632593259  2.01636387468747
 1 -9.88350593559356  4.37552698919892 -0.12550122402240
 1 -10.52857119701970 -2.07687369736974 -1.01539143304330
 1 -3.03717976947695 -1.48590895499550  2.12402419711971
 1 -2.13958452605260  1.33052300340034  1.22288178657866
 1 -1.73618113401340  0.46100352205221  3.54251097639764
 1 -2.68911221152115  1.95601024462446  3.52204130533053
 1 -3.71857243664366  0.39038974127413  3.78243708940894
 1 -2.35833528742874 -2.18121199889989 -0.29390624692469
 1 -1.99283522212221 -0.32379490519052 -0.55386404710471
 1 -0.25388971237124 -0.30370624472447  1.26510254075407
 1 -0.71092410531053 -2.22329150915092  1.34726184518452
 1 -3.85761041844184  5.73640177777778  0.85612875087509
 1 -5.24812603140314  6.91411653035304  1.74826042304230
 1 -4.39700147714771  5.42099194859486  2.34501556215622
 1 -7.38993909280928  7.13192022572257  1.04644595089509
 1 -9.38867426022602  5.88950693619362 -1.10118951495149
 1 -9.05663994319432  7.83943922922292 -0.28659836393639
 1 -12.31420596799680  3.59812031053105  0.03095069646965
 1 -11.76935585788579  3.94049901460146 -1.80002722022202
 1 -12.92884028402840  2.87847346554655 -1.45642868976898
 1 -12.50115494139414 -0.88813894019402 -1.09145371917192
 1 -13.44261500380038  0.62092175357536 -1.30033371067107
 1 -12.72485700070007  0.73302031713171 -3.72637148054806
 1 -11.40192640034003 -0.65448484488449 -3.49892068876888
 1 -13.37131520472047 -0.81031838993899 -3.52901676037604
 1 -9.85739328612861 -4.65924801670167 -0.43538934283428
 1 -9.71233314351435 -4.37943495699570 -2.18351887248725
 1 -8.49460116561656 -5.20625140504050 -1.08083273677368
 1 -3.90040576787679 -3.82836018731873 -0.33189624942494
 1 -1.94431129912991 -6.56684328802880  2.16201190519052
 1 -1.79587615931593 -4.91079081808181  3.09722417271727
 1 -3.36329738513851 -6.02106910691069  3.19771129132913
 1  2.72240403220322 -2.74381112221222 -1.07699483278328
 1  2.64002584548455 -1.30742218021802 -1.99619723902390
 1  3.97516895279528 -1.22130020052005  0.82543158755876
 1  5.06183144764476  1.45121281908191 -2.77845043244325
 1  5.16011297509751 -0.21476552135213 -3.20685375247525
 1  3.70284676987699  0.24871767766777 -2.74001935883588
 1  6.24326442354235  1.15725886978698 -0.18705390579058
 1  6.19013683948395 -0.29575516081608  0.82646234033403
 1  7.35489614271427 -1.65263930933093 -0.82412725882588
 1  7.40395014611461 -0.31668616401640 -2.03830268796880
 1  8.88739318091809  0.79999785128513  0.21461271977198
 1  8.63229595949595 -0.48966605360536  0.89405225812581
 1  10.28021488678868 -0.65852565426543 -1.59757047994799
 1  9.21485867346735 -2.92148081088109 -1.01370059555956
 1  10.87571443244324 -2.75934761116112 -1.00386613221322
 1  9.99684812661266 -2.90362223972397  0.41630810931093
 1  11.10895508560856  0.74349197299730  0.12641610421042
 1  11.28281585098510 -0.80157864336434  1.04188471017102
 1  13.08984549254926 -1.63480735973597 -0.59423286608661
 1  12.61428174477448 -0.06297357025703 -1.47566088458846
 1  13.34460549604960  1.30551094689469  0.30435560966097
 1  13.64863969946995 -0.17725067906791  1.27220679687969
 1  15.02761425882588  0.36517971777178 -1.29682633243324
 1  14.80355575057506 -1.82954123792379 -1.00813483398340
 1  16.69182591889189 -1.44921076057606 -0.82200359295930
 1  15.51844456205621 -2.03357297589759  0.58401110241024
 1  15.84791198279828  1.92731582028203  0.42827667126713
 1  16.28632495519552  0.49354316341634  1.45101709850985
 1  17.97965404270427 -0.13577205580558 -0.10693537823782
 1  17.47842056745674  0.99281224432443 -1.38785609020902
 1  18.22301400730073  2.98366709440944  0.12344883988399
 1  18.27696071027103  2.00705954275428  1.51752300790079
 1  20.36721495129513  0.95954668836884 -0.04450151305131
 1  19.76073877107711  3.74946707880788 -1.37478245244524
 1  21.09451796899690  2.41518712251225 -2.10603592699270
 1  19.29866810261026  2.07371740834083 -2.21077625882588
 1  20.76922193529353  2.23170272057206  1.89402333013301
 1  21.92527636933693  2.90180829742974  0.23642554235424
 1  20.52731039373938  3.88845851635164  1.19111171557156
 1 -6.94300808330833  1.91108538053805  0.16806006280628
 1 -7.25895726232623 -0.05812068766877 -0.13131645184518

