%nproc=4
%Mem=2GB
# td=(NStates=1) B3LYP/SVP 

TD

0 1
 6 -5.15717856835684 -1.92244205020502  0.50112873797380
 6 -4.71577773597360  2.75987621662166  1.58027470357036
 6 -9.20903014661466  3.40412660896090 -0.24291890809081
 6 -9.76579843094309 -1.35892748734873 -1.07680382578258
 7 -5.13168991699170  0.41777823892389  0.75567302530253
 6 -4.48808690629063 -0.80001898549855  0.80313639923992
 6 -3.02963471717172 -0.68456894039404  1.40090333973397
 6 -3.07176132853285  0.81101621922192  1.99495400080008
 6 -4.33380833893389  1.37421446684668  1.39875178657866
 6 -3.01193769166917  0.83858215921592  3.53800365836584
 6 -2.12312765556556 -0.90491550565056  0.25446205390539
 6 -0.64282267036704 -0.96277513231323  0.67984574967497
 6  0.29172367826783 -1.06787370467047 -0.60771662886289
 8 -0.03609387348735 -1.42150184008401 -1.70611306590659
 8  1.57309238443844 -0.83928034653465 -0.10858585058506
 7 -6.91648482948295  2.78845358725873  0.47977857185719
 6 -5.74592877387739  3.38469520202020  1.03544767016702
 6 -6.04901617411741  4.79251733553355  1.03879543124312
 6 -7.34017708220822  4.99916123912391  0.47112234233423
 6 -7.84967041744174  3.67917651655166  0.24120545684568
 6 -5.12991214761476  5.92623640604060  1.51055705960596
 6 -7.92722931113111  6.36823654135414  0.37142219651965
 6 -8.87992551535154  6.56918620922092 -0.48532714901490
 7 -9.18287168646865  0.95279375397540 -0.50220719611961
 6 -9.82987476487649  2.13217651935194 -0.54054286498650
 6 -11.19534577257726  1.91268490799080 -0.96153022432243
 6 -11.41753719421942  0.62876691809181 -1.23106316791679
 6 -10.08237494589459  0.01188413901390 -0.92306578697870
 6 -12.08918311551155  3.11640420952095 -1.02850727982798
 6 -12.56148624602460 -0.11474057245725 -1.67974020902090
 6 -12.50486495609561 -0.41905655205521 -3.29659684408441
 7 -7.49756288198820 -1.28506282078208 -0.15109145424542
 6 -8.59585557105711 -2.04016063026303 -0.59433636203620
 6 -8.17305091229123 -3.39530413191319 -0.62877661616162
 6 -6.81773380158016 -3.38492437673767 -0.24441654695470
 6 -6.47607614721472 -1.99972177127713  0.01639379347935
 6 -8.97396138123812 -4.49466286628663 -1.06500900770077
 6 -5.72346846834683 -4.22408763566357  0.04984765436544
 8 -5.69379123522352 -5.45887239593959 -0.19898297789779
 6 -4.50111571617162 -3.21078819151915  0.44887013661366
 6 -3.89607202200220 -3.91657535273527  1.73519540484048
 8 -4.13431604330433 -3.41356231213121  2.80278074207421
 8 -3.20378289398940 -5.00394067536754  1.46349209220922
 6 -2.74179771007101 -5.64062496779678  2.64929139943994
 6  2.57814785818582 -1.22198088868887 -1.13614782008201
 6  3.91600571037104 -0.75738036143614 -0.56329294249425
 6  4.91607390759076 -0.05809676207621 -1.17248265286529
 6  4.82627313751375  0.36400024172417 -2.62599513851385
 6  6.23255696779678  0.27761038933893 -0.43800526362636
 6  7.47022124932493 -0.47462679577958 -1.05385273867387
 6  8.66853033003300 -0.27205241214121 -0.18639351925193
 6  9.99622147684769 -0.79407388998900 -0.78715969586959
 6  9.91724551795180 -2.34159932573257 -0.89177329202920
 6  11.22007268186819 -0.25163483408341 -0.03838630663066
 6  12.58200678527853 -0.68760723912391 -0.67086496369637
 6  13.82167857505751  0.04925222212221  0.18588495109511
 6  15.21816363746375 -0.19930296609661 -0.37834166996700
 6  15.65437276487649 -1.64305846774677 -0.25333506900690
 6  16.16568916611661  0.76133704490449  0.35757902230223
 6  17.62285912461246  0.72508824272427 -0.09938444624462
 6  18.48418826982698  1.81427004600460  0.60801949484948
 6  19.97911780768077  1.87724334963496  0.13382614301430
 6  20.15183611311131  2.25128455965597 -1.31992840184018
 6  20.75914638023803  2.74107784388439  1.13177957865787
 1 -3.86097426502650  3.16313269756976  2.12663490179018
 1 -10.00071765676568  4.21684112061206 -0.12390106400640
 1 -10.58788712861286 -2.03392940294029 -1.30888078197820
 1 -2.90576662816282 -1.42909327342734  2.26804859955996
 1 -2.15987655525553  1.37361731283128  1.60454995339534
 1 -2.20319783568357  0.22038946064606  3.96252297759776
 1 -2.79153245354535  1.81148579217922  3.97504660586059
 1 -3.94698527792779  0.49463016531653  4.06534538023802
 1 -2.30211966586659 -2.03613749144914 -0.13853070937094
 1 -2.18020395899590 -0.13162568826883 -0.37861652235224
 1 -0.23296762016202 -0.11190706480648  1.16237226772677
 1 -0.54484749764976 -2.04039321932193  1.31699881888189
 1 -4.31780643804380  5.60675881348135  0.83241637963796
 1 -5.51208242704271  7.00506562526253  0.98827442444245
 1 -5.14040581758176  6.18940879027903  2.64684574517452
 1 -7.59535963486349  6.94160119381938  0.93799510581058
 1 -9.17951334413441  6.06006399189919 -1.21118051405141
 1 -9.37726200540054  7.60119540484048 -0.65557526162616
 1 -12.08967351475147  3.76777727622762 -0.11773417201720
 1 -12.10730965326533  3.88830379507951 -1.93181039853985
 1 -13.26013341334134  2.62125774397440 -1.08858190509051
 1 -12.79498432433243 -1.05204533083308 -0.93131770557056
 1 -13.38634937723772  0.67814747614762 -1.62804648194820
 1 -12.69753426842684  0.42449946504650 -4.00128897229723
 1 -11.76460266796680 -0.95201459785979 -3.58774957165717
 1 -13.40118819201920 -1.18038539663966 -3.61648550725073
 1 -10.05149269606961 -4.41825391729173 -0.62585838973897
 1 -9.11380329052905 -4.67237425092509 -2.14419494009401
 1 -8.45005671117112 -5.50470125002500 -0.68287294079408
 1 -3.83872960026003 -3.40358771007101 -0.48095115491549
 1 -2.14202107010701 -6.67190379407941  2.25152085608561
 1 -1.96481305300530 -4.93168290729073  3.19302375267527
 1 -3.48956001140114 -5.85849284928493  3.33907542774277
 1  2.45647743954395 -2.34718145924592 -1.27424455775578
 1  2.30440228312831 -0.78471990999100 -2.19492711201120
 1  4.06671810771077 -0.98283635413541  0.48900794519452
 1  5.17751301580158  1.40758845664566 -2.92221480888089
 1  5.32907987178718 -0.29880392519252 -3.46794986208621
 1  3.85629211441144  0.25758856475648 -3.05660101700170
 1  6.22303240034003  1.32260540444044 -0.49750495089509
 1  6.03941176697670 -0.06650223552355  0.56978667276728
 1  7.31262191529153 -1.54340838623862 -1.18986383248325
 1  7.57122687378738 -0.06073056845685 -2.12185104280428
 1  8.87723216481648  0.80105795729573 -0.10629937143714
 1  8.74921765166517 -0.59748683568357  0.71627448034803
 1  10.14141100640064 -0.46720652235224 -1.71116183908391
 1  9.21164835243524 -2.83211187398740 -1.49285851135113
 1  10.87427428842884 -2.83154483088309 -1.45599134473447
 1  9.96041448324833 -2.71149302680268 -0.00871439293929
 1  11.03053724382438  0.96437406120612 -0.02593913131313
 1  11.18635620502050 -0.66992547804781  0.87521804350435
 1  12.78099460746074 -1.70317419641964 -0.44669811261126
 1  12.84835515211521 -0.11531880478048 -1.66835015351535
 1  13.40958199369937  1.00615101090109  0.26514168826883
 1  13.74578941444144 -0.22443539753975  1.19023860006001
 1  15.35066656405641 -0.00628742894289 -1.50056670647065
 1  15.02006740174017 -2.25712399619962 -0.86730075057506
 1  16.61585832213222 -1.86187202670267 -0.61767315991599
 1  15.47491020862086 -2.11005062366237  0.59691239253925
 1  15.79124631623162  1.75897898659866  0.36611045464546
 1  16.15429175187519  0.66505031413141  1.50119211601160
 1  17.95929200650065 -0.34588306690669 -0.25397008170817
 1  17.63855658105811  0.98187115021502 -1.26965427002700
 1  18.04212591849185  2.86321504920492  0.46372286728673
 1  18.60668368256826  1.67347618441844  1.67067832343234
 1  20.47959618941894  0.80476120982098 -0.01800886378638
 1  19.43176587378738  3.05641777387739 -1.64992996719672
 1  21.25089360656066  2.57473307710771 -1.55716103950395
 1  19.91154939073908  1.37633767036704 -1.96321150235024
 1  20.49504451755176  2.19751930223022  2.21892582038204
 1  21.89083292499250  2.69053717031703  1.02696459625963
 1  20.56023368606861  3.81632130263026  1.27437004140414
 1 -7.04915869836984  1.77094136613661  0.38174143094309
 1 -7.58462982958296 -0.22886776237624  0.29865654545455

