%nproc=4
%Mem=2GB
# td=(NStates=1) B3LYP/SVP 

TD

0 1
 6 -5.08543139363936 -2.03739354535454  0.42237086218622
 6 -4.58411456965697  2.73945417441744  1.11362803890389
 6 -9.32936217981798  3.42060825712571 -0.22432704890489
 6 -9.86753860496050 -1.37470906550655 -0.95953209860986
 7 -5.19201594959496  0.39372583368337  0.74393185118512
 6 -4.46143424102410 -0.77098608220822  0.79694578017802
 6 -2.99769152285229 -0.68131861536154  1.29424267366737
 6 -3.02012616501650  0.75416053365337  1.90113461886189
 6 -4.32816777487749  1.39988703410341  1.33719563096310
 6 -3.05719221712171  0.95462376337634  3.38593845184518
 6 -1.93986932973297 -0.92823783788379  0.09830643834383
 6 -0.54621300940094 -0.89842869766977  0.56312407750775
 6  0.37588209410941 -1.24695161246125 -0.60423628082808
 8  0.10645038093809 -1.55056474637464 -1.77205966056606
 8  1.69708478367837 -1.16638305680568 -0.25172016401640
 7 -6.96777995899590  2.74029877177718  0.38987958195820
 6 -5.81913609460946  3.38743547604760  0.85819994539454
 6 -6.06876814931493  4.82337042084208  0.91092264396440
 6 -7.41444450895090  4.98351967496750  0.54633986408641
 6 -8.00935638603860  3.66864546344634  0.15276661296130
 6 -5.13996315271527  5.87130091249125  1.46549255315532
 6 -8.00280686888689  6.29973969166917  0.41578663296330
 6 -8.97503502630263  6.79958924952495 -0.40404902120212
 7 -9.23138653795380  0.99055753035304 -0.48596557195720
 6 -9.79690146754676  2.18499180088009 -0.55673448414841
 6 -11.28147438543854  1.98496213571357 -0.90672474377438
 6 -11.36165160566057  0.61604564596460 -1.11747180878088
 6 -10.06980368876888  0.00189313991399 -0.90206368676868
 6 -12.36673087028703  3.03992656175618 -0.94010843994399
 6 -12.66186628402840 -0.11752085048505 -1.47395963096310
 6 -12.65594006360636 -0.40974562096210 -2.98229541394139
 7 -7.53616674237424 -1.24121843634363 -0.25259160426043
 6 -8.54906089158916 -1.91954856905691 -0.76739366776678
 6 -8.21770537773777 -3.39293389488949 -0.57789152765277
 6 -6.88080010821082 -3.36374225852585 -0.22402450775078
 6 -6.43515205480548 -2.04979677877788  0.02902505660566
 6 -8.96710069516952 -4.60369376937694 -0.94874738153815
 6 -5.74565068656866 -4.31305653255326 -0.05794312471247
 8 -5.75199705580558 -5.50266677537754 -0.26812989258926
 6 -4.54969057365737 -3.39774688738874  0.47838308790879
 6 -4.03641605640564 -3.88902259745975  1.82244412971297
 8 -4.26915952765277 -3.41232218811881  2.89619008300830
 8 -3.14621713741374 -4.85871615291529  1.60779652265227
 6 -2.50841437173717 -5.29160006530653  2.80557702800280
 6  2.68145818921892 -1.21072976357636 -1.21706591189119
 6  3.96196030583058 -0.86211083448345 -0.66616322952295
 6  4.91015331553155  0.01065011261126 -1.00862626722672
 6  4.80577108730873  0.67279112081208 -2.34428696769677
 6  6.26349006110611  0.21228385668567 -0.31520298339834
 6  7.45520974817482 -0.44478381148115 -0.96210356375638
 6  8.76359983698370 -0.33374858175818 -0.19822470237024
 6  10.12663451815182 -0.77515199779978 -0.93697467736774
 6  10.18803259665967 -2.19343450925093 -1.24242835753575
 6  11.26211688628863 -0.27323699429943 -0.03838630663066
 6  12.65388397299730 -0.57982646104610 -0.59834771197120
 6  13.87461386858686  0.02129942684268  0.20275663826383
 6  15.16164798589859 -0.23195623142314 -0.30972480828083
 6  15.57116444404440 -1.73060722262226 -0.49238897439744
 6  16.25381797899790  0.57936884808481  0.42106537093709
 6  17.62025886458646  0.87989372327233 -0.04758926672667
 6  18.52382223322332  1.68513713271327  0.84215290819082
 6  19.95852574847485  1.76265189048905  0.23324608500850
 6  19.96237716721672  2.42054148534854 -1.24522093109311
 6  20.81254171977198  2.59523325942594  1.20088648934894
 1 -3.80158832643264  3.47945432973297  1.44460669896990
 1 -9.94488207320732  4.29864930143014 -0.25651432533253
 1 -10.71182952285229 -1.99684569456946 -1.14757465136514
 1 -2.89190524202420 -1.33604396849685  1.93435523022302
 1 -2.15873644124412  1.35277522862286  1.38296779517952
 1 -2.09193670957096  0.57585500720072  3.89368609390939
 1 -3.20379367966797  2.09803444704470  3.47006610781078
 1 -4.00364094349435  0.46827753005301  3.85319416511651
 1 -2.20464991889189 -2.01515539323932 -0.36838369466947
 1 -2.03227916651665 -0.18022054775478 -0.79315797649765
 1 -0.47429175257526 -0.00693656775678  1.11736776727673
 1 -0.15566857975798 -1.65883506350635  1.17809492849285
 1 -4.18197285468547  5.93112124972497  0.82279541754175
 1 -5.64641586038604  6.80984610331033  1.40680627762776
 1 -4.93799557655766  5.65963581298130  2.51233229382938
 1 -7.51022112101210  7.02131916561656  1.10034134043404
 1 -9.38618401120112  6.31234922042204 -1.21761115711571
 1 -9.21697597679768  7.87561284658466 -0.16276598069807
 1 -12.39293384078408  3.64451494999500  0.09248685008501
 1 -12.23480240254026  3.77661262596260 -1.68213543104310
 1 -13.43262066206621  2.73068868706871 -1.05478852575258
 1 -12.76898172407241 -1.04665479177918 -1.16449102290229
 1 -13.60365110741074  0.49547920932093 -1.32907658495850
 1 -12.49070358535854  0.41597861296130 -3.67756660006001
 1 -12.00289649734974 -1.18251764816482 -3.30400119681968
 1 -13.66310438363836 -0.87953531163116 -3.24589844854485
 1 -9.87749529632963 -4.55809790169017 -0.37173297719772
 1 -9.47829974017402 -4.47752476597660 -1.95392591319132
 1 -8.48830053555356 -5.51968274817482 -1.06736138963896
 1 -3.95161088838884 -3.84234158545855 -0.30416347614762
 1 -1.90676754475448 -6.17936454015402  2.34757046104611
 1 -1.83266983868387 -4.46035577457746  3.33313776407641
 1 -3.22585364076408 -5.72226922692269  3.60668218841884
 1  2.81240303210321 -2.37380412151215 -1.68847598089809
 1  2.23461530443044 -0.57837927592759 -1.97213483278328
 1  4.18868030393039 -1.37273534403440  0.26101514591459
 1  5.16224148864887  1.70283798159816 -2.20621320872087
 1  5.48800576437644  0.29138509370937 -3.21750481758176
 1  3.81365785098510  0.95885869176918 -3.03551890879088
 1  6.29467956505651  1.30764390829083 -0.13189839023902
 1  6.18672649844985 -0.30380596589659  0.59856955105511
 1  6.99950060316032 -1.40900494589459 -1.08468331443144
 1  7.61984173527353  0.04138964356436 -2.03148200590059
 1  8.97198163976397  0.76109396089609  0.05763702220222
 1  8.55301803170317 -0.63378046504650  0.77872072497250
 1  10.30026689198920 -0.21923172487249 -1.75473619651965
 1  9.22862004960496 -2.59926858965897 -1.75823504900490
 1  11.08208506950695 -2.55067674407441 -1.61440718631863
 1  10.11200964276428 -2.68959083658366 -0.08084160566057
 1  11.12018620872087  0.67835545934593 -0.09322585998600
 1  11.22120969036904 -0.86446493199320  0.94397491919192
 1  12.70831733973397 -1.82172605160516 -0.76574001680168
 1  12.32383269986999 -0.00371764466447 -1.51487480598060
 1  13.64313534903490  1.07790818661866  0.51258643274327
 1  13.67997283278328 -0.54547750175017  1.20560013621362
 1  15.28820031743174  0.16816001580158 -1.37993464326433
 1  14.62142753775378 -2.01964024782478 -1.09657367786779
 1  16.58218495479548 -1.85784162366237 -1.08836022862286
 1  15.55011772937294 -2.17368698729873  0.48605130643064
 1  15.71989918151815  1.59045213391339  0.74964880848085
 1  16.55712203490349  0.13089689878988  1.39866186298630
 1  18.10770684798480 -0.27930640924092 -0.40013469816982
 1  17.60901362676268  1.48850181328133 -1.21077838243824
 1  17.86907861376138  2.72412113981398  1.07127362236224
 1  18.79077209140914  1.40300913771377  1.86334759035904
 1  20.43402163196320  0.69063979767977  0.00426336343634
 1  19.63892658985899  3.58404053615362 -1.25780075427543
 1  21.05422393959396  2.75226082988299 -1.39160448384838
 1  19.52909114491449  1.87239727632763 -2.12559774097410
 1  21.21928694179418  2.03114266456646  2.13091701950195
 1  21.84046788848885  2.86214433103310  0.76773867366737
 1  20.37760542324233  3.48993866436644  1.42965556995700
 1 -7.06864064656466  1.66880115211521  0.26134939173917
 1 -7.65755712231223 -0.17107198279828 -0.18013133333333

