%nproc=4
%Mem=2GB
# td=(NStates=1) B3LYP/SVP 

TD

0 1
 6 -5.15114796529653 -1.99644945094509  0.39978860396040
 6 -4.62155831403140  2.71284151315132  1.60370704680468
 6 -9.16509575317532  3.31597779407941 -0.29490410661066
 6 -9.79851170227023 -1.45469706430643 -0.94284042944294
 7 -5.18600534853485  0.45851231233123  0.72148960696070
 6 -4.55779387698770 -0.76961594519452  0.69928601420142
 6 -3.17390914461446 -0.71060154365437  1.39179242864286
 6 -3.11928608100810  0.73807892549255  1.93569807520752
 6 -4.36827178527853  1.33890093549355  1.40933284468447
 6 -3.01981847974797  0.76616491749175  3.49420927892789
 6 -2.08938428122812 -0.89866488058806  0.22542915061506
 6 -0.71249963806381 -0.87801665646565  0.72114988008801
 6  0.36643114901490 -1.02250916821682 -0.35521137833783
 8  0.04996473237324 -1.52322201210121 -1.41364381898190
 8  1.66101117631763 -0.75615203370337  0.04389939793979
 7 -6.95024820582058  2.81944668656866  0.56408700270027
 6 -5.90203438443844  3.40145687818782  1.14596872227223
 6 -6.22186345884588  4.86100418421842  1.17283883558356
 6 -7.45981904640464  4.96252757575758  0.60651588168817
 6 -7.89715516591659  3.63299189808981  0.15306664296430
 6 -5.32803195959596  5.89703348574857  1.73324932883288
 6 -8.08493508170817  6.29022874057406  0.46427148144814
 6 -9.01595911871187  6.70551984258426 -0.41607022332233
 7 -9.17129052835284  0.90359883448345 -0.49023599899990
 6 -9.73939571697170  2.09851315301530 -0.58936774747475
 6 -11.13106934493449  2.05821946144614 -1.16729080038004
 6 -11.35553099359936  0.66512055345535 -1.29334939653965
 6 -10.10004671307131 -0.03155020442044 -0.86390987138714
 6 -12.06268046524652  3.17016958605861 -1.50649507860786
 6 -12.46896699409941 -0.04479357775778 -1.86386862186219
 6 -12.29019348894889 -0.29360400680068 -3.39596678107811
 7 -7.53061618731873 -1.29812412691269 -0.23398974407441
 6 -8.57621360686069 -2.03861047524753 -0.76107303570357
 6 -8.22921652885288 -3.39004360586059 -0.73930766926693
 6 -6.88667069526953 -3.44137002130213 -0.35820792609261
 6 -6.41200974057406 -2.08143994309431 -0.09983782968297
 6 -9.17702168726873 -4.55009840984098 -1.13349585638564
 6 -5.81322744424442 -4.38420364726473  0.02209487908791
 8 -5.70128198429843 -5.56717322602260 -0.03881696129613
 6 -4.64219982458246 -3.42203931663166  0.37415266486649
 6 -4.06404881968197 -3.87909160436044  1.72458434373437
 8 -4.25637824952495 -3.39978093399340  2.78329879387939
 8 -3.24409692539254 -4.99473975527553  1.58000374337434
 6 -2.79092262256226 -5.59190009530953  2.77819428972897
 6  2.64393443684368 -1.20647933853385 -0.86784098939894
 6  4.05330944074407 -0.75886050945094 -0.40261687488749
 6  5.00447274747475 -0.09747069946995 -1.03821922652265
 6  4.79416992719272  0.39322316401640 -2.48969150815082
 6  6.27409112121212  0.37167979627963 -0.32118358145815
 6  7.52768699589959 -0.38835816891689 -0.93816116951695
 6  8.81886536353635 -0.18072327922792 -0.19945482538254
 6  10.09251110581058 -0.62480696329633 -0.76006698659866
 6  10.11721551495150 -2.17765293109311 -0.76006012071207
 6  11.28062873747375 -0.14567423802380  0.11373890589059
 6  12.67555614021402 -0.46675515391539 -0.44840271747175
 6  13.88464487168717  0.13658095499550  0.23949031163116
 6  15.19778159925993 -0.12511554735474 -0.36033986978698
 6  15.60646797439744 -1.61445560746075 -0.39967970347035
 6  16.22816541374138  0.63473438463846  0.30482374677468
 6  17.72448928762876  0.63934966886689 -0.22113662146215
 6  18.62445229622962  1.70725934493449  0.35369406230623
 6  20.03346324222422  1.74286991229123 -0.17562480208021
 6  20.23184411391139  2.18699813101310 -1.50188659765977
 6  20.83337380298030  2.49439317541754  0.72105850655066
 1 -3.88603677127713  3.39925630993099  2.04490672897290
 1 -9.75211279627963  4.24002343884388 -0.66148482238224
 1 -10.65970431033103 -2.14057006700670 -1.12573246714672
 1 -3.08425447694769 -1.38344870897090  2.17245904060406
 1 -2.33687425502550  1.23184313541354  1.28708820722072
 1 -2.23405092099210  0.34238165986599  3.86620334563456
 1 -3.06352965326533  1.78838348194819  3.87406650785078
 1 -3.80222080148015 -0.05703500120012  3.97755660136014
 1 -2.19229868376838 -1.94112799049905 -0.32291914821482
 1 -2.27029296789679 -0.18406093179318 -0.45746440714071
 1 -0.65527985138514  0.15503962986299  1.20702673317332
 1 -0.59172218511851 -1.68342752275227  1.43912103110311
 1 -4.59577423482348  6.40981911951195  1.07281041904190
 1 -6.15433665246525  6.77602272097210  2.27140273727373
 1 -4.96182795979598  5.35518536793679  2.57165822642264
 1 -7.65060515941594  7.13154018771877  1.20975228152815
 1 -9.44041943474347  6.00929891539154 -1.16125552155215
 1 -9.30862514171417  7.78009329462946 -0.54931463556356
 1 -12.30928547594760  3.64762526102610 -0.49892229082908
 1 -11.54926384868487  3.81899686438644 -2.21322854035404
 1 -13.06616401640164  2.85921153935394 -1.91407445434543
 1 -12.71569639553955 -1.08618874517452 -1.41517609140914
 1 -13.44149489178918  0.53953361476148 -1.79030270757076
 1 -12.19978449344934  0.78545556065607 -3.86837568096810
 1 -11.29928613631363 -0.84943433983398 -3.73733453015301
 1 -13.27499557275728 -0.89589694779478 -3.99048290699070
 1 -10.12981052785279 -4.39905199709971 -0.77020282418242
 1 -9.48808071827183 -4.42317933143314 -2.23780430103010
 1 -8.64419612511251 -5.54007478737874 -0.87675232873287
 1 -3.74930065736574 -3.41089844114411 -0.38318137793779
 1 -1.78050491849185 -6.09151575527553  2.48378408240824
 1 -2.39124569626963 -4.72748248724872  3.50621507180718
 1 -3.85773682908291 -6.38505550555055  3.00350187038704
 1  2.61707349914991 -2.29901664276428 -0.96663379667967
 1  2.45183702660266 -0.96187762576258 -1.94644226352635
 1  4.13925536143614 -0.81804987548755  0.89867891229123
 1  5.14182944744474  1.38860655845585 -2.74765735313531
 1  5.37291425522552 -0.11319536433643 -3.09451251835184
 1  3.76520300550055  0.52072487838784 -2.69888524542454
 1  6.19011910901090  1.44261740564056 -0.36748194859486
 1  5.96855468126813  0.09900431513151  0.61996169026903
 1  7.32316296939694 -1.48807285268527 -1.03179802590259
 1  7.65032478357836 -0.16032052745275 -2.11367022472247
 1  8.76644108570857  0.92360021152115 -0.03868260976098
 1  8.86554928482848 -0.62299938693869  0.89533238613861
 1  10.27876474177418 -0.38299810151015 -1.81382210511051
 1  9.34280146774677 -2.80833949674967 -1.36564579007901
 1  11.01911877287729 -2.53382505890589 -1.24860060566057
 1  10.05087352915291 -2.33256513401340  0.45363184168417
 1  11.20607479757976  0.80870849464946  0.06601006360636
 1  11.15310287968797 -0.44639312481248  1.29759028072807
 1  12.70516702470247 -1.51679555855586 -0.47345078787879
 1  12.72148246484648 -0.05234250715071 -1.57674099259926
 1  13.78154919041904  1.25972636843684  0.41266644074407
 1  13.66339117461746 -0.30286324032403  1.37217679387939
 1  15.24147564496450  0.47598079787979 -1.38478512831283
 1  14.78213360836084 -2.28752703650365 -0.80710473097310
 1  16.57638437473748 -1.86265210471047 -0.89429082168217
 1  15.61392411001100 -1.99157877647765  0.51180388168817
 1  15.99565675727573  1.76775986468647  0.70292413601360
 1  16.35643196589659  0.33402721182118  1.42025402220222
 1  18.15850192749275 -0.35784426302630 -0.23878856355636
 1  17.62192491789179  0.93992695579558 -1.24454175877588
 1  18.41722342824282  2.79091781948195  0.17138363336334
 1  18.76379939413941  1.32418125492549  1.52709396499650
 1  20.20797902770277  0.58311904560456 -0.12378944184418
 1  19.89749244644464  3.21099323142314 -1.60908588278828
 1  21.18793731093109  1.84521012481248 -1.94062938633863
 1  19.56646488228823  1.70381041764176 -2.11280646184619
 1  20.94220923402341  2.25797534783478  1.76566049384938
 1  21.91409525122512  2.44352246884688  0.47760966076608
 1  20.28513617631763  3.57408707920792  0.90349295369537
 1 -7.02732651515151  1.74524879687969  0.36033929072907
 1 -7.95149651625163 -0.25873074867487 -0.23446676687669

