%nproc=4
%Mem=2GB
# td=(NStates=1) B3LYP/SVP 

TD

0 1
 6 -5.19604245474548 -1.99842964896490  0.46539516461646
 6 -4.78681483968397  2.74969519851985  1.42529920602060
 6 -9.18710795439544  3.36150234653465 -0.34042865906591
 6 -9.90785263636364 -1.36626822142214 -0.76083222862286
 7 -5.23855060306031  0.41200766186619  0.85496295429543
 6 -4.61394949254926 -0.76897588118812  0.83491957755776
 6 -3.08196995069507 -0.60735121862186  1.28817206660666
 6 -3.03944809720972  0.92145726332633  1.79132363776378
 6 -4.38230318841884  1.41597864326433  1.40576248764876
 6 -2.83610010791079  0.96323462446245  3.30137999599960
 6 -2.01179652245224 -0.87180219431943  0.08655526322632
 6 -0.58830721882188 -0.77370622542254  0.57274503960396
 6  0.40418492439244 -1.13612052935294 -0.64683054025403
 8  0.04422415831583 -1.52669235913591 -1.77615006960696
 8  1.67328240344034 -0.80439685818582 -0.32602759475948
 7 -7.00004318531853  2.83460820272027  0.42446304030403
 6 -5.92464664566457  3.37170390289029  1.03534766016602
 6 -6.09963123562356  4.77660574437444  1.10931248294829
 6 -7.43334639913991  5.05687701070107  0.45661089118912
 6 -7.94075952635264  3.67043564246425  0.11478281458146
 6 -5.18621777817782  5.78534231663166  1.69648565246525
 6 -8.01732832103210  6.33743346104610  0.31806686098610
 6 -8.97936545934594  6.61553084368437 -0.58748736503650
 7 -9.15214861416142  0.86131460606061 -0.39506648204820
 6 -9.80876265366537  2.06660996269627 -0.55283409410941
 6 -11.20630686868687  1.89847348684868 -0.93894796609661
 6 -11.43128856935694  0.62105614701470 -1.08370843244324
 6 -10.01098780718072 -0.02245929532953 -0.89663314371437
 6 -12.11734593179318  3.08944151325132 -1.13486791589159
 6 -12.61085118251825 -0.11452055045505 -1.52370460546055
 6 -12.67796226582658 -0.63036768316832 -2.92195938033803
 7 -7.55036816251625 -1.26402071657166 -0.22557890299030
 6 -8.68407439293929 -2.03047966216622 -0.64524145254525
 6 -8.28950255745574 -3.36005060656066 -0.72463620212021
 6 -6.83319534773477 -3.40158604290429 -0.32298440374037
 6 -6.41744028362836 -2.06455825492549 -0.11595944184418
 6 -9.19230321542154 -4.46809020902090 -0.97792029882988
 6 -5.86565268676868 -4.28086331323132  0.00735340494049
 8 -5.72634449054905 -5.47952446114611  0.06272319271927
 6 -4.57706331093109 -3.38639575227523  0.41063631323132
 6 -3.86858927372737 -3.83464715991599  1.63876576187619
 8 -4.02366497819782 -3.40215117101710  2.74033449744974
 8 -3.08296081178118 -4.89232951425143  1.29755549854985
 6 -2.47737126742674 -5.53625453075308  2.41046751705171
 6  2.68300834423442 -1.22145083568357 -1.22736694199420
 6  3.97241135093509 -0.82018664206421 -0.66284289748975
 6  4.90740304050405  0.01020006760676 -1.12672807740774
 6  4.91007151735174  0.71425526722672 -2.47223976297630
 6  6.13725743784378  0.23084571287129 -0.23799526262626
 6  7.37939216641664 -0.43568290139014 -0.80465781918192
 6  8.68653213021302 -0.18827403430343 -0.10436531643164
 6  10.01780363506351 -0.68197267986799 -0.74278525842584
 6  10.00121391479148 -2.20067523332333 -0.90052416711671
 6  11.15643631823182 -0.21602127272727  0.13122065406541
 6  12.57274585918592 -0.51859033743374 -0.39636751395140
 6  13.79769617681768 -0.14011671477148  0.38672503510351
 6  15.20030185128513 -0.20912394819482 -0.36669050485049
 6  15.58634596219622 -1.72238640054005 -0.34855459095910
 6  16.28387098429843  0.65302621382138  0.42543580798080
 6  17.64368120682068  0.76267200110011 -0.21188569636964
 6  18.57202705370537  1.74475309430943  0.56961565446545
 6  20.08858875477548  1.72982860816082  0.09966272667267
 6  20.29414034353436  2.17454688588859 -1.29099550855086
 6  20.91023148874887  2.54845858195820  1.01094749544954
 1 -3.90143831143114  3.53745012931293  1.49977221552155
 1 -9.87341492649265  4.09495893239324 -0.70603927782778
 1 -10.63916225612561 -2.16405241524152 -1.19758965286529
 1 -2.80008606010601 -1.21662202630263  2.01076287098710
 1 -2.35052562016202  1.47951790289029  1.30410990939094
 1 -1.79384690059006  0.34689211091109  3.32123884918492
 1 -2.59146244654465  1.89249389298930  3.76839594079408
 1 -3.68842942234223  0.48178888118812  3.97558640434043
 1 -2.34365381928193 -2.04498837653765 -0.04152100840084
 1 -2.19099503810381 -0.21596412211221 -0.76884554525453
 1 -0.28778310171017  0.25480960686069  0.73904993549355
 1 -0.34615762866287 -1.47844702470247  1.51849896889689
 1 -4.34642930033003  6.02363050065006  0.85452859085909
 1 -5.63843506230623  6.76974209290929  2.03618921592159
 1 -4.78340011701170  5.22852270167017  2.70167122772277
 1 -7.58063816271627  7.15742277597760  0.86775808210821
 1 -9.43111850465047  5.74349233473347 -1.37655705170517
 1 -9.34588886808681  7.57972325762576 -0.36079578367837
 1 -12.22983753115311  3.59413991249125 -0.03880627922792
 1 -11.60224914721472  3.92622758745875 -1.86543376087609
 1 -13.02485988598860  2.91439705790579 -1.53149619651965
 1 -12.60644547044704 -1.05232535883588 -0.79594416821682
 1 -13.53268401070107  0.46388605000500 -1.15016869416942
 1 -12.64059857485748  0.15380239533953 -3.59815865926593
 1 -11.88986519421942 -1.52631202760276 -3.17537833453345
 1 -13.71766984018402 -1.14862222032203 -2.98934279297930
 1 -10.04454200100010 -4.80407249914991 -0.00206601050105
 1 -9.86746865706571 -4.26966397989799 -1.85052557315732
 1 -8.65641734723473 -5.42086286618662 -1.11538619211921
 1 -3.94239996729673 -3.40930828212821 -0.45851891169117
 1 -1.81267813581358 -6.45319192289229  1.98506421042104
 1 -2.10182675437544 -4.85241498049805  3.00833528382838
 1 -3.29603065846585 -6.03375037503750  3.14403592379238
 1  2.83553534533453 -2.43913065416542 -1.32554968826883
 1  2.53658550145015 -0.72361379937994 -2.18348596789679
 1  4.04264570047005 -1.42024009450945  0.35009405380538
 1  5.30557582208221  1.66297399519952 -2.28967155455546
 1  5.39297626142614  0.12857881308131 -3.00916398349835
 1  3.79919640484048  0.90526333223322 -2.77001235813581
 1  6.47961805890589  1.26329947384738 -0.33896909730973
 1  6.05660348614862  0.11576599129913  0.92738243234323
 1  7.41287194029403 -1.50759480488049 -0.72503734983498
 1  7.23378312941294 -0.05115961136114 -1.83972282998300
 1  8.93977841944194  0.99222707420742 -0.05679442094209
 1  8.75119784968497 -0.31441852885289  1.16990984388439
 1  10.17320418571857 -0.21374117581758 -1.72149287218722
 1  9.31669885748575 -2.71297996079608 -1.53726295179518
 1  10.90577743874388 -2.62427410381038 -1.36875262086209
 1  9.85646408820882 -2.59184106160616  0.14788126662666
 1  10.99990418051805  0.82927055085509  0.22507597019702
 1  11.06858442784278 -0.61171965746575  1.20397091879188
 1  12.84248075607561 -1.48938281728173 -0.69591303410341
 1  12.66680699729973 -0.07555482838284 -1.39598291679168
 1  13.56654769026903  1.07499789558956  0.79728490259026
 1  13.92906774227423 -0.68741169516952  1.32220179637964
 1  15.24400589798980  0.14268746854685 -1.39843649344934
 1  14.92508790379038 -2.15299358315831 -1.11355537603760
 1  16.61848858515852 -1.80790663016302 -0.65267666026603
 1  15.49274199179918 -2.15164478307831  0.66349905120512
 1  15.94973216481648  1.76428951765177  0.79899374297430
 1  16.38067439013901  0.32524633373337  1.51839383618362
 1  18.26207228452845 -0.25758423702370 -0.33325801050105
 1  17.38389111451145  1.27269023212321 -1.14275157975798
 1  18.18632033793379  2.75671439913991  0.59565606060606
 1  18.51797481168117  1.39611844864487  1.63280453605361
 1  20.46827505730573  0.69694042774277  0.10941387848785
 1  19.84271696889689  3.22423455555556 -1.17865283948395
 1  21.41282980018002  2.17668327212721 -1.61495681908191
 1  19.48332656845685  1.46169620622062 -2.13613879507951
 1  20.98204321742174  2.13466301660166  1.99514344214421
 1  21.98310215191519  2.61866998359836  0.58929082888289
 1  20.58167583028303  3.41320099059906  1.01355395979598
 1 -6.98316209870987  1.83709798179818  0.10653391019102
 1 -7.69992135873587 -0.17972284788479  0.05068174797480

