%nproc=4
%Mem=2GB
# td=(NStates=1) B3LYP/SVP 

TD

0 1
 6 -5.25723857435744 -1.97966777277728  0.43349197429743
 6 -4.81263742194219  2.68924915391539  1.36265294139414
 6 -9.31443068666867  3.41415761206121 -0.16073068926893
 6 -9.86951880298030 -1.36505810041004 -1.02698884428443
 7 -5.09861660966097  0.38762522362236  0.65869332733273
 6 -4.44893299089909 -0.71964094769477  0.74602068766877
 6 -2.99778153185319 -0.69545002850285  1.15192844224422
 6 -3.09601375377538  0.72142726032603  1.84821932733273
 6 -4.39539449754975  1.41907895329533  1.17423933533353
 6 -3.05188168606861  0.73399170017002  3.36946680468047
 6 -1.99303464626463 -0.69045405950595  0.09097570527053
 6 -0.54136252435244 -0.68967782258226  0.45657342244224
 6  0.40217472337234 -0.88246516381638 -0.71199705690569
 8  0.02218195409541 -1.34838452835284 -1.69656211081108
 8  1.70556563176318 -0.67343376187619 -0.39168416041604
 7 -7.04388756975698  2.75798053995400  0.37597819181918
 6 -5.86266044704470  3.31361809430943  1.01424554995500
 6 -6.13272454495450  4.84073215701570  1.01479303100310
 6 -7.35079814431443  5.07721904490449  0.50068529862986
 6 -7.97378282868287  3.72383098199820  0.15116645294529
 6 -5.12197135353535  5.76763054545455  1.50047605150515
 6 -7.96746333453345  6.31072078977898  0.30757581188119
 6 -8.98418594139414  6.64548383898390 -0.45409402570257
 7 -9.20543394269427  0.92246072067207 -0.41579855525553
 6 -9.91607338473847  2.13982728442844 -0.42059086978698
 6 -11.19615585358536  1.90666430593059 -0.88224229552955
 6 -11.37215265576558  0.54178822022202 -1.07765782738274
 6 -10.09218592699270 -0.05121217061706 -0.80539401980198
 6 -12.34357855505551  3.01860442954295 -0.88940336943694
 6 -12.58155825322532 -0.17775687408741 -1.59895213021302
 6 -12.70877534713471 -0.40734538093809 -3.07204438883888
 7 -7.49897302300230 -1.32995731023102 -0.35115146024602
 6 -8.67872385788579 -2.07751436563656 -0.70756768516852
 6 -8.18888249544954 -3.47616221772177 -0.81635537403740
 6 -6.94735676387639 -3.50977686198620 -0.40912301760176
 6 -6.53344188378838 -2.13747554665467 -0.04603244914491
 6 -9.09613359845985 -4.64006740674067 -1.04274678147815
 6 -5.79646576807681 -4.29384461136114  0.03833650325032
 8 -5.70990284638464 -5.53745025372537 -0.00958403800380
 6 -4.65424102870287 -3.35170228292829  0.49779502910291
 6 -3.99133154795480 -3.78851254645465  1.79610149544954
 8 -4.15987859955996 -3.31250220612061  2.91437190119012
 8 -3.12216473217322 -4.88741902320232  1.60504624762476
 6 -2.57833136343634 -5.54534543984398  2.70444691499150
 6  2.66902694609461 -0.93797248784878 -1.32309651495150
 6  3.95202931273127 -0.61698632203220 -0.70503711691169
 6  5.03011531173117  0.20399944754475 -1.19029443404340
 6  4.87050756095610  0.77768160986099 -2.62569510851085
 6  6.34911862396240  0.27858048634863 -0.35523698679868
 6  7.49927415461546 -0.55231456455646 -0.90351770517052
 6  8.77932140914091 -0.39025423232323 -0.05940081998200
 6  10.02229408410841 -0.91336581918192 -0.58320930083008
 6  9.97181097449745 -2.50861602740274 -0.48935305000500
 6  11.30023069766977 -0.33711338193819  0.17734526652665
 6  12.71362994759476 -0.69914839323932 -0.37986586378638
 6  13.81382778997900 -0.03861656475648  0.31489785238524
 6  15.16724854595459 -0.11728476427643 -0.41312514831483
 6  15.68605593319332 -1.60127428932893 -0.63263299879988
 6  16.29929252645265  0.67926883808381  0.34797806220622
 6  17.62675951465146  0.73311904580458 -0.23537804560456
 6  18.54581443244324  1.73185180418042  0.53644233713371
 6  20.01028092399240  1.60938656395640  0.07744050445044
 6  20.17724865436544  2.36639607080708 -1.26943335233523
 6  20.90629109470947  2.54384812091209  1.12443884458446
 1 -3.98042621022102  3.37927431173117  2.09369160746075
 1 -10.11415900090009  4.31722115861586  0.01740306640664
 1 -10.79656799669967 -1.78761477147715 -1.13376327022702
 1 -2.81486753825382 -1.61226159025903  1.87481927662766
 1 -2.39509007660766  1.47144709580958  1.53036253465347
 1 -2.00214773067307  0.61905932763276  4.02828955425543
 1 -3.30197349764977  1.83403804740474  3.68409751095110
 1 -3.83507408680868 -0.01793109080908  3.69535838153815
 1 -1.94684413831383 -1.76308018571857 -0.44825168146815
 1 -2.10193613221322 -0.04464699039904 -0.57904656535654
 1 -0.20749507290729  0.05757988388839  0.87986401690169
 1 -0.22867588048805 -1.32790197019702  1.15763288228823
 1 -4.36282093949395  6.08614675227523  0.64264740274027
 1 -5.55297651645165  6.76339145784578  1.82170776777678
 1 -4.56418819581958  5.27075692509251  2.45505656625663
 1 -7.47775787468747  7.03568060176017  1.04089539583958
 1 -9.51355674847485  5.93223120862086 -1.18980837683768
 1 -9.51326560576058  7.69859514481448 -0.46893659775978
 1 -12.18219276667667  3.70478097659766  0.13754135553555
 1 -12.11691061336134  3.41936690139014 -1.79846706420642
 1 -13.35156255625563  2.60625624382438 -0.99665271217122
 1 -12.58648347424742 -1.07873800010001 -0.84278885268527
 1 -13.45748649094909  0.36878654005401 -0.99830350765076
 1 -12.49616413141314  0.52321933703370 -3.43153199659966
 1 -11.75736194389439 -0.95785518191819 -3.14822561926193
 1 -13.67484555775578 -0.88958631673167 -3.20673453215321
 1 -9.92679022582258 -4.83107519941994 -0.25616142004200
 1 -9.54740665086508 -4.62027904140414 -2.15235575617562
 1 -8.33655536103610 -5.61344212411241 -1.12745739923992
 1 -3.67654338163816 -3.49158650995100 -0.04658771857186
 1 -2.03661052905291 -6.33355995969597  2.33716942094209
 1 -1.82234880658066 -5.11842158115812  3.41751620192019
 1 -3.35847690309031 -5.97716471647165  3.25960748094810
 1  2.60147193899390 -2.02605934703470 -1.81223835713571
 1  2.76365820872087 -0.14849628762876 -2.24971259055906
 1  4.41833326922692 -1.35579364986499  0.05017406180618
 1  4.98882414691469  1.74199189698970 -2.45579816721672
 1  5.80449741354135  0.53795975117512 -3.26465953305331
 1  3.88872535773577  0.53824663056306 -3.06640199709971
 1  6.89818991609161  1.35885902980298 -0.39733493389339
 1  6.05349317511751 -0.06872245754575  0.70382007610761
 1  7.40874152725273 -1.72697674307431 -0.81697654375438
 1  7.76189594069407 -0.25961045644564 -2.04598345604560
 1  8.95967040864086  0.84378222972297  0.16099735823582
 1  8.68144087398740 -0.93023011001100  0.93551640454045
 1  10.03032989828983 -0.63243304500450 -1.49700042294229
 1  9.25411259885989 -2.72282094489449 -1.29874910041004
 1  10.91625848684868 -3.26725840224022 -0.81063680928093
 1  9.52040048184818 -2.93320519801980  0.54996147464747
 1  11.14652884298430  0.84793241704170  0.33238670127013
 1  11.27654522392239 -0.88751723722372  1.24273479517952
 1  12.61589809780978 -1.73598747774777 -0.30786422922292
 1  12.87450776737674 -0.45681295419542 -1.39398271677168
 1  13.70839187468747  1.05945634143414  0.70967614171417
 1  13.97458229372937 -0.42137509150915  1.36459603580358
 1  15.12946444384439  0.58788198799880 -1.25745239503950
 1  14.81934732973297 -2.23623190699070 -0.99115313581358
 1  16.63735047134714 -1.65995183468347 -1.33732512511251
 1  15.98356107370737 -1.89118873747375  0.42596529782978
 1  15.86950414201420  1.59422251095109  0.21141498509851
 1  16.31529785248525  0.35802961206121  1.41177317411741
 1  17.89317539483948 -0.24472295089509 -0.48333301800180
 1  17.70990371577158  1.25140810391039 -1.24407171177118
 1  18.00920262616262  2.72421114881488  0.59197569256926
 1  18.62867588178818  1.38431726852685  1.66949820542054
 1  20.56156438623863  0.49754048774877  0.07220015711571
 1  20.28907160436044  3.47819995209521 -1.14126910111011
 1  21.28232674987499  2.03875947974797 -1.66375169856986
 1  19.52801103690369  1.93900393699370 -1.98211339253925
 1  20.91931694479448  2.13160271057106  2.10029395719572
 1  21.87965180688069  2.74899301590159  0.81857375717572
 1  20.29472713541354  3.47579725022502  0.97758036243624
 1 -7.13990777327733  1.69498377037704  0.34504776157616
 1 -7.45910727732773 -0.20631550715071 -0.17036035623562

