%nproc=4
%Mem=2GB
# td=(NStates=1) B3LYP/SVP 

TD

0 1
 6 -5.17730058055806 -1.95817562356236  0.52879150425043
 6 -4.67412357055705  2.74134436343634  1.42864954105411
 6 -9.16815605920592  3.41513771007101 -0.41469608580858
 6 -9.85114696579658 -1.38532012661266 -0.82879902530253
 7 -5.09296604460446  0.35158161926193  0.83962142014201
 6 -4.45199329692969 -0.78880786438644  0.82565865146515
 6 -3.03889564326433 -0.72566304980498  1.34982823222322
 6 -2.91541569396940  0.74812993059306  1.90476498189819
 6 -4.23096805490549  1.37969501490149  1.33879579097910
 6 -2.91661815971597  0.74360266126613  3.44285414341434
 6 -2.08314365716572 -0.92126714081408  0.15060166786679
 6 -0.55826421452145 -0.95175403020302  0.52880064516452
 6  0.36760126602660 -1.14579149644964 -0.65358121532153
 8  0.24197393329333 -1.72745243514351 -1.67684013861386
 8  1.65572064726473 -0.88245466396640 -0.26330132213221
 7 -6.91763494449445  2.72375711761176  0.37684827882788
 6 -5.78135231623162  3.30529726222622  0.90637476287629
 6 -5.96975824832483  4.78647673147315  0.90582213391339
 6 -7.27663072757276  5.02262358535854  0.34846007610761
 6 -7.76272172257226  3.73628222712271  0.04042537883788
 6 -5.03404256065607  5.79773355575557  1.41305730963096
 6 -7.88800538873887  6.35606532423242  0.10231528582858
 6 -8.93720124292429  6.70978026862686 -0.72871148744874
 7 -9.18661206050605  1.00834930953095 -0.46050302570257
 6 -9.81737351475148  2.15095839753975 -0.57188599929993
 6 -11.19322556055605  2.01519515901590 -0.99951402270227
 6 -11.46851229172917  0.63245728712871 -0.98737879947995
 6 -10.07751445984599 -0.07602465186519 -0.67552103250325
 6 -12.24414861206121  3.04188675777578 -1.11245567466747
 6 -12.70341043844384 -0.17486658505851 -1.43214544954495
 6 -12.66148061766177 -0.80876552295230 -2.85259244364436
 7 -7.61876500220022 -1.16884119861986  0.04389804470447
 6 -8.62716870237024 -1.96163277747775 -0.49807673607361
 6 -8.24160776797680 -3.41507610911091 -0.59386312481248
 6 -7.01236326452645 -3.36480236453645 -0.14701680698070
 6 -6.50779931953195 -2.03866566566657  0.16490864496450
 6 -9.17368135323532 -4.55839923992399 -0.94724723152315
 6 -5.83027914941494 -4.32816804370437  0.12131480108011
 8 -5.89520137623762 -5.58067457615762 -0.00892397199720
 6 -4.61142674727473 -3.42379949264926  0.44589983958396
 6 -4.06180859565957 -3.92098579377938  1.77636952225223
 8 -4.35019763146315 -3.48246920282028  2.84162462646265
 8 -3.12155467116712 -4.96818710001000  1.60884662766277
 6 -2.67284081438144 -5.57098800410041  2.74769123942394
 6  2.72159220262026 -1.03444213481348 -1.27646185148515
 6  3.96901101090109 -0.62928755215522 -0.74935154835484
 6  4.94714701490149  0.24191323892389 -1.20118552315232
 6  4.75000551075108  0.80711455315532 -2.66454899389939
 6  6.27578129022902  0.38233086138614 -0.52059352245225
 6  7.42925715291529 -0.08998833193319 -1.28133548694869
 6  8.68643212021202 -0.19933514041404 -0.36446132603260
 6  9.97028888358836 -0.60175465806581 -1.23035401530153
 6  10.08762255565557 -1.99512467826783 -1.81539565426543
 6  11.23993466806681 -0.26144581518152 -0.14838730673067
 6  12.58748733333333 -0.26938541694169 -0.85508338553855
 6  13.70750715791579 -0.03541624472447  0.27944430703070
 6  15.21423324442444 -0.02394543034303 -0.45414925072507
 6  15.50905823342334 -1.52805696759676 -0.71454118961896
 6  16.18847144434444  0.59243015421542  0.59585284968497
 6  17.61366820552055  0.63523925782578  0.13493898609861
 6  18.69687953895389  1.35797441644164  1.08064675757576
 6  20.06266616251625  1.61270689598960  0.51163392379238
 6  20.10629155865587  2.53490292149215 -0.81294770377038
 6  20.98706917251725  2.16461019711971  1.57875427612761
 1 -4.00773894149415  3.46951333563356  1.95663790209021
 1 -9.63683126812681  4.27326676317632 -0.41760043394339
 1 -10.71915025492549 -2.12439844984498 -0.95930582448245
 1 -2.87728377987799 -1.42468283238324  2.14757655235524
 1 -1.92968353595360  1.06203615471547  1.43873337173717
 1 -1.84465198109811  0.39891731343134  3.87308403370337
 1 -3.19256255655566  1.71903654725473  3.79363846504650
 1 -3.59242982238224  0.27693839613961  3.90594944064406
 1 -2.52585203910391 -1.98157203490349 -0.19901675797580
 1 -2.40231617021702 -0.24611713741374 -0.56685534623462
 1 -0.42980730413041 -0.04455032913291  0.96150218071807
 1 -0.39767278017802 -1.76694587458746  1.34876199519952
 1 -4.09098375577558  5.78217635523552  1.03043618161816
 1 -5.33259447824782  6.88288340704070  1.35486108310831
 1 -4.98978075507551  5.56750660006001  2.35156621722172
 1 -7.31399149804980  7.12680971467147  0.86496780308031
 1 -9.20215560836083  6.00079806530653 -1.64453384938494
 1 -9.34057833703370  7.82680796609661 -0.81866157025703
 1 -12.42575712311231  3.27977847634763 -0.06807920652065
 1 -11.98889781208121  4.05175013971397 -1.58339555705571
 1 -13.14747214721472  2.38710432863286 -1.47392043894389
 1 -12.92610743664366 -1.03180330663066 -0.56106067986799
 1 -13.60853159545955  0.54229389078908 -1.11060473777378
 1 -12.74416893189319 -0.02483546844684 -3.35520436383638
 1 -11.74630083778378 -1.49184858125813 -2.99846064276428
 1 -13.47257533073307 -1.73975133323332 -2.95943980268027
 1 -10.00213776057606 -4.76351844374437 -0.08061386528653
 1 -9.77161907210721 -4.23528054155416 -1.88764928552855
 1 -8.40702240774077 -5.45965674557456 -1.29478413191319
 1 -3.84406013331333 -3.44632198349835 -0.26797985778578
 1 -1.98707557555756 -6.37228383208321  2.59867557155716
 1 -2.25892246394639 -4.73100283928393  3.47124157445745
 1 -3.56277733313331 -6.31024802480248  3.23896541674167
 1  2.78945073687369 -2.03948068916892 -1.74236136943694
 1  2.33722556545655 -0.23700513851385 -1.97743536283628
 1  4.21775321122112 -1.13518158865887  0.23169221362136
 1  4.96620188468847  1.84264196199620 -2.63282586998700
 1  5.23816077987799  0.36005196039604 -3.42353542064206
 1  3.64339082428243  0.64998780468047 -2.91014637153715
 1  6.28688878597860  1.49022216611661 -0.28870407080708
 1  6.18121594739474 -0.04287987328733  0.47717741184118
 1  7.30622127522752 -1.12633667906791 -1.79502434853485
 1  7.51188093919392  0.53983948854885 -2.01445030273027
 1  8.82516695829583  0.93493134463446  0.10715197369737
 1  8.45365809570957 -0.92882996999700  0.45738859175918
 1  9.96188305360536  0.25611580988099 -2.18392911581158
 1  9.08127531513151 -2.28509717251725 -2.40412963846385
 1  10.79096595759576 -2.46961863826383 -2.55384112971297
 1  9.92714115591559 -2.86181805930593 -0.84026754825483
 1  11.16935112521252  0.65672329612961  0.32434589718972
 1  11.10119768916892 -1.13503198869887  0.50915143684368
 1  12.54807131513151 -1.37265114411441 -1.41941538433843
 1  12.84209452605261  0.56261898899890 -1.63050636913691
 1  13.63566460196020  0.95798619441944  0.79417459155916
 1  13.56074090959096 -0.86609956395640  1.11582115831583
 1  15.20704220162016  0.61016421622162 -1.20577722752275
 1  14.80419581458146 -1.97748603240324 -1.29011303180318
 1  16.41064780108011 -1.40737657715772 -1.35962735533553
 1  16.03220593819382 -2.13282290089009  0.12741544284429
 1  15.90136732833283  1.64388747744774  0.55131897549755
 1  16.00800712341234  0.15883969306931  1.54204620142014
 1  17.94812088938894 -0.48497697629763  0.05338065336534
 1  17.50415314071407  1.07875083818382 -0.89212651725173
 1  18.48560026592659  2.30906963466347  1.40364685968597
 1  18.89826284048405  0.71685052185219  1.86254751035103
 1  20.33441167096710  0.55660639433943  0.15233817091709
 1  19.69221191839184  3.56870900300030 -0.46475144934494
 1  21.18927744494449  2.42704830863086 -1.26468179157916
 1  19.36273450925092  1.99515955255526 -1.52449763096310
 1  21.00378539163917  1.49799935023502  2.66598052585259
 1  22.01058490019002  2.42785090169017  1.07712961276128
 1  20.75251291399140  3.31784145464546  2.15402800720072
 1 -7.15528931143114  1.81771604360436  0.32680593739374
 1 -8.05095646224622 -0.17944281988199  0.01819849964997

