%nproc=4
%Mem=2GB
# td=(NStates=1) B3LYP/SVP 

TD

0 1
 6 -5.13598644914491 -1.91872167816782  0.60647927302730
 6 -4.72560871907191  2.72554278327833  1.54210088618862
 6 -9.39100834443444  3.38443463976398 -0.28032264846485
 6 -9.77056890799080 -1.40651224582458 -1.04355050045005
 7 -5.17781452945295  0.37783424452445  0.94613207120712
 6 -4.58124622222222 -0.79337832143214  0.94742082768277
 6 -3.08518027172717 -0.67137762126213  1.43630688008801
 6 -3.02267642004200  0.84157927552755  1.92038654405441
 6 -4.44372933103310  1.39044609000900  1.47089900130013
 6 -2.96946344424442  0.94518281928193  3.45737559555956
 6 -2.12613795659566 -0.92649766386639  0.25706231393139
 6 -0.62782117021702 -0.92719157395740  0.61339910501050
 6  0.32825733163316 -1.03117003430343 -0.61341719891989
 8  0.02564230013001 -1.21950164006401 -1.75088754335434
 8  1.55432050725073 -0.94489090759076 -0.15757074907491
 7 -7.03326650765076  2.73257799969997  0.60091068506851
 6 -6.03836801780178  3.36078281078108  1.17312143754375
 6 -6.23751502400240  4.78140622442244  1.16426797849785
 6 -7.49083214771477  4.99174049704970  0.58667389748975
 6 -8.00862631303130  3.69708830773077  0.28991032733273
 6 -5.29291844824482  5.81418520092009  1.73016902080208
 6 -8.09591617981798  6.28970868856886  0.29016407070707
 6 -9.01241876467647  6.52631192179218 -0.72060067636764
 7 -9.10920431973197  0.97728620322032 -0.60829780518052
 6 -9.84281605900590  2.13579688138814 -0.61929073977398
 6 -11.11319755775578  1.97393103260326 -1.09919399069907
 6 -11.25230067056706  0.57220126152615 -1.37080714231423
 6 -9.96365307370737  0.05149810041004 -0.90625410581058
 6 -12.21555575277528  3.09179174827483 -1.16221065016502
 6 -12.39010910831083 -0.06538563696370 -2.00628286328633
 6 -12.19765423502350 -0.52342698909891 -3.36883406780678
 7 -7.43837696339634 -1.29288360286029 -0.32591893699370
 6 -8.57000298579858 -2.01542815701570 -0.81902883128313
 6 -8.15896950415041 -3.46333093459346 -0.84240797929793
 6 -6.80716274447445 -3.44623050735074 -0.29767187248725
 6 -6.43340187978798 -2.10150194929493  0.05465761986199
 6 -8.89980396549655 -4.65846924692469 -1.14741724852485
 6 -5.69467558905891 -4.33078830573057 -0.00430776117612
 8 -5.60092194829483 -5.48026453515352 -0.17267034663466
 6 -4.49894549914991 -3.35703281598160  0.58979422902290
 6 -4.08699111391139 -3.80334402960296  1.98870075537554
 8 -4.34336694839484 -3.35545650155015  3.04943540754075
 8 -3.30489300500050 -4.94100438173817  1.78944468746875
 6 -2.65184871517152 -5.47081798709871  3.04016048634863
 6  2.62636267966797 -1.01022971357136 -1.13506771207121
 6  3.99676378617862 -0.90529515291529 -0.48152476567657
 6  4.86699900010001  0.05364441204120 -0.94141954655466
 6  4.82780329052905  0.89983382508251 -2.15896843584358
 6  6.30539425152515  0.11961458975898 -0.32071353445345
 6  7.45097932513251 -0.40847018011801 -1.13961131453145
 6  8.78413189018902 -0.12059726662666 -0.27721260116012
 6  10.08379023372337 -0.61007549014901 -0.81776275617562
 6  9.89696348974898 -2.13479864566457 -1.28174228892889
 6  11.32630330493049 -0.39483915451545  0.00230776277628
 6  12.66075466006601 -0.79437791619162 -0.58536641384138
 6  13.79573598079808 -0.04401710481048  0.16480284288429
 6  15.15484730583058 -0.15401843764376 -0.55797963376338
 6  15.63902122972297 -1.68758292019202 -0.51948168366837
 6  16.20468306550655  0.65489640084008  0.34930819521952
 6  17.60001684038404  0.47058279217922 -0.18132264006401
 6  18.57533738473847  1.61602022102210  0.57509620252025
 6  20.03425332123212  1.72164779007901 -0.01452869246925
 6  20.08106903640364  2.55201463266327 -1.33057946694670
 6  20.92688315391539  2.43049678577858  1.09773617431743
 1 -4.15302346994699  3.50018640294029  1.88817105540554
 1 -9.96995458045805  4.31871130763076 -0.18780745464546
 1 -10.41874021392139 -2.09573558355836 -1.52467236113611
 1 -2.77805385688569 -1.29480984508451  2.34710650535054
 1 -2.21713228082808  1.28204815591559  1.31249074747475
 1 -2.14545206110611  0.40828825052505  3.69260598589859
 1 -3.01610491079108  2.02494713831383  3.76607570877088
 1 -3.63827440684068  0.38422912521252  4.12544138983898
 1 -2.53680313421342 -1.73321719941994 -0.49401625792579
 1 -2.19660559915992 -0.19733225892589 -0.64469313001300
 1 -0.41170549394940  0.11015514141414  0.84011004150415
 1 -0.29171218411841 -1.60739991999200  1.46888400740074
 1 -4.33544820222022  5.97727586518652  1.30781391939194
 1 -5.79518073687369  6.90730584928493  1.91788738573857
 1 -4.96239801680168  5.69266911631163  2.71856291689169
 1 -7.64251435033503  7.14044107780778  0.77079838613861
 1 -9.51661705450545  5.65960394589459 -1.38143753975398
 1 -9.34692897209721  7.62671795709571 -0.86306601070107
 1 -12.50423497089709  3.50334083258326 -0.27995039363936
 1 -11.66471539383939  3.85005997069707 -1.82517973547355
 1 -13.16372377237724  2.74235985418542 -1.63708675557556
 1 -12.58407323322332 -1.17172729902990 -1.49277385118512
 1 -13.52241298359836  0.52710237163716 -1.85482916021602
 1 -11.98521303630363  0.37546456155616 -4.02732157555756
 1 -11.15967217491749 -1.03043243964396 -3.44701549824982
 1 -12.98811688488849 -1.10024738283828 -3.94625848454845
 1 -9.69082662946295 -4.47646973887389 -0.52279808370837
 1 -9.35002691289129 -4.53163017651765 -2.27011753235324
 1 -8.23726543204321 -5.53816459635964 -0.92574722822282
 1 -3.59349507680768 -3.39759711101110 -0.10015307510751
 1 -1.99416628462846 -6.36314291799180  2.76013171717172
 1 -2.15726229792979 -4.70172991199120  3.44321877217722
 1 -3.34660571597160 -5.88828582858286  3.45291681188119
 1  2.62237402920292 -2.04449119021902 -1.47430456375638
 1  2.42496433933393 -0.12942438043804 -2.04506212551255
 1  4.16944838073807 -1.55048311881188  0.42694173857386
 1  5.67720298479848  1.80851854965497 -2.20409299669967
 1  5.17268423222322 -0.11778582338234 -2.98366143324332
 1  3.80886737193719  1.31372417831783 -2.65097045394539
 1  6.43247334443444  1.22533567746775 -0.26035123552355
 1  6.36924475027503 -0.45823140844084  0.74520421452145
 1  7.30524117721772 -1.39087313271327 -1.29639448554855
 1  7.53769352045204  0.05212071667167 -2.08261711941194
 1  8.77025146674668  0.86095394689469 -0.16492523402340
 1  8.74386711661166 -0.73104019101910  0.70649350225022
 1  10.24978184348435 -0.17305710741074 -1.87866858975898
 1  9.16035322292229 -2.35936459925993 -2.04483370887089
 1  10.95185204620462 -2.34000567696770 -1.75586133173317
 1  9.86818526032603 -2.94011588908891 -0.35357887938794
 1  11.11486567666767  0.83710133393339  0.26576003860386
 1  11.27605517491749 -0.78661714721472  1.07525804750475
 1  12.93823033103310 -1.97992187118712 -0.50645408820882
 1  12.70332064866487 -0.52973024592459 -1.76292961146115
 1  13.62539357485749  1.01645204100410  0.06242141624162
 1  14.00843567906791 -0.22312526652665  1.33099267546755
 1  15.05227672507251  0.27829102890289 -1.50175682548255
 1  15.06663205820582 -2.07029531333133 -1.26075009550955
 1  16.71765850215021 -1.71910775027503 -0.81546293889389
 1  15.45953867146715 -2.31738135673567  0.34754745604560
 1  15.97645483708371  1.75658874757476  0.43195703930393
 1  16.08846516921692  0.11283509260926  1.40127212401240
 1  17.97159323662366 -0.51334981358136 -0.13507819251925
 1  17.78006073147315  0.65711867496750 -1.25312261686169
 1  18.09054075997600  2.65100382808281  0.77849434443444
 1  18.79787280148015  1.10457929472947  1.79504075967597
 1  20.40484871467147  0.72175290899090 -0.07762482538254
 1  19.71829452665267  3.54833696579658 -1.07616259045905
 1  21.04666318351835  2.46612221602160 -1.73594891829183
 1  19.46810504630463  1.99478951555156 -1.97515269646965
 1  20.97061207430743  1.86265581588159  2.17937186498650
 1  22.03797763946395  2.61327944454445  0.56966886668667
 1  20.63967162986299  3.54090376087609  1.10489309370937
 1 -7.16407018951895  1.73598787078708  0.62266552335233
 1 -7.65506687328733 -0.25663053865387 -0.07421074127413

