%nproc=4
%Mem=2GB
# td=(NStates=1) B3LYP/SVP 

TD

0 1
 6 -5.09496234673467 -1.99682948894889  0.41643026812681
 6 -4.64833099129913  2.68236846584658  1.24878155425543
 6 -9.21142038563856  3.42701889818982 -0.34240885708571
 6 -9.82686453755375 -1.42161375597560 -0.87025317071707
 7 -5.14220096809681  0.37903436453645  0.87215467346735
 6 -4.52729082668267 -0.85458444204420  0.86267235283528
 6 -3.01645339903990 -0.69179966346635  1.24076732613261
 6 -2.93453760616062  0.76006112371237  1.85172967836784
 6 -4.36182114021402  1.31174822022202  1.26209812121212
 6 -2.88180467836784  0.91644994599460  3.37463732173217
 6 -2.12021736453645 -0.95113012711271  0.09435604330433
 6 -0.58744713281328 -0.91295014981498  0.49427719281928
 6  0.33262776867687 -1.27171408870887 -0.60021587878788
 8  0.03834357025703 -1.61929161906191 -1.64474692929293
 8  1.54824990019002 -0.96810322882288 -0.26927191919192
 7 -6.88826200720072  2.75743048494849  0.29845043904390
 6 -5.77099128012801  3.39372610511051  0.89434355975598
 6 -6.14472574507451  4.77489557335734  1.03363491519152
 6 -7.35847891239124  5.07405872887289  0.43192842294229
 6 -7.89318476887689  3.73145174407441  0.12757409370937
 6 -5.08748790519052  5.77584136653665  1.47767377127713
 6 -7.93524011221122  6.36231594929493  0.25759081338134
 6 -8.89906742954295  6.71732102270227 -0.54066268256826
 7 -9.15995939523952  0.95911438603860 -0.46827380278028
 6 -9.78367014441444  2.19825312701270 -0.60853966466647
 6 -11.16793303130313  1.95918955845585 -1.02007607890789
 6 -11.40513595409541  0.62300634203420 -1.08353841544154
 6 -9.97072378077808  0.05882883348335 -0.77113059345935
 6 -12.18022221942194  3.10757332643264 -1.13827825692569
 6 -12.62496259365937 -0.04486358475848 -1.48979121412141
 6 -12.60129459905991 -0.41987663406341 -2.95838302270227
 7 -7.42869599529953 -1.30567488198820 -0.15925227032703
 6 -8.58944492999300 -1.98147476167617 -0.57750467886789
 6 -8.30665427262726 -3.38864346584658 -0.64533827232723
 6 -6.91988401660166 -3.41110699499950 -0.16278838413841
 6 -6.44365290489049 -2.13720551965197  0.08333048714871
 6 -9.21295528062806 -4.49669306930693 -1.04934744154415
 6 -5.79910603210321 -4.42798802570257  0.03728639823982
 8 -5.74486634273427 -5.59015552425242  0.07861478187819
 6 -4.56653225782578 -3.44380149284929  0.45089033863386
 6 -4.02777519231923 -3.90778447364736  1.75899778507851
 8 -4.31785439713971 -3.49050000590059  2.88669913391339
 8 -3.20658317401740 -4.96816709800980  1.63999974297430
 6 -2.69594312461246 -5.54508541384138  2.72491896219622
 6  2.61496153955395 -1.28369706030603 -1.09201340664066
 6  3.90674478427843 -0.80169479287929 -0.41667828102810
 6  4.82537483768377  0.05411445904590 -0.88611401600160
 6  4.69801031123112  0.72680652235224 -2.30565310431043
 6  6.19934364646465  0.25682831113111 -0.19254071717172
 6  7.38655288248825 -0.24810414351435 -1.00344769816982
 6  8.73297677467747 -0.21968717561756 -0.18378325822582
 6  10.07405926062606 -0.62018650125012 -0.99227020692069
 6  10.00251404480448 -2.05893105890589 -1.59664377907791
 6  11.28564923952395 -0.41594126472647 -0.15444791279128
 6  12.65304388898890 -0.47124560296030 -0.83559143634363
 6  13.78354476167617  0.03368066496650  0.09677604020402
 6  15.22219404050405 -0.01824486028603 -0.43219705550555
 6  15.63066039363936 -1.43015717761776 -0.67033676917692
 6  16.18668126532653  0.77228814001400  0.50452371677168
 6  17.59628646734673  0.85165089898990 -0.03206771457146
 6  18.59248909990999  1.55008362736274  0.82175086798680
 6  20.08884878077808  1.68292391769177  0.35868862926293
 6  20.16793772327233  2.41404083528353 -1.02739914891489
 6  20.99589005460546  2.34063779987999  1.31329773047305
 1 -3.92371053865387  3.32675906020602  1.56431867016702
 1 -9.78452603760376  4.43341277777778 -0.35981465536554
 1 -10.59499783968397 -2.02060807080708 -1.09133902780278
 1 -2.94060011151115 -1.43616398049805  1.92621441614161
 1 -1.98736930453045  1.34903485458546  1.40961045944595
 1 -2.08093560946095  0.37841526322632  3.69826655195519
 1 -2.81606490679068  1.98647329092909  3.85367446864686
 1 -3.79284986438644  0.42549325162516  3.70757960366037
 1 -2.15387484138414 -2.07666154385439 -0.36768362466247
 1 -2.44273021162116 -0.17975050075008 -0.82188084878488
 1 -0.44822914631463  0.14482860876088  0.68936496699670
 1 -0.37036004890489 -1.42705188518852  1.59639675867587
 1 -4.00589524692469  5.59732787038704  0.95537867586759
 1 -5.30952217101710  6.82764788348835  1.32097769476948
 1 -4.87956973397340  5.83959380878088  2.58037909850985
 1 -7.24959505840584  7.23384041774177  0.73524483078308
 1 -9.49119451225122  5.86748473397340 -1.27086648264827
 1 -9.27265154435444  7.74779006430643 -0.83672337643764
 1 -12.11419596699670  3.65846634513451 -0.33005540414041
 1 -11.93437235953595  3.78310327502750 -2.09684690219022
 1 -13.17490489048905  2.65872149034904 -1.24236728362836
 1 -12.66169099499950 -1.19754988128813 -1.03553812761276
 1 -13.72142288458846  0.41839150055005 -1.24766844414441
 1 -12.71412592759276  0.69027604270427 -3.47737658105811
 1 -11.50737694539454 -0.81902129852985 -3.29820061676168
 1 -13.63135120832083 -0.94618197629763 -3.24404826352635
 1 -10.34072161896190 -4.39987207910791 -0.77776358025803
 1 -9.20436234643464 -4.40125713921392 -2.20576109670967
 1 -8.84461616711671 -5.51942272217222 -0.56549120262026
 1 -3.82797852515252 -3.47398474977498 -0.37535059485949
 1 -1.75670253825383 -6.10403700740074  2.64378008200820
 1 -2.42750932263226 -4.76491623062306  3.41304575487549
 1 -3.35064612001200 -6.18870587058706  3.23565508570857
 1  2.60062185398540 -2.29738647974797 -1.40203733703370
 1  2.34926676957696 -0.68944038203820 -2.09377699699970
 1  4.14404584048405 -1.45047311781178  0.52214125852585
 1  4.86294155865586  1.97126482428243 -2.13739632703270
 1  5.45116208000800  0.32810876607661 -2.86440950805081
 1  3.88431491669167  0.52852565846585 -2.92934829172917
 1  6.19250934803480  1.32826597049705  0.12391719131913
 1  6.13459128492849 -0.18891447674767  0.76758645274527
 1  6.84932558565857 -1.24861890729073 -1.40428527462746
 1  7.30827057815782  0.38099360396040 -1.97514637233723
 1  8.78160260186019  0.80332818431843  0.35219647814782
 1  8.37432016191619 -0.89154624162416  0.60437329022902
 1  9.87244410971097  0.15490568886889 -1.83796451935193
 1  9.20506769436944 -2.29010767356736 -2.25996522202220
 1  10.90984784578458 -2.20963263966397 -2.23744949054906
 1  10.02383082488249 -2.72597447494749 -0.65455897739774
 1  11.36741093119312  0.65424304810481  0.12879634223422
 1  11.05677324672467 -1.14378286378638  0.59062958465847
 1  13.02871937993799 -1.53062694169417 -1.09809325212521
 1  12.79226954355435  0.09936266336634 -1.72995631413141
 1  13.45217625312531  1.17455785158516  0.17377255135514
 1  13.59889472497250 -0.43329628362836  1.08768834503450
 1  15.24523602100210  0.71100430023002 -1.34690133993399
 1  15.01058645364536 -1.78730701450145 -1.40314433493349
 1  16.61284802110211 -1.67768360786079 -1.06220761336134
 1  15.68435115271527 -2.03022264086409  0.28645134643464
 1  15.83174036563656  1.72061515021502  0.74164800840084
 1  16.22723904660466  0.37476128522852  1.58509050585058
 1  17.94711078837884 -0.19691817041704 -0.17822250695070
 1  17.37377010241024  1.25770873397340 -1.15367267186719
 1  18.40819252515251  2.60758948664866  0.83862035703570
 1  18.66862987718772  1.15748458525853  1.76290754635464
 1  20.35869409920992  0.56268700240024  0.00744368146815
 1  20.01565426262626  3.65593772587259 -0.72055702990299
 1  21.38010652785278  2.39296490029003 -1.24734005740574
 1  19.57048528432843  2.07672770937094 -1.83098828002800
 1  20.99595460856086  1.78920847114711  2.27327125492549
 1  22.00002384408441  2.05957407400740  1.01663356315632
 1  20.74889255195520  3.29045871637164  1.59953255765577
 1 -7.04615839833983  1.74503877587759  0.14221747854785
 1 -7.63441480808081 -0.37325220082008 -0.19898321852185

