%nproc=4
%Mem=2GB
# td=(NStates=1) B3LYP/SVP 

TD

0 1
 6 -5.11118396889689 -1.90970077607761  0.37416604170417
 6 -4.70065622382238  2.75577580658066  1.37252392849285
 6 -9.31225046864686  3.33637983428343 -0.20505512171217
 6 -9.86985883698370 -1.40765235983598 -0.86351249664966
 7 -5.06125287328733  0.40118657975798  0.72509996799680
 6 -4.53436153375338 -0.79429841344134  0.78909499509951
 6 -3.11943369706971 -0.70563104660466  1.28182143154315
 6 -3.00055420782078  0.82024714231423  1.87054155955596
 6 -4.38081303940394  1.41827887328733  1.35342725412541
 6 -3.04218071597160  0.75871417241724  3.43376323432343
 6 -2.05363070587059 -0.82954796889689  0.12160876857686
 6 -0.59020740884088 -0.80159901470147  0.53031079617962
 6  0.49558406430643 -1.00839775707571 -0.51059691689169
 8  0.19407914381438 -1.33611330123012 -1.59496195079508
 8  1.59987506270627 -0.75215163366337 -0.07805279727973
 7 -6.99461264226423  2.71191593349335  0.39935052905291
 6 -5.95464964596460  3.42160889338934  0.92108623402340
 6 -6.15035630813081  4.75634371817182  0.99927147884788
 6 -7.52542560706071  4.96605792879288  0.60011524162416
 6 -7.98146359675968  3.71541013991399  0.11321265756576
 6 -5.15552470887089  5.75224900730073  1.49697570147015
 6 -8.12152874107411  6.37095681338134  0.45772082638264
 6 -8.99701722452245  6.66088537913791 -0.47827644394439
 7 -9.13486688598860  0.90416889148915 -0.56418339373937
 6 -9.88731050845085  2.15929923162316 -0.57310612131213
 6 -11.27172341034103  1.91955559505951 -0.96655072637264
 6 -11.46893233373337  0.55841988338834 -1.18404846644664
 6 -10.10916762516252 -0.02209925932593 -0.92598607900790
 6 -12.18471266846685  3.00508307740774 -1.10021445054505
 6 -12.63503360076008 -0.20043914231423 -1.68029026402640
 6 -12.64816928652865 -0.63808845524552 -3.10400758515852
 7 -7.52478560426043 -1.26845115961596 -0.32954930003000
 6 -8.61694768026803 -1.97195380958096 -0.54717164556456
 6 -8.17543115031503 -3.36144074557456 -0.71104484298430
 6 -6.84054608280828 -3.42616850115012 -0.27102920822082
 6 -6.46432497209721 -2.10334213331333 -0.00506835273527
 6 -9.17598158325833 -4.46308970897090 -1.04635714251425
 6 -5.82067818931893 -4.31966719361936 -0.06307363776378
 8 -5.69656151225123 -5.58083459215922  0.11182810321032
 6 -4.55686129072907 -3.32714982768277  0.38052330193019
 6 -3.97193960876088 -3.86496019121912  1.60825271057106
 8 -4.20171278297830 -3.34510546644664  2.76031649564956
 8 -3.30762327802780 -5.02674295559556  1.43323906690669
 6 -2.73592712301230 -5.65329623492349  2.53852032233223
 6  2.67075711911191 -0.95242393299330 -1.10650485578558
 6  4.06065017481748 -0.67016163956396 -0.56314292749275
 6  4.95305760596060  0.13490253785379 -0.95990139473947
 6  4.86077658785879  1.01648549024903 -2.23212575157516
 6  6.26876058815882  0.30735336363636 -0.25213667676768
 6  7.52803703090309 -0.28992832593259 -0.96499385278528
 6  8.75043852085209 -0.17230243714371 -0.11107598749875
 6  10.02302415711571 -0.76299078167817 -0.68012899279928
 6  9.90991478487849 -2.24043920972097 -0.68028214291429
 6  11.25167584218422 -0.29812948354836  0.16720425242524
 6  12.65924450905091 -0.59194767316732 -0.51686956415642
 6  13.94241064826483  0.01998929582958  0.27892425502550
 6  15.27513933503350 -0.32426546234623 -0.37306114191419
 6  15.62385971357136 -1.82580674257426 -0.20781051655166
 6  16.30501309850985  0.61710262146215  0.36400966536654
 6  17.73176001470147  0.56983271717172 -0.22748725652565
 6  18.67947779877988  1.62994161316132  0.48800749364937
 6  20.10978087398740  1.68355398069807 -0.11837907750775
 6  20.18996992649265  2.18751818301830 -1.45016142514251
 6  21.00381084668467  2.65168890499050  0.81426782748275
 1 -4.11545971357136  3.55846223052305  1.80584282258226
 1 -10.00414799979998  4.06423586008601 -0.35553422732273
 1 -10.69492783268327 -2.20319632963296 -1.22803269716972
 1 -3.10761681318132 -1.34479484358436  2.04771656635664
 1 -1.98607917551755  1.33927387848785  1.57538703710371
 1 -2.14367188308831  0.06444386608661  3.81704843014301
 1 -2.85394869516952  1.74543918751875  3.99177827902790
 1 -3.92621320072007  0.23170387268727  3.71410025572557
 1 -2.28050750465047 -1.87179105680568 -0.21964882118212
 1 -2.21457739633963 -0.30222274797480 -0.68731739243924
 1 -0.42802712611261  0.23464759065907  1.23981001150115
 1 -0.39464247714771 -1.65480466046605  1.29077619661966
 1 -4.46941159855986  6.08701683928393  0.86558969696970
 1 -5.53604482328233  6.86058117681768  1.75708130513051
 1 -4.42550432743274  5.49378922832283  2.38303936453645
 1 -7.91681178007801  7.01401843554355  1.25066637293729
 1 -9.17271266406641  5.98529651515151 -1.31473086908691
 1 -9.63296757595760  7.56878216351635 -0.60572027612761
 1 -12.28890343774377  3.51599209770977 -0.04827722632263
 1 -11.85224414671467  3.89146411111111 -1.78766598409841
 1 -13.25611301130113  2.67014263246325 -1.47760080698070
 1 -12.74203902980298 -0.95046517281728 -0.84512908670867
 1 -13.44890563286329  0.42100176157616 -1.53359703700370
 1 -12.45724023902390  0.17420443554355 -3.85909475287529
 1 -11.79923613131313 -1.38970836723672 -3.22316311301130
 1 -13.77624569776978 -0.89679703780378 -3.46430028872887
 1 -10.17523507030703 -4.36018811071107 -0.57612341624162
 1 -9.37602951315131 -4.63424043754376 -2.17605812641264
 1 -8.94940664616462 -5.57691847174718 -0.70239489298930
 1 -3.92837856515652 -3.53078042934293 -0.50058311811181
 1 -2.12291915991599 -6.52287889158916  2.17960366436644
 1 -2.06890346204621 -5.04393413241324  3.22674712501250
 1 -3.51687274267427 -6.01083808380838  3.29629114931493
 1  2.68632042384239 -2.06208294939494 -1.30471760506051
 1  2.49571141404140 -0.24146558455846 -1.90901852115212
 1  4.30359179507951 -1.31894996549655  0.38958800320032
 1  5.16502176667667  2.08511620942094 -1.92451503890389
 1  5.53319028282828  0.70902685788579 -3.14113718081808
 1  3.77772425762576  1.05852865876588 -2.68229358625863
 1  6.46879697679768  1.49994313821382 -0.23343854425443
 1  6.21172899869987 -0.22535812111211  0.71613130723072
 1  7.15047570067007 -1.19814385978598 -1.10444529062906
 1  7.75928567966797  0.30551605620562 -1.91184004170417
 1  8.87015145674567  0.94062191369137  0.07478873737374
 1  8.54739746964697 -0.67660474747475  0.85228808170817
 1  10.20925779107911 -0.41765156685669 -1.77726844974497
 1  9.18632582018202 -2.60093875667567 -1.50027925342534
 1  10.86723358435844 -2.68661033743374 -1.04070981658166
 1  9.70566900870087 -2.65970784828483  0.28088456695670
 1  11.25229942004200  0.98097572137214  0.10325378797880
 1  11.34846241564156 -0.70088857435744  1.21504202590259
 1  12.72310881888189 -1.65185906490649 -0.64987843064306
 1  12.71561187778778 -0.29358663156316 -1.69610292879288
 1  13.57853888938894  1.11868226402640  0.26820199429943
 1  13.81987682318232 -0.26111906590659  1.25703527972797
 1  15.36448794619462  0.09885308510851 -1.43834048384838
 1  14.89573496849685 -2.28923720752075 -0.72446646714671
 1  16.73779051535154 -2.14712055155516 -0.52050344294429
 1  15.50314303190319 -2.45085470407041  0.79802250355036
 1  16.03292048364836  1.66029911861186  0.51794563816382
 1  16.44533085578558  0.18990279937994  1.32686468326833
 1  18.23374945224522 -0.32707118571857 -0.18922360706071
 1  17.58142086748675  0.90895385848585 -1.16405370997100
 1  18.19633133903390  2.73539226692669  0.66737323232323
 1  18.88149116331633  1.35293413021302  1.47534879047905
 1  20.57711594139414  0.68422915661566  0.24989792689269
 1  19.61401409860986  3.09771190329033 -1.38835380958096
 1  21.07894641184118  2.27778338213821 -1.97279260266027
 1  19.77955619141914  1.47296733333333 -2.17600278147815
 1  21.08734374747475  2.46293584388439  2.04297822562256
 1  22.00087392909291  2.38798691529153  0.46246814661466
 1  20.85914357705771  3.70583025352535  0.81352395679568
 1 -6.82426620912091  1.56256052805281 -0.00909765296530
 1 -7.39797116371637 -0.20835571117112 -0.07896121632163

