%nproc=4
%Mem=2GB
# td=(NStates=1) B3LYP/SVP 

TD

0 1
 6 -5.07796064656466 -1.89672947894790  0.35199382448245
 6 -4.85205136333633  2.74531476047605  1.56348302440244
 6 -9.28305754935493  3.31227742404240 -0.17660227642764
 6 -9.81291314241424 -1.38401999659966 -0.88640478587859
 7 -5.16814356235624  0.46630309140914  0.88551600960096
 6 -4.47925602320232 -0.71570055365537  0.79010509610961
 6 -2.94896665036504 -0.58906939043904  1.25632888228823
 6 -3.07565171757176  0.78892401000100  1.84822932833283
 6 -4.39821477957796  1.32813985938594  1.48220013141314
 6 -2.86534303220322  0.84424272527253  3.37667752575258
 6 -2.04077942074207 -0.68467348144814  0.03014962266227
 6 -0.55842423052305 -0.61123997879788  0.40225799089909
 6  0.39494400030003 -0.88627554485449 -0.74072993019302
 8  0.07491722762276 -1.42087177707771 -1.79261171577158
 8  1.65636071127113 -0.66042246074607 -0.32640763276328
 7 -7.02353553455345  2.76585132703270  0.59442003600360
 6 -5.93815799679968  3.44681141364136  1.09470359575958
 6 -6.18574984748475  4.82286036983698  0.98918046974697
 6 -7.42676574107411  4.98246956995700  0.45213044314431
 6 -8.02987843824383  3.58763736263626  0.23561489778978
 6 -5.22644180058006  5.75018880128013  1.51193719761976
 6 -8.15817240544054  6.27903762146215  0.29615466976698
 6 -9.06387391019102  6.71493078367837 -0.68207682398240
 7 -9.14829822912291  0.87303577817782 -0.52598957435744
 6 -9.78519029642964  2.07442074377438 -0.54769358005801
 6 -11.23130936893689  1.95541918141814 -0.91994606590659
 6 -11.44112955345535  0.59909395079508 -1.09389945154515
 6 -10.06813352175218 -0.03031008040804 -0.90248372877288
 6 -12.32191638883888  3.02250481958196 -1.07851228032803
 6 -12.71768186558656 -0.21679077747775 -1.55806804180418
 6 -12.74095856545655 -0.72077672407241 -3.03603078747875
 7 -7.39590271597160 -1.20597491199120 -0.43606995209521
 6 -8.53768975447545 -1.92738935313531 -0.71024795319532
 6 -8.16124973217322 -3.33605820732073 -0.69784352285229
 6 -6.83277530573057 -3.40511639593959 -0.23370547584758
 6 -6.41834037363736 -2.01366316541654 -0.12204004990499
 6 -8.99174315941594 -4.58485188518852 -0.96832933973397
 6 -5.84245036653665 -4.39092431933193  0.04953762336234
 8 -5.73685554165417 -5.56435294399440  0.12228914931493
 6 -4.54160976557656 -3.41782889558956  0.50650590019002
 6 -3.92900531533153 -3.84886858205821  1.85966785208521
 8 -4.26789940164016 -3.27306826272627  2.87665812981298
 8 -3.19500201590159 -4.98592887418742  1.64637038003800
 6 -2.88308183848385 -5.64885579087909  2.80249671997200
 6  2.67504754815482 -1.10987967856786 -1.30523472877288
 6  4.08747285708571 -0.68673329672967 -0.68860547374737
 6  5.03609590979098  0.12311135873587 -1.15704110871087
 6  4.97561807200720  0.85940978267827 -2.51697423642364
 6  6.29823353545355  0.31709433773377 -0.38869033213321
 6  7.48422264946495 -0.52747208030803 -0.99532688608861
 6  8.71745522252225 -0.31970717761776 -0.08903378327833
 6  10.00487234193419 -0.81283576617662 -0.76474745464546
 6  10.07892168556856 -2.39648481428143 -1.02038615331533
 6  11.25839651425142 -0.45014468506851  0.03096062806281
 6  12.68493707830783 -0.56037451585159 -0.66774465166517
 6  13.84049045624562 -0.01620432353235  0.21871823442344
 6  15.20925274637464 -0.18013104890489 -0.42815665146515
 6  15.60611793939394 -1.59692385428543 -0.81987172267227
 6  16.24694729192920  0.51913282448245  0.46268953335334
 6  17.67372421112111  0.67847358125813 -0.05799030683068
 6  18.63946379737974  1.49993861286129  0.79896858975898
 6  20.01914181008101  1.69461508680868  0.17384014441444
 6  20.13071400090009  2.70748017921792 -1.11704811381138
 6  20.93656412201220  2.19616335243524  1.30417681838184
 1 -4.17727589518952  3.33242962726273  1.99734197249725
 1 -10.04494207920792  4.27287672417242 -0.39347802170217
 1 -10.64096243614362 -2.15014102410241 -0.84721461536154
 1 -2.89055510701070 -1.44003436753675  1.91383317801780
 1 -2.28762933053305  1.32296224732473  1.27595709410941
 1 -1.78248576447645  0.68472589428943  3.66106283158316
 1 -2.93570687098710  2.05799044264426  3.61370047124712
 1 -3.59907048644865  0.10690139243924  3.73991283698370
 1 -2.32105155905591 -1.53774765246525 -0.24996185248525
 1 -2.35863180178018  0.03990146444644 -0.71503016371637
 1 -0.21161548494849  0.31457558345835  0.82384841534153
 1 -0.16657967086709 -1.23358253825383  1.30963808280828
 1 -4.16625128252825  5.67395553315331  0.91666480448045
 1 -5.57640885968597  6.69134425312531  1.08662425942594
 1 -5.23280505750575  5.57232708210821  2.61112217281728
 1 -7.62872297119712  6.95362239593959  1.17986929322932
 1 -9.20819621242124  6.01346933243324 -1.52073146914691
 1 -9.28278255745575  7.88008329362936 -0.70729043314331
 1 -12.34603915131513  3.38099859835984 -0.06299869846985
 1 -12.33129205150515  3.65016998169817 -2.01203842134213
 1 -13.17113451345135  2.50776639483948 -1.26590963786379
 1 -12.81232605850585 -1.11379150545054 -0.85276985078508
 1 -13.48585932823282  0.50869053045304 -1.38768244554455
 1 -12.79190370537054  0.13360037513751 -3.83477232063206
 1 -11.96011221892189 -1.44756415281528 -3.25067586428643
 1 -13.57633570677068 -1.23101045914591 -3.12235609430943
 1 -9.72437998479848 -4.79235132703270 -0.01119692359236
 1 -9.74503641384138 -4.29327634113411 -1.84360488108811
 1 -8.13099480498050 -5.27055783568357 -1.06422107560756
 1 -3.93597932523252 -3.83375072637264 -0.40820388018802
 1 -2.27848471647165 -6.40141674537454  2.53584928892889
 1 -2.27865443714371 -4.86851659065907  3.37740219051905
 1 -3.77034809020902 -5.89198619861986  3.43674519471947
 1  2.57013880568057 -2.17525426652665 -1.43456058935894
 1  2.32180402330233 -0.77065850385039 -2.34114173347335
 1  4.53066450235023 -1.19889796029603  0.23967301170117
 1  5.09790505500550  2.00231792959296 -2.47256984438444
 1  5.55270223402340  0.27279323452345 -3.25748881598160
 1  4.02894938013801  0.64229703560356 -3.18160351725172
 1  6.63635373247325  1.43443658755876 -0.71070627102710
 1  6.25389321512151  0.21647606230623  0.76306600070007
 1  7.24766541964196 -1.66827087248725 -1.03823866996700
 1  7.72218196929693 -0.22056655205521 -1.98867772547255
 1  9.12665710731073  0.73942179367937  0.09323058155816
 1  8.49036176607661 -0.67829491649165  0.78482133503350
 1  10.19601646694669 -0.32957275897590 -1.61655237813781
 1  9.06673386098610 -2.73822248504850 -1.37153637913791
 1  10.88605546654665 -2.50205188158816 -1.62583832943294
 1  10.28726716851685 -3.11773365086509 -0.10978449994999
 1  11.35524971507151  0.71838946274628  0.36011947454745
 1  11.29906747614761 -1.19118760426043  0.97815833753375
 1  12.89014552255225 -1.77287116611661 -0.88108155095510
 1  12.76263658025803 -0.07337461036104 -1.61177449594959
 1  13.61871290679068  1.10658105390539  0.43447862196220
 1  13.70501533703370 -0.42912586658666  1.31841141734173
 1  14.97777927532753  0.69786298609861 -1.31201785158516
 1  14.97833322832283 -2.06525480928093 -1.62369639013901
 1  16.59097583388339 -1.70432627212721 -1.30946233883388
 1  15.89532224982498 -2.24144376297630  0.02711541284128
 1  15.80553774537454  1.42804589328933  0.80743458705871
 1  16.28140446314632 -0.06775296619662  1.37223922072207
 1  17.99117519481948 -0.29555803440344 -0.42476716141614
 1  17.79009173457346  1.09279224232423 -1.13738104270427
 1  18.17022872877288  2.63537226492649  0.97315381038104
 1  18.84509752395240  1.09362819961996  1.79766102170217
 1  20.44184241404140  0.68998973267327 -0.22380944384438
 1  19.90238293549355  3.83008514061406 -0.75377035123512
 1  21.20178869606961  2.75166076987699 -1.53038836223622
 1  19.51528976477648  2.42894293089309 -1.86271145234523
 1  20.92403741684168  1.48944849514951  2.06679060686069
 1  21.99392323402340  2.21661977857786  1.07500940074007
 1  20.56169383208321  3.21711138163816  1.63626623102310
 1 -6.86140992349235  1.76201047304731  0.35278853565357
 1 -7.47266863346335 -0.12505738133813 -0.30628394859486

