%nproc=4
%Mem=2GB
# td=(NStates=1) B3LYP/SVP 

TD

0 1
 6 -5.06129898039804 -2.04751455745575  0.43475210031003
 6 -4.71459761796180  2.75650587958796  1.39831650775077
 6 -9.21347059065907  3.38662485878588 -0.33517813401340
 6 -9.82421427252725 -1.34661625622562 -0.87908405380538
 7 -5.14556130413041  0.39596605770577  0.72357981598160
 6 -4.48574667226723 -0.88032701630163  0.82660874647465
 6 -3.04655640934093 -0.58416890039004  1.26312956235624
 6 -3.12637679007901  0.74940005760576  1.83505801120112
 6 -4.41504646274627  1.36746379177918  1.32456436783678
 6 -2.99839633753375  0.86586488748875  3.45079493749375
 6 -1.99246458925893 -0.93156817091709  0.06289289698970
 6 -0.57194558265827 -0.88362721752175  0.49544730983098
 6  0.32450695659566 -1.18589550685069 -0.65786164336434
 8  0.10474020992099 -1.82090178007801 -1.69018147274727
 8  1.64917999319932 -0.74355077357736 -0.33282827482748
 7 -6.94533771477148  2.72932767466747  0.42058265226523
 6 -5.84440862186219  3.36143287578758  1.05508963436344
 6 -6.17531880438044  4.85469355315532  1.14634618631863
 6 -7.42026509100910  4.97748907190719  0.52095732583258
 6 -7.90972642304231  3.70171877077708  0.12301363766377
 6 -5.16409556595660  5.77087086948695  1.65716172007201
 6 -8.13289987818782  6.33721343904390  0.58227328162816
 6 -8.89988751155115  6.73868315891589 -0.39290790709071
 7 -9.07050044934494  0.97379585418542 -0.55573254865487
 6 -9.73894567196720  2.14341764346435 -0.62787159785979
 6 -11.17037327532753  2.00565420492049 -1.05896996829683
 6 -11.34284972547255  0.74319836123612 -1.16701676327633
 6 -9.99643635203520 -0.01147819721972 -0.88218169856986
 6 -12.08366256345635  3.13012558165817 -1.32537696679668
 6 -12.60855095249525 -0.06515561396140 -1.55489772477248
 6 -12.76054052365237 -0.39447409380938 -3.08270545494549
 7 -7.56345947164716 -1.34161847634763 -0.14330067516752
 6 -8.60796678217822 -1.95231184538454 -0.57400432883288
 6 -8.23160676787679 -3.38198279977998 -0.68900263876388
 6 -6.93952598079808 -3.57358324262426 -0.13441554685469
 6 -6.53173171277128 -2.14297609670967  0.00789294339434
 6 -9.16379036413641 -4.54001740174017 -0.91349385618562
 6 -5.80202632413241 -4.32862808970897  0.14874754435444
 8 -5.67642949904991 -5.60869737843784  0.02984990539054
 6 -4.51940754535454 -3.39174628732873  0.47575282488249
 6 -4.00158257305731 -3.87826152135214  1.80284216951695
 8 -4.31483409510951 -3.41987294319432  2.83487395139514
 8 -3.13582609830983 -4.95700598189819  1.57278302130213
 6 -2.79123265356536 -5.59388029332933  2.82398886918692
 6  2.60603064646465 -1.09788847944794 -1.30452465776578
 6  4.00051416121612 -0.67765238863886 -0.64418103130313
 6  4.98071037123712 -0.02166311871187 -1.28747415201520
 6  4.90766127632763  0.44107794949495 -2.81052359135914
 6  6.26894060616062  0.35844847314731 -0.51212267536754
 6  7.51288551575157 -0.39179851295130 -1.08365571897190
 6  8.72449592659266 -0.12375758265827 -0.26900178007801
 6  10.06172802750275 -0.63952843544354 -0.91766274617462
 6  10.04194798819882 -2.11798696449645 -1.14149826452645
 6  11.19448012261226 -0.21611128172817  0.01483901590159
 6  12.59572815741574 -0.42324080248025 -0.53450132733273
 6  13.78243465066507  0.10682797969797  0.42828919151915
 6  15.19256107720772 -0.09014205000500 -0.21814565036504
 6  15.47430475807581 -1.57325148704870 -0.37660739623962
 6  16.32271486868687  0.63351426262626  0.63808707310731
 6  17.67217405610561  0.70307604150415 -0.21222573037304
 6  18.60277012801280  1.55465408440844  0.67675636853685
 6  20.08692858875888  1.70196582188219  0.11972473287329
 6  20.20459138863886  2.37626705790579 -1.17701411041104
 6  20.92962342794279  2.37307104320432  1.21860826152615
 1 -3.99335750335034  3.32003838813881  1.81413365166517
 1 -9.92089967496750  4.36392582908291 -0.36605527942794
 1 -10.83892223212321 -1.96065207520752 -1.29382927682768
 1 -2.77564361586159 -1.37430779487949  2.17151894659466
 1 -2.30620118771877  1.42888283938394  1.49706920532053
 1 -2.05410292619262  0.55982340404040  3.68310503580358
 1 -3.38950225052505  1.93131777537754  3.76801590279028
 1 -3.72781336073607  0.26436713901390  3.82491133683368
 1 -2.60121957585759 -1.85716959465947 -0.38693554985498
 1 -2.34425036363636 -0.23958648434843 -0.75710437113711
 1 -0.41343566696670  0.06009013491349  1.00394642514251
 1 -0.65886889978998 -1.66156533653365  1.12115923492349
 1 -4.24852951035103  5.75623376097610  0.93307644564457
 1 -5.55620683948395  6.83179829852985  1.71140673767377
 1 -4.70508228522852  5.75719556895690  2.74509557015702
 1 -7.79235933483348  7.06565359905990  1.49844115041504
 1 -9.17707310011001  6.20961894739474 -1.28487788378838
 1 -9.42543682288229  7.78060334563456 -0.43186289038904
 1 -12.41625617301730  3.72484298279828 -0.33635603420342
 1 -11.76150507280728  3.83206817151715 -1.99101631913191
 1 -13.11603900390039  2.90729634783478 -1.84564761166117
 1 -12.66361118701870 -0.90618074437444 -0.87045161896190
 1 -13.47100784308431  0.43429309070907 -1.21751542884288
 1 -12.39960447544754  0.49816683178318 -3.73374221762176
 1 -11.94176038373837 -0.93992338873887 -3.40832162886289
 1 -13.54114218741874 -0.89376673477348 -3.18592245094509
 1 -10.13864141094109 -4.40117220912091 -0.26383218711871
 1 -9.56108801900190 -4.25017203070307 -1.85363588418842
 1 -8.54009571507151 -5.61235201510151 -0.71024567806781
 1 -3.68394412171217 -3.46284363566357 -0.15991905170517
 1 -2.18839570757076 -6.41417802150215  2.27432313631363
 1 -2.02769934163416 -4.88428816781678  3.56667111741174
 1 -3.54272532793279 -6.05948294829483  3.35342686288629
 1  2.63093488528853 -2.36616335743574 -1.54550168346835
 1  2.50012185508551 -0.59206064406441 -2.28855647494749
 1  4.10357179307931 -1.23679174967497  0.36885592999300
 1  4.82679794429443  1.49109680748075 -2.67643023042304
 1  5.62140910471047 -0.01980602540254 -3.57445051215121
 1  3.83833031823182  0.44317712361236 -3.21895725262526
 1  6.49682978007801  1.52413555745575 -0.73968916931693
 1  6.14365219101910  0.12785720042004  0.59509920402040
 1  7.25937659075908 -1.36565061046105 -1.11222606870687
 1  7.66564631573157  0.11317682228223 -2.03779263696370
 1  8.77936237783778  1.05443329482948 -0.20051879337934
 1  8.66192892279228 -0.44113120012001  0.67873072597260
 1  10.22438930423042  0.08455865416542 -1.87000772367237
 1  9.37095428302830 -2.47061572437244 -1.88559778527853
 1  11.07320418141814 -2.38613028942894 -1.38477422302230
 1  9.95446388818882 -2.61371324882488  0.10105658415842
 1  10.92554674477448  0.82056968076808  0.57984144674467
 1  11.18281585098510 -0.84223270877088  0.98717923962396
 1  12.68294480248025 -1.58158203720372 -0.64783822662266
 1  12.76217653425342  0.14549727682768 -1.57163048154815
 1  13.56097713321332  1.09641003680368  0.58907408150815
 1  13.74779961546155 -0.49093204720472  1.32983255945595
 1  15.01876337373737  0.37107030683068 -1.26151280108011
 1  14.77136253125313 -2.21705998979898 -1.00590461096110
 1  16.33985072137214 -1.79909574907491 -0.88688008060806
 1  15.43432615021502 -1.76720633923392  0.65651835313531
 1  16.01272846444644  1.66180926962696  0.77454129772977
 1  16.52044836753675  0.21178498759876  1.56609860666067
 1  18.16098217551755 -0.30914939353935 -0.59873455815582
 1  17.45773849924992  1.42641560466047 -1.31530883548355
 1  18.22589429532954  2.73256198389839  0.67574406940694
 1  18.65552856705671  1.20247908470847  1.57697895349535
 1  20.50298852865287  0.64864559825983  0.17254019111911
 1  19.61306400360036  3.29608174027403 -1.17304227842784
 1  21.25849436663666  2.53794939873987 -1.41659698309831
 1  19.89417765356536  1.82078211481148 -2.06816199739974
 1  21.04621963506351  1.56239578987899  2.00601452925293
 1  22.03802764446445  2.44221233783378  0.77419931973197
 1  20.75059272197220  3.49724939543954  1.33528613301330
 1 -7.10392417491749  1.67778205020502  0.29260251705171
 1 -7.33858522512251 -0.41725660126013 -0.08665198539854

