%nproc=4
%Mem=2GB
# td=(NStates=1) B3LYP/SVP 

TD

0 1
 6 -5.14780763126313 -1.94375418141814  0.46810543564356
 6 -4.72365852405241  2.72893312231223  1.30797747384738
 6 -9.31570081368137  3.31641783808381 -0.29894451065107
 6 -9.79697154825483 -1.37555915051505 -1.03100924632463
 7 -5.20229697769777  0.35891235233523  0.79823728172817
 6 -4.54700279787979 -0.74330331393139  0.82736882248225
 6 -3.08589034273427 -0.58880936443644  1.29398264766477
 6 -3.07380153255326  0.88605372297230  1.93140764616462
 6 -4.43533849194919  1.39631667706771  1.38518042944294
 6 -3.00628712661266  0.95956425742574  3.42865272327233
 6 -2.04613995679568 -0.78236325042504  0.14536114381438
 6 -0.65717410551055 -0.86705556035604  0.70044780988099
 6  0.44081858775878 -1.07330424772477 -0.47769362656266
 8  0.12691242714271 -1.63072276217622 -1.52571502610261
 8  1.70144521972197 -0.75727214571457 -0.09043403540354
 7 -7.07900108110811  2.86782152405241  0.58272886688669
 6 -5.92225640664066  3.43586031853185  0.98827295269527
 6 -6.05900717321732  4.80183826762676  1.09833138483848
 6 -7.49129219371937  5.02340366336634  0.67040227032703
 6 -8.01469692009201  3.66798539743974  0.16996833313331
 6 -5.17515667206721  5.85183896629663  1.61216722062206
 6 -8.19649623782378  6.25641535923592  0.45674072837284
 6 -9.10825834863486  6.60380967156716 -0.39110772707271
 7 -9.20973437273727  0.91424989958996 -0.55365234063406
 6 -9.81981375877588  2.12523582528253 -0.60902971367137
 6 -11.21515775377538  1.87439107860786 -1.01687575887589
 6 -11.37252269276928  0.63227726912691 -1.27640770237024
 6 -10.11216792519252 -0.04777182658266 -0.92069554995500
 6 -12.13760795799580  2.97325989508951 -1.19918434753475
 6 -12.52834293169317 -0.19283838223822 -1.77780001500150
 6 -12.57145161476148 -0.50764541094109 -3.33769095349535
 7 -7.52117524322432 -1.24757907240724 -0.18693503860386
 6 -8.61396738223822 -2.00662727692769 -0.62416934533453
 6 -8.29803341054105 -3.41352595409541 -0.69891362986299
 6 -6.88687071527153 -3.41343722802280 -0.27450955625563
 6 -6.42056059565957 -2.04020581968197  0.01771392549255
 6 -9.05229921502150 -4.63118651865187 -0.92762526932693
 6 -5.72790891239124 -4.25910113701370  0.03390606020602
 8 -5.75082693879388 -5.48533504220422  0.03834075447545
 6 -4.56034163876388 -3.30886799949995  0.43055830543054
 6 -3.86963937873787 -3.88051174637464  1.61194307960796
 8 -3.98860147184718 -3.38687964386439  2.76333679767977
 8 -3.07740025572557 -4.97650793209321  1.44106984998500
 6 -2.57943147344734 -5.57456836213621  2.65667213751375
 6  2.75245528892889 -1.14901359195920 -1.11103530883088
 6  3.95605971577158 -0.66828145154515 -0.52985959915992
 6  4.85425772597260  0.11614066166617 -1.15105050965097
 6  4.70059056925693  0.65803964566457 -2.60688322732273
 6  6.17943165526553  0.51265389368937 -0.40888235133513
 6  7.40236446364636 -0.34110344344434 -1.02162951635163
 6  8.68139161616162 -0.03742894979498 -0.23178805870587
 6  9.99504135883588 -0.66121060366037 -0.76429740964096
 6  9.99211300470047 -2.15535070087009 -0.93699781448145
 6  11.18499917451745 -0.22725239583958  0.13302083408341
 6  12.58544712931293 -0.55011348974897 -0.51527940514051
 6  13.75842224942494  0.02840013691369  0.29462582518252
 6  15.22342416351635 -0.11631466726673 -0.32718655445545
 6  15.60827815541554 -1.67526168806881 -0.40460019551955
 6  16.25175777297730  0.67972888408841  0.41336460086009
 6  17.70137697639764  0.57728346224622 -0.16634114191419
 6  18.73682353335333  1.52547116611661  0.53230192309231
 6  20.08471836773677  1.55175080038004  0.02803556395640
 6  20.25443637313732  2.23432286348635 -1.36453286228623
 6  21.05416588218822  2.18042177827783  1.02464886558656
 1 -3.96031419901990  3.33466985128513  1.44016625492549
 1 -9.95226281128113  4.17958739523952 -0.62898157205721
 1 -10.70988932883288 -2.13009901990199 -1.06166606050605
 1 -2.76495254675468 -1.29877024112411  1.98215000970097
 1 -2.26691725932593  1.33409336043604  1.41510100850085
 1 -1.90134765066507  0.45772319401940  3.74789151445145
 1 -3.20306360666067  2.01997664126413  3.71790089128913
 1 -3.82251283068307  0.11936263856386  3.88220706640664
 1 -2.23635308920892 -1.68151202890289 -0.36806366266627
 1 -2.02984892349235  0.07605507980798 -0.50680934163416
 1 -0.17856217961796 -0.01355722982298  1.08307433793379
 1 -0.67721073397340 -1.57498667866787  1.46802392139214
 1 -4.10244490189019  5.68715685328533  1.34590772877288
 1 -5.53101432023202  6.89049416811681  1.49405500250025
 1 -4.97044882188219  5.60975082448245  2.69086014661466
 1 -7.71011111001100  7.06531356505651  1.00905221152115
 1 -9.43595898869887  5.89826781228123 -1.06259565556556
 1 -9.45316959615961  7.54281956725673 -0.35515521962196
 1 -12.07220176757676  3.84744524302430 -0.31492389098910
 1 -12.10999992229223  3.42841780648065 -2.35424264176418
 1 -13.29476687668767  2.55867148534854 -1.25002804970497
 1 -12.25111993789379 -1.15951607790779 -1.32552712651265
 1 -13.58435917821782  0.07802746414641 -1.49271294859486
 1 -12.41263577857786  0.29225624072407 -3.94249309270927
 1 -11.83084929262926 -1.22401179757976 -3.65001579827983
 1 -13.33239131233123 -1.06814417251725 -3.40633449214921
 1 -9.90372791959196 -4.95062715461546 -0.11810761466147
 1 -9.50784269446945 -4.69416643014301 -1.94522504310431
 1 -8.31059276477648 -5.44302508240824 -0.90018467196720
 1 -3.97370309760976 -3.32188954025403 -0.50911397119712
 1 -2.15493236123612 -6.57245384908491  2.31094679867987
 1 -1.83476004770477 -4.83594333333333  3.11253570387039
 1 -3.43305436083608 -5.76900390039004  3.11755327552755
 1  2.52099389118912 -2.17226396749675 -1.36317345064506
 1  2.60947279017902 -0.68549998799880 -2.17642526182618
 1  3.90620205610561 -0.78241631213121  0.56639568396840
 1  4.88404366886689  1.78505620342034 -2.75669825722572
 1  5.57369433323332  0.17604355955596 -3.02932599969997
 1  3.78362484768477  0.49320212611261 -2.94794015091509
 1  6.62176227332733  1.61386453035304 -0.70842604300430
 1  6.15182300810081  0.33463787848785  0.75485517961796
 1  7.10473112621262 -1.47182122752275 -0.76489133523352
 1  7.60719047014701 -0.14267876327633 -2.06970582828283
 1  8.81520596219622  1.17640549204920 -0.08289703120312
 1  8.87797052695270 -0.22991007800780  0.80172302520252
 1  10.12481934723472 -0.26090589228923 -1.69528025092509
 1  9.15970315791579 -2.48282694549455 -1.40259948544854
 1  10.83841070207021 -2.66346802320232 -1.42743848944895
 1  9.92958139993999 -2.40735261276128 -0.03348687018702
 1  11.12183637373737  0.80136776057606  0.30131359395940
 1  11.19225679507951 -0.54511299679968  1.14069459115912
 1  12.64954146214622 -1.66107998699870 -0.83004644744474
 1  12.69270958755876 -0.33711098399840 -1.63019633813381
 1  13.51894292979298  1.11294168996900  0.53238841294129
 1  13.79261409690969 -0.61355430943094  1.24817439363936
 1  15.15895739313931  0.51567476727673 -1.29889653945395
 1  15.15106050105011 -2.04925320912091 -1.47843186368637
 1  16.81982871917192 -1.70387622712271 -0.55539693229323
 1  15.11926464406441 -2.18399801840184  0.54912761406141
 1  16.01229842144214  1.67202029072907  0.46764060766077
 1  16.28100442314231  0.37114092319232  1.51561355815582
 1  18.09738581588159 -0.45191366996700 -0.04725941064106
 1  17.70646337173717  1.07046000910091 -1.39110641524152
 1  18.30988269416942  2.61980070777078  0.48826532153215
 1  18.55442845704571  1.28117695449545  1.55248650425042
 1  20.40523875367537  0.33248398209821  0.03983692079208
 1  19.98230092729273  3.25376750885089 -1.14088906310631
 1  21.32240075727573  2.24965056885689 -1.70552587598760
 1  19.71516975277528  1.79805984258426 -2.12708788998900
 1  20.95921093419342  1.61928147844784  2.02121604940494
 1  22.12205604730473  2.28440655725573  0.67657955775578
 1  20.88662632533254  3.26243591409141  1.11468407280728
 1 -7.24084786728673  1.80989526152615  0.21628488528853
 1 -7.56766813341334 -0.23204808040804 -0.04174749494950

