%nproc=4
%Mem=2GB
# td=(NStates=1) B3LYP/SVP 

TD

0 1
 6 -5.13558640914091 -1.97678748474847  0.51485011011101
 6 -4.69165532373237  2.67131736073607  1.39978665476548
 6 -9.15319456305630  3.43667986428643 -0.26938155435544
 6 -9.82039389048905 -1.31458305290529 -0.88715486088609
 7 -5.14062081008101  0.44801126222622  0.85216267426743
 6 -4.55469356695670 -0.73419240284028  0.76615270087009
 6 -3.08473022672267 -0.62448293179318  1.19905315471547
 6 -2.95559971237124  0.79349446704670  1.90195470087009
 6 -4.34976993509351  1.34108115351535  1.28005991739174
 6 -3.13704020192019  0.77901620262026  3.38562842084208
 6 -2.07639298209821 -0.85729074317432  0.04604121182118
 6 -0.63069145724572 -0.87252610741074  0.54975274037404
 6  0.26962146804680 -1.23886080338034 -0.62828868606861
 8  0.02256199209921 -1.74878456835684 -1.71146360096010
 8  1.59322439763976 -0.94699111761176 -0.30685567756776
 7 -6.88916209720972  2.79535427732773  0.43489408340834
 6 -5.86613079407941  3.34018075057506  1.03240736613661
 6 -6.05351662416242  4.73301138493849  0.97541909360936
 6 -7.35123818831883  5.05142646564656  0.45855108520852
 6 -7.92610806120612  3.68336693559356  0.23236457275728
 6 -5.00890004640464  5.75469925232523  1.51815781968197
 6 -7.91069765796580  6.32108182588259  0.19386444074407
 6 -8.96690421322132  6.69627891849185 -0.60354897119712
 7 -9.15054845414542  0.98833730833083 -0.38232520792079
 6 -9.80489226662666  2.16571987368737 -0.53435224592459
 6 -11.20784702270227  2.00852449194920 -0.93338741004100
 6 -11.40426586708671  0.60537457885789 -0.96579664126413
 6 -10.13353006140614  0.06359931053105 -0.81590507090709
 6 -12.18942313951395  3.07668023712371 -1.22030645974597
 6 -12.53355345274528 -0.12311140954095 -1.56820905590559
 6 -12.69322379197920 -0.32420706710671 -3.05674285868587
 7 -7.42084521022102 -1.27323163766377 -0.23563990909091
 6 -8.61666765226523 -1.97329394359436 -0.60366729512951
 6 -8.31771537873787 -3.45076967846785 -0.61078481698170
 6 -6.90497252545255 -3.43065895019502 -0.22573467876788
 6 -6.50791933153315 -2.09987178627863 -0.01944979087909
 6 -9.17230121522152 -4.59088248824882 -0.90854336113611
 6 -5.83766988848885 -4.31686691359136  0.12101477107711
 8 -5.83868572467247 -5.53406991569157  0.27389430983098
 6 -4.50158576317632 -3.46084319701970  0.46052130173017
 6 -3.93838625342534 -3.90838453365337  1.80210209550955
 8 -4.36246885858586 -3.61970292619262  2.89848031203120
 8 -3.02833534923492 -4.84730501180118  1.60909665266527
 6 -2.67686121642164 -5.59787069236924  2.72038850915091
 6  2.51875191859186 -1.13370206080608 -1.31779598489849
 6  3.86602071187119 -0.76832145554555 -0.72990960416042
 6  4.81857415761576  0.05602465006501 -1.10335574017402
 6  4.86502701290129  0.77223106480648 -2.40967350635063
 6  6.15750946304630  0.12600522882288 -0.39979144224422
 6  7.60397462466247 -0.22537187028703 -1.20032738613861
 6  8.76273975097510 -0.24977018391839 -0.14003888378838
 6  10.07292914761476 -0.61868635123512 -0.96465744564456
 6  10.05325911931193 -2.19793495929593 -1.50774488918892
 6  11.36748742334233 -0.23148281888189 -0.21530399839984
 6  12.67055564016402 -0.46293477187719 -0.88210608780878
 6  13.77556396359636  0.03548084498450  0.10233659625963
 6  15.25065688678868 -0.12004504030403 -0.36830066586659
 6  15.71009833743374 -1.66914107600760 -0.22738247374737
 6  16.20649324652465  0.76066697789779  0.36014927932793
 6  17.66178301700170  0.95705143904390 -0.21732624042404
 6  18.52571242224222  1.70906952595260  0.79950864376438
 6  20.11219111501150  1.66596222152215  0.38666142654265
 6  20.35509643914392  2.31245067626763 -0.97473388238824
 6  20.88039850545055  2.42219595569557  1.51481788248825
 1 -3.73912207980798  3.30785717001700  1.77049928822882
 1 -9.83332091709171  4.27279671617162 -0.21044971887189
 1 -10.73134147404741 -1.96778278827883 -1.00326021992199
 1 -3.06772282378238 -1.36181654575458  1.90015180988099
 1 -2.16343691129113  1.28843879497950  1.49852935133513
 1 -2.14535205110511  0.13857127882788  3.83823054835484
 1 -3.35042834313431  1.68648329192919  3.94406350755076
 1 -4.01854243364336  0.25531623392339  3.75394424012401
 1 -2.40185963986399 -1.94644852255226 -0.33669052535253
 1 -2.20114605320532 -0.26413893959396 -0.50595925662566
 1 -0.51998632203220  0.07775190109011  1.13069910041004
 1 -0.53586659955996 -1.65350453045305  1.29974709370937
 1 -3.90077473487349  5.54046218381838  1.09990312831283
 1 -5.36124734353435  6.66707182588259  1.34273987098710
 1 -4.98026980398040  5.66463631303130  2.58933999459946
 1 -7.82033213211321  7.21314834853485  0.93017432373237
 1 -9.34093948674867  5.95465345084508 -1.51766116211621
 1 -9.27622190139014  7.69548483378338 -0.63399310341034
 1 -12.53288783618362  3.70249074757476 -0.21426382498250
 1 -11.77826674897490  3.87797276197620 -1.94209142664266
 1 -13.23228062806281  2.62560817901790 -1.51775482238224
 1 -12.92292711861186 -1.08763889018902 -1.06094066786679
 1 -13.47116785908591  0.63876353775378 -1.19112278957896
 1 -12.51329584458446  0.57427444254425 -3.49980882428243
 1 -11.84211041874187 -0.91679107550755 -3.68529932663266
 1 -13.73747182038204 -0.84618197629763 -3.77086094479448
 1 -9.94129167596760 -4.62770486238624 -0.18087389128913
 1 -9.57222913311331 -4.48125513901390 -1.98667918851885
 1 -8.58120982648265 -5.53910469036904 -1.00477513101310
 1 -3.90516624392439 -3.46891424272427 -0.45206826662666
 1 -2.18527539553955 -6.45886248994900  2.29770547454745
 1 -1.69775634733473 -5.08559829882988  3.24412886318632
 1 -3.55711676707671 -5.69250625062506  3.21195271547155
 1  2.34654644644464 -2.23708044914491 -1.82971010431043
 1  2.51531337423742 -0.64922636063606 -2.22334995429543
 1  3.91319275517552 -1.37859593009301  0.37079612401240
 1  4.81642690719072  1.89647734553455 -2.12796538393839
 1  5.76056302010201  0.33260921612161 -3.00911397849785
 1  3.98844532973297  0.41551435733573 -3.23635899279928
 1  6.13215331243124  1.27484062796280  0.11595639523952
 1  6.04908273407341 -0.45045063036304  0.48148784288429
 1  7.35588624172417 -1.22008605400540 -1.70735558165817
 1  7.64469422052205  0.37420292489249 -2.19709856755676
 1  8.62475691729173  0.67324517601760  0.33780503900390
 1  8.49672240214021 -1.02209929692969  0.54467732063206
 1  10.08806567186719  0.05301549984999 -1.94055477837784
 1  9.06039322692269 -2.31234989778978 -1.94071329682968
 1  10.61395825682568 -2.47075875227523 -2.35069081468147
 1  10.11428987078708 -2.92991486898690 -0.60713423492349
 1  11.17881207130713  0.87316494029403  0.11023448604860
 1  11.45434300370037 -1.07283576907691  0.64144466616662
 1  12.79248575657566 -1.43743762276228 -1.14771821462146
 1  12.70602091869187 -0.01918919181918 -1.66856017451745
 1  13.74231526702670  1.25450584638464 -0.08923374927493
 1  13.64831966746675 -0.23269622362236  1.24485406160616
 1  15.43916541394139  0.17932113191319 -1.28132478227823
 1  14.87949334433443 -2.42557084088409 -0.66409042954295
 1  16.76380311661166 -1.96009184868487 -0.46877827042704
 1  15.92531524912491 -1.94919453805380  0.83464616591659
 1  15.76651384298430  1.82544563326333  0.38530237383738
 1  16.30106642934294  0.65514932403240  1.53719571637164
 1  18.04200027732773 -0.06171465006501 -0.48244292899290
 1  17.49481220662066  1.43202616571657 -1.10513781838184
 1  18.37295900180018  2.80698942664266  0.78526502150215
 1  18.50880389458946  1.34259309610961  1.81593284888489
 1  20.52534076387639  0.65085581928193  0.21662459955996
 1  20.22395509270927  3.39632176427643 -1.09054402860286
 1  21.44428294549455  2.32296790059006 -1.10455577897790
 1  19.84405264106411  1.67148718531853 -1.87159234043404
 1  21.07618263136314  1.88395794609461  2.45519944774477
 1  21.99138297999800  2.73125124172417  1.03125502530253
 1  20.62127979067907  3.55252492299230  1.52587519191919
 1 -7.12814659715972  1.64985925792579  0.45479873667367
 1 -7.28410977757776 -0.29304418001800  0.06565324512451

