%nproc=4
%Mem=2GB
# td=(NStates=1) B3LYP/SVP 

TD

0 1
 6 -5.11318416891689 -1.94445425142514  0.47128575367537
 6 -4.66566272447245  2.74275450445045  1.65979265536554
 6 -9.15003424702470  3.21656785308531 -0.36386100230023
 6 -9.82920477157716 -1.50279187378738 -1.02180832623262
 7 -5.11098784678468  0.41794825592559  0.92316977497750
 6 -4.51019911751175 -0.75065404900490  0.95158124372437
 6 -3.01759351305131 -0.60285076857686  1.45141839123912
 6 -3.12191634403440  0.81461657925793  2.09738424382438
 6 -4.38075303340334  1.39203624902490  1.52810472187219
 6 -3.01684818271827  0.85556385738574  3.52704256225623
 6 -2.17492283508351 -0.65754076817682  0.18823543124312
 6 -0.65341372947295 -0.70528938373837  0.70206797189719
 6  0.33987849374938 -0.93888080538054 -0.49507536473647
 8  0.07965770167017 -1.39573926382638 -1.60245269986999
 8  1.60170524572457 -0.75305172367237 -0.07849284128413
 7 -6.95026820782078  2.69184392629263  0.58618921292129
 6 -5.86777095809581  3.30140687318732  1.16488061346135
 6 -6.15755702820282  4.74279236303630  1.25129668136814
 6 -7.38967203170317  4.92708403140314  0.63453868396840
 6 -7.77459290969097  3.54723332223222  0.06969830613061
 6 -5.22116127252725  5.77906168856886  1.88556456035604
 6 -8.18532512071207  6.22914263196320  0.46754180848085
 6 -8.91649917271727  6.64990428102810 -0.52201081738174
 7 -9.09534293359336  0.83863233783378 -0.61248822422242
 6 -9.79607138453845  2.06509981168117 -0.80173898459846
 6 -11.13584982298230  1.88839247874787 -1.22841691299130
 6 -11.33768920942094  0.57560160156016 -1.40308036963696
 6 -10.04813152155216 -0.10661771117112 -0.95833931433143
 6 -12.24452865006501  2.97976054515452 -1.28792322142214
 6 -12.51503160056006 -0.16294539293929 -2.00738297329733
 6 -12.49851432103210 -0.19259390579058 -3.62761994639464
 7 -7.44287741344134 -1.22333664816482 -0.17231357645765
 6 -8.62649863536354 -2.08609522372237 -0.74097102550255
 6 -8.16427003420342 -3.46134073557356 -0.77077081558156
 6 -6.86429845804580 -3.44268015231523 -0.16465857115712
 6 -6.40729926952695 -2.05878767786779  0.11796395049505
 6 -8.94700868596860 -4.56684008400840 -1.13231573837384
 6 -5.74112023352335 -4.26907213411341  0.09334200380038
 8 -5.55591744784479 -5.47406391509151 -0.02117519711971
 6 -4.55520112471247 -3.33952106480648  0.45243049264926
 6 -4.00256267106711 -3.78527222242224  1.74483636893689
 8 -4.10728334003400 -3.38078903480348  2.86928739273927
 8 -3.23783629932993 -4.94674495579558  1.59244498749875
 6 -2.85763929422942 -5.74440534583458  2.74781125142514
 6  2.58481852525253 -0.93857254785479 -1.06612081738174
 6  3.93975808560856 -0.45867049044904 -0.53674028722872
 6  5.00388268846885  0.13656270387039 -1.23104850945095
 6  4.83415392559256  0.71791563326333 -2.62459499849985
 6  6.23074678677868  0.44408703700370 -0.44471593469347
 6  7.48452267946795 -0.20022935603560 -1.01260861426143
 6  8.80251372837284 -0.00731593849385 -0.13221810171017
 6  10.03483533823382 -0.82842732533253 -0.70246122602260
 6  9.73962775617562 -2.36720188598860 -0.56870098479848
 6  11.23408408300830 -0.31205087568757  0.06151368336834
 6  12.57502608720872 -0.64558303670367 -0.48615649284928
 6  13.80002640984098 -0.09461216431643  0.30233659625963
 6  15.16486830793079 -0.30467350315032 -0.29760359615962
 6  15.51169849744974 -1.73859802170217 -0.38626836233623
 6  16.17518011521152  0.59785069626963  0.34640790519052
 6  17.55640247894789  0.70931666556656 -0.33980848864886
 6  18.56265611661166  1.59604822382238  0.48877757065707
 6  20.09110900680068  1.60466609190919 -0.05947318691869
 6  20.18726965646565  1.98064749594959 -1.54501091009101
 6  20.93756422202220  2.69078281438144  0.77521392209221
 1 -3.91240940854086  3.47238362266227  2.06765900420042
 1 -9.82279986498650  4.16441587808781 -0.47533620752075
 1 -10.56510485038504 -2.21408741874187 -1.38700859475948
 1 -2.76036208770877 -1.53313367746775  2.24922671737174
 1 -2.40926149374937  1.60113006410641  1.71097059545955
 1 -2.03328084398440  0.59099652135213  4.04369109440944
 1 -3.02137543784379  1.85662030563056  3.92808190939094
 1 -3.84253483288329  0.39972067436744  4.17254610031003
 1 -2.37604705860586 -1.62152603030303 -0.39491634793479
 1 -2.25172111071107  0.30988846314631 -0.48027668836884
 1 -0.24461878527853  0.17649177507751  1.32663869436944
 1 -0.60539355225523 -1.73709288928893  1.26978409740974
 1 -4.16132078947895  5.83577171477148  1.26402954095410
 1 -5.75120633943394  6.68781390009001  1.88579417641764
 1 -5.00910268726873  5.38937878727873  2.81572263286329
 1 -8.11211131003100  6.86163319701970  1.24890619691969
 1 -9.36029142194219  6.15552353785379 -1.49110850685069
 1 -9.48354263346335  7.64272955825583 -0.28449815391539
 1 -12.12712726012601  3.87558805730573 -0.58167056565657
 1 -12.18807773007301  3.68332329702970 -2.10460767826783
 1 -13.25839323932393  2.55253087128713 -1.39230227712771
 1 -12.54648947484749 -1.19980010631063 -1.62529710351035
 1 -13.45027576987699  0.23142280368037 -1.62678635593559
 1 -12.29515403040304  0.72955997109711 -4.11128997239724
 1 -11.58256446414642 -1.03237263366337 -4.06044684138414
 1 -13.30232830603060 -0.67288464656466 -4.17490134883488
 1 -9.89706725352535 -4.63573566546655 -0.63625942984298
 1 -9.05438734893489 -4.70764777827783 -2.28341886248625
 1 -8.38388009350935 -5.47098787868787 -1.08698335183518
 1 -3.57496322362236 -3.55164251555155 -0.19966302610261
 1 -2.39568643664366 -6.57445404910491  2.41427713171317
 1 -2.10956752845285 -5.35092483148315  3.45346979727973
 1 -3.74013506890689 -6.05639263926393  3.37946946714671
 1  2.65673746554655 -2.02153889498950 -1.21861899519952
 1  2.32055389828983 -0.63387482548255 -2.00458807810781
 1  4.06563799969997 -0.79977804830483  0.54983402780278
 1  5.55370063456346  1.71821951975198 -2.52795538293829
 1  5.58684564836484  0.29096505170517 -3.21190425752575
 1  3.74061054625463  0.89822262816282 -3.09884524142414
 1  6.52127222432243  1.48054119801980 -0.56336153655366
 1  5.84564239003900  0.16988140284028  0.51498119221922
 1  7.26557721082108 -1.16169021442144 -1.11885673177318
 1  7.52446219731973  0.09911541614161 -2.10935979367937
 1  9.10606504810481  1.17366521802180 -0.03304204570457
 1  8.62763549344935 -0.45611269826983  0.81576442934293
 1  10.24986185148515 -0.44367416911691 -1.71120184308431
 1  9.05991317891789 -2.82628129092909 -1.16702592809281
 1  10.76099296029603 -2.78705038143814 -0.80787653325333
 1  9.76938538033803 -2.58695057255726  0.55376185468547
 1  11.23975816591659  0.78990661446145  0.04306776937694
 1  11.00297786718672 -0.52132061756176  1.00942146384638
 1  12.81605811381138 -1.82868674767477 -0.72477592039204
 1  12.47148746534653 -0.42176944984498 -1.49303262176218
 1  13.60494152965297  1.01472186798680  0.30695586968697
 1  13.86585142064206 -0.38104105810581  1.26659623582358
 1  14.96252775017502  0.14910811061106 -1.44659130893089
 1  14.84078947394740 -2.31872015581558 -0.96120014051405
 1  16.59587632393239 -2.04328016751675 -0.66145753835384
 1  15.61673439103910 -2.24699431803180  0.54961766306631
 1  15.59674686628663  1.55001809050905  0.48157200080008
 1  16.40295661836184  0.37351116021602  1.40998299509951
 1  18.16579265656566 -0.28893737233723 -0.52834751945195
 1  17.39464218961896  1.36273923702370 -1.22359966456646
 1  18.28458016391639  2.68226695439544  0.84679117411741
 1  18.71361437563757  1.27678651545155  1.59962121772177
 1  20.45695392519252  0.62744347804780  0.17813075017502
 1  19.59733243044305  2.97257939003900 -1.96216119031903
 1  21.17964648184818  1.99261486528653 -2.01639696309631
 1  19.52641087688769  1.23333336993699 -2.18088326952695
 1  20.90784579767977  2.50389994029403  1.69329325712571
 1  22.00914475617562  2.85058317491749  0.21240314011401
 1  20.43055071777178  3.62630230073007  0.47023962836284
 1 -6.95517930043004  1.72321659365937  0.47275053185319
 1 -7.69433079967997 -0.28916379197920 -0.13650697089709

