%nproc=4
%Mem=2GB
# td=(NStates=1) B3LYP/SVP 

TD

0 1
 6 -5.16470932143214 -1.92418222422242  0.32941156625663
 6 -4.72584874307431  2.71386161516152  1.50671734783478
 6 -9.19935917951795  3.53678987528753 -0.30416503270327
 6 -9.80379223032303 -1.25696729132913 -1.18975512091209
 7 -5.17643439143914  0.36470293139314  0.79186664466447
 6 -4.53295139273927 -0.74813379697970  0.81597768336834
 6 -3.15867762146215 -0.66658714221422  1.31437468686869
 6 -3.09591374377438  0.81129624722472  1.98076258165817
 6 -4.38565352345235  1.33061010641064  1.33486539793979
 6 -3.25407190509051  0.64636293729373  3.57662752075208
 6 -2.07675301810181 -0.82448746284628  0.14426103380338
 6 -0.64616300440044 -0.95090394519452  0.56944470957096
 6  0.43152765866587 -1.42050896819682 -0.44380023722372
 8  0.12728246414641 -1.65779546944695 -1.56269872447245
 8  1.64900997619762 -0.92901932043204 -0.05526051805181
 7 -7.04328750975098  2.67993273517352  0.51052164616462
 6 -5.90976515751575  3.40497723022302  1.08775290069007
 6 -6.12703397589759  4.79966805060506  1.22008356005601
 6 -7.38374143864386  5.07098842184218  0.74630986108611
 6 -7.91986743714371  3.81660025892589  0.28701003730373
 6 -5.17809696609661  5.81809559195920  1.75311131503150
 6 -7.99654624282428  6.35896561426143  0.66185123942394
 6 -8.79469699249925  6.76612590319032 -0.31402001830183
 7 -9.04421782108211  1.01796027062706 -0.63554052945295
 6 -9.75781755915592  2.14777807950795 -0.66707551825182
 6 -11.17082332033203  2.09035267476748 -1.09810388168817
 6 -11.26002144264426  0.70873491489149 -1.41371143274327
 6 -10.03977068546855  0.09372232283228 -1.08597207760776
 6 -12.17826202340234  3.08886145524552 -1.24693912301230
 6 -12.50570066746675 -0.04100319871987 -1.91676391139114
 6 -12.54848931853185 -0.18483312971297 -3.47249443384338
 7 -7.48579170487049 -1.27126144064406 -0.34073041814181
 6 -8.47238322382238 -1.88602521672167 -0.88253518191819
 6 -8.16039964716472 -3.34822942444244 -0.80552429092909
 6 -6.92564459265927 -3.40420630493049 -0.32090419571957
 6 -6.45016355595560 -2.05120691979198 -0.03861170707071
 6 -9.03108709380938 -4.51418481848185 -1.30337284408441
 6 -5.78777489898990 -4.36196142304231  0.01364403400340
 8 -5.76587844394439 -5.57605411411141 -0.10178325792579
 6 -4.53372897749775 -3.39825693839384  0.46918216781678
 6 -4.19417183198320 -3.82814650985099  1.94498638393839
 8 -4.66261887358736 -3.53439439533953  2.93401386538654
 8 -3.30058257395740 -4.93837411871187  1.75815155815582
 6 -2.88379190949095 -5.55199610491049  2.99566603690369
 6  2.70779082248225 -1.31590028062806 -0.96238044334433
 6  3.92348645844584 -0.84174879827983 -0.32313892709271
 6  4.95724802500250 -0.16554750715072 -0.92113751835184
 6  4.91421193139314  0.23460730243024 -2.45659819881988
 6  6.27741145324532  0.00766339463946 -0.24975643874387
 6  7.37969219641964 -0.73508284138414 -0.85697305070507
 6  8.69559303630363 -0.32435764266427 -0.13179805970597
 6  10.14584643934393 -0.89794427702770 -0.65439641954195
 6  10.17668146154615 -2.44023918971897 -0.51421553625363
 6  11.30787146174617 -0.20873054365437  0.07197472947295
 6  12.64444302890289 -0.71609008740874 -0.58658653585359
 6  13.90873728092809  0.01966926382638  0.18781514411441
 6  15.24026584768477  0.02428939313931 -0.45156899269927
 6  15.79149647724772 -1.53673783568357 -0.51310104560456
 6  16.27526012321232  0.89679059025903  0.32178544294429
 6  17.59211605030503  0.94745047894789 -0.26227073487349
 6  18.55903575457545  2.08504712371237  0.31311000390039
 6  20.04218411431143  1.92790841614161 -0.16624386398640
 6  20.12468339783979  2.33063249444944 -1.61396780578058
 6  20.90977144274428  2.82707644374437  0.66655305600560
 1 -3.93091125872587  3.22151853615361  2.07360959925993
 1 -9.97243482848285  4.20892032853285 -0.14610328422842
 1 -10.60427876777678 -1.80267627762776 -1.64153404730473
 1 -2.80841689318932 -1.36761712581258  2.00926272097210
 1 -2.18527909550955  1.36160611171117  1.82524202260226
 1 -2.23400091599160  0.47577499919992  4.05598232353235
 1 -3.68606190649065  1.82636728032803  3.99222832403240
 1 -4.05117569696970  0.02545324762476  3.89496834253425
 1 -2.24652410631063 -1.68146202390239 -0.50907776407641
 1 -2.21180711931193  0.13195066936694 -0.60323898459846
 1 -0.26918124152415 -0.08987486158616  1.14845087558756
 1 -0.73602661556156 -1.70815999599960  1.53586070507051
 1 -4.17313197059706  5.79826796439644  1.25531866986699
 1 -5.46085730453045  6.83095821452145  1.96253185018502
 1 -4.86176795379538  5.43265311471147  2.70515157575758
 1 -7.62408250715071  7.09594662836284  1.23746505280528
 1 -9.16297168996900  6.31533951945194 -1.13603299929993
 1 -9.24417869706971  7.80941622692269 -0.39071877597760
 1 -12.19368391579158  3.67806830533053 -0.20508290689069
 1 -11.97785670797080  3.95167013171317 -1.87397461496150
 1 -13.25617301730173  2.67798341654165 -1.43970701760176
 1 -12.59833465936594 -0.96966709300930 -1.46081065486549
 1 -13.59388013031303  0.42420208160816 -1.58564224152415
 1 -12.48936345134513  0.97666468156816 -3.88023686708671
 1 -11.72771897959796 -0.76117551395139 -4.02368316501650
 1 -13.29568764196420 -0.75795315341534 -3.78292215091509
 1 -9.92164971177118 -4.40681277317732 -0.81507731163116
 1 -9.19625153535353 -4.51338835233523 -2.47920844144414
 1 -8.44852655815582 -5.30731151105110 -1.10894554805481
 1 -3.82337806510651 -3.52342969426943 -0.28340139993999
 1 -2.33361022902290 -6.64152075577558  2.80323602760276
 1 -2.25450202190219 -4.73481322032203  3.48843329362936
 1 -3.73907496289629 -5.94441144114411  3.43376489668967
 1  2.79737152895289 -2.45237197829783 -0.99651678497850
 1  2.60077192009201 -1.03506494449445 -2.15393301260126
 1  3.96795823172317 -1.28754682518252  0.69892893729373
 1  5.66188145264526  1.20345804360436 -2.40817340474047
 1  5.36805376917692 -0.56133017781778 -3.12735580268027
 1  3.89963644884488  0.50647345324532 -2.77502285918592
 1  6.54573467056706  1.01490463436344 -0.11442664306431
 1  6.19790761656166 -0.41173675897590  0.68554824892489
 1  7.15638629172917 -1.97895194059406 -0.58345319141914
 1  7.37954770587059 -0.37461195659566 -1.86052491019102
 1  8.69752419401940  0.70553840534053 -0.20418916041604
 1  8.76831956185619 -0.71179826682668  0.89309216211621
 1  10.07447431273127 -0.71702150385039 -1.80329105200520
 1  9.02651983958396 -2.91180984378438 -0.70216944244424
 1  10.93042990399040 -2.93626530293029 -1.34536028162816
 1  10.59900834263426 -2.68892076957696  0.70950742924292
 1  11.19837402750275  0.94341196499650 -0.09501603900390
 1  11.34562213161316 -0.32377086258626  1.39241976367637
 1  12.79153566156616 -1.82416629562956 -0.61485492829283
 1  12.82270258685869 -0.57924519741974 -1.52366568506851
 1  13.83567460296030  1.23117351315132  0.25775094919492
 1  14.11553638913892 -0.20147310131013  1.36862643884388
 1  15.01350284768477  0.58159135893589 -1.48370502030203
 1  15.13679907490749 -2.22038032183218 -0.95626964746475
 1  16.70776751305131 -1.44641048054805 -0.82195358795880
 1  15.93066578417842 -1.89937955655566  0.52058475977598
 1  15.77858505010501  1.83974706340634  0.44458830243024
 1  16.26560288298830  0.74862867196720  1.46433843064306
 1  18.08173425072507  0.00398191959196 -0.22805749044904
 1  17.67868059345935  1.30185314841484 -1.22600990559056
 1  18.22784449034904  3.13433216091609  0.34182067706771
 1  18.50173318751875  1.93702253905391  1.65010626622662
 1  20.35871410121012  0.92293302700270  0.24719765686569
 1  19.89855255245525  3.49227135923592 -1.76022099629963
 1  21.07329584678468  2.09445504930493 -2.09032435583558
 1  19.21055929172917  1.70309034563456 -2.16293147434744
 1  21.01429644274427  2.49346889718972  1.64257818561856
 1  22.06874071577158  2.68634675127513  0.34777667746775
 1  20.37500516321632  3.81316098659866  0.96900950535054
 1 -6.95261904440444  1.73572784478448  0.12559581638164
 1 -7.58681004760476 -0.05765064066407 -0.29535285548555

