%nproc=4
%Mem=2GB
# td=(NStates=1) B3LYP/SVP 

TD

0 1
 6 -5.05418826932693 -1.99482928892889  0.51585021012101
 6 -4.66930308850885  2.83090331933193  1.40937761386139
 6 -9.22544178777878  3.19040523682368 -0.27883249944995
 6 -9.79851170227023 -1.63139473407341 -0.92513865926593
 7 -5.14965171317132  0.54737119821982  0.81340879887989
 6 -4.46052415001500 -0.66162514611461  0.89642572817282
 6 -3.09816156985699 -0.43351383488349  1.31058430783078
 6 -3.12204635703570  0.97590270787079  1.84551905730573
 6 -4.34200915901590  1.48697574297430  1.40297220862086
 6 -2.79850634853485  0.94210251125112  3.44513437143714
 6 -2.12358770157016 -0.63295830993099  0.22719932763276
 6 -0.54331271937194 -0.56370522532253  0.49151691679168
 6  0.29470397629763 -0.89551646894689 -0.66427228442844
 8 -0.04226449054905 -1.37305699559956 -1.74555701030103
 8  1.58231330653065 -0.47413383188319 -0.31583657565757
 7 -6.95652883388339  2.68774351625163  0.55768636263626
 6 -5.91621580258026  3.37823455595560  1.02155628102810
 6 -6.23158443094309  4.77828591239124  0.99232078377838
 6 -7.48717178167817  4.85019634263426  0.40801603170317
 6 -7.93524897529753  3.59514811371137  0.14221555785579
 6 -5.32737189358936  5.75536931933193  1.58007401130113
 6 -8.19635622382238  6.17780749844984  0.33217827212721
 6 -9.08960648344834  6.50606989758976 -0.55266388268827
 7 -9.25968936823682  0.71247972257226 -0.36160313571357
 6 -9.76246802420242  1.89247254895490 -0.47604641534153
 6 -11.15465170317032  1.75677931743174 -0.96247031833183
 6 -11.36012145264526  0.35846988838884 -1.11054111571157
 6 -10.13453016141614 -0.22385943534353 -0.87916139653965
 6 -12.19416361356136  2.85714828392839 -1.10020444954495
 6 -12.54338443584358 -0.37837693609361 -1.69325156015602
 6 -12.56165063466347 -0.51825647204720 -3.30408759315932
 7 -7.45513863956396 -1.34584889938994 -0.17330367546755
 6 -8.51307729322932 -2.07864447864786 -0.61859878827883
 6 -8.09079268646865 -3.46353095459546 -0.75255899439944
 6 -6.68935096329633 -3.47248313261326 -0.29470157545755
 6 -6.40421896149615 -2.06550834993499  0.07518967306731
 6 -8.96961094619462 -4.60961436143614 -1.17703020982098
 6 -5.58403452495249 -4.30532575947595  0.04240691029103
 8 -5.61837369346935 -5.51750825952595  0.11713863426343
 6 -4.43641924652465 -3.35299241194119  0.44708995859586
 6 -3.91333374817482 -3.81927562276228  1.92658454375438
 8 -4.24657726942694 -3.36515747164716  2.95431589558956
 8 -3.05005752145214 -4.76753703500350  1.77942368536854
 6 -2.51774530483048 -5.42809371467147  2.92320879117912
 6  2.57243728712871 -0.66091478207821 -1.42741694699470
 6  3.95793990379038 -0.43270789418942 -0.77067368056806
 6  4.84823712391239  0.41297034463446 -1.24355976057606
 6  4.82347285748575  1.15394923662366 -2.54323686268627
 6  6.12901661376138  0.57743037133713 -0.51591305440544
 6  7.40376460366037 -0.07685701880188 -1.09095644904490
 6  8.69592306930693 -0.03246845374537 -0.23062794269427
 6  9.95650750545055 -0.59265374797480 -0.89311029092909
 6  9.75725951935194 -2.09662482828283 -1.12980709540954
 6  11.21466214081408 -0.20316998759876 -0.06112858085809
 6  12.54140272487249 -0.47181565996600 -0.65294317151715
 6  13.82821922912291 -0.07277998109811  0.09750611321132
 6  15.25765758685868 -0.36725976177618 -0.47000083588359
 6  15.58654598219822 -1.96626078797880 -0.64605434093409
 6  16.33105570277028  0.29284019521952  0.41634489888989
 6  17.71879871857186  0.47888362226223 -0.14172868066807
 6  18.61204105510551  1.27451607060706  0.71188988188819
 6  20.04417431333133  1.42056768206821  0.30877363776378
 6  20.03729465896590  2.18232766396640 -0.98444485348535
 6  20.98363882948295  2.02384612071207  1.54522092279228
 1 -4.02559072667267  3.42661904620462  1.90218245654566
 1 -9.91185877087709  4.05613505000500 -0.42386106000600
 1 -10.41788012791279 -2.51296730673067 -1.08920881478148
 1 -2.72044809630963 -1.32987335143514  2.18652044674467
 1 -2.08318888648865  1.32345229632963  1.39651915031503
 1 -1.64643215911591  0.71684910661066  3.49967669296930
 1 -2.99159245954595  2.06757140074007  3.79917901910191
 1 -3.45677625702570  0.19382008430843  4.06088493419342
 1 -2.24990444434443 -1.65178905660566 -0.32638949524952
 1 -2.57673361196120 -0.02098462416242 -0.78039670037004
 1 -0.44970929432943  0.61969609550955  0.77244327482748
 1 -0.20876388928893 -1.21990117011701  1.19246636563656
 1 -4.57064172157216  6.19164730233023  0.81876501450145
 1 -6.10870208900890  6.75456057475748  1.77009260626063
 1 -5.04859663666367  5.50259010841084  2.52223328392839
 1 -7.96577667656766  6.84184121782178  1.13245455175518
 1 -9.39319471227123  5.80058804430443 -1.56276567256726
 1 -9.48687296649665  7.56807209250925 -0.58184788888889
 1 -11.94826937433743  3.48100859935994 -0.20990338893889
 1 -12.06372529482948  3.57835279998000 -2.06050326782678
 1 -13.31067846784678  2.31305692389239 -0.95557860476048
 1 -12.65304012991299 -1.44467459375938 -1.24328890269027
 1 -13.44316505880588  0.21442110351035 -1.49023270057006
 1 -12.69224373937394  0.58673568866887 -3.72729157255726
 1 -11.72584879257926 -1.14709410581058 -3.65456625332533
 1 -13.52882095529553 -0.84360171827183 -3.62457631633163
 1 -9.82290983778378 -4.77260935283528 -0.34300010391039
 1 -9.59626153635363 -4.38913592709271 -2.10193071367137
 1 -8.23966567206721 -5.54038481838184 -1.12786744024402
 1 -3.64009973727373 -3.61075842714271 -0.22603566336634
 1 -1.66839370737074 -6.03791039473947  2.50796650065007
 1 -2.05580215191519 -4.71463120212021  3.60093454375437
 1 -3.23224427982798 -6.12744974497450  3.50502202240224
 1  2.59860165196520 -1.72104884598460 -1.68730586388639
 1  2.25561740464046  0.02040060206021 -2.20971859115912
 1  4.04500593649365 -1.07198526902690  0.25900494489449
 1  5.15547081158116  2.26126382418242 -2.92821540894089
 1  5.36618358215822  0.60835679087909 -3.37431049814982
 1  3.85894237943794  1.35606841274127 -3.11587694459446
 1  6.47468756585659  1.70519366326633 -0.16261146154616
 1  5.91735956175618 -0.01646723202320  0.54950464456446
 1  6.96491714481448 -1.18472251765177 -1.20695554165417
 1  7.51305105620562  0.48821432603260 -2.01782063976398
 1  8.90652509410941  0.95079293079308  0.48208946744674
 1  8.42501523142314 -0.77213430043004  0.65769862276228
 1  10.12894976027603 -0.07506730843084 -1.74587531043104
 1  8.91451863946395 -2.51687034983498 -1.82765199069907
 1  10.77056391739174 -2.43491516791679 -1.70202594819482
 1  9.84514295609561 -2.84669654715472 -0.24521804330433
 1  11.26555074517452  0.85830345414541  0.19091255385539
 1  11.30835840524052 -0.82634111961196  0.93785430713071
 1  12.43659016701670 -1.63185706470647 -1.07115055785579
 1  12.62259257585758 -0.13122039493949 -1.79105242374237
 1  13.90162119761976  1.05282567836784  0.22913808790879
 1  13.66743157865787 -0.61536449044904  1.03787336353635
 1  15.43827532493249  0.07495069486949 -1.49003565336534
 1  14.62542793779378 -2.24624290809081 -1.19445346584658
 1  16.33198993529353 -2.07691353085309 -1.32330372297230
 1  15.78396111371137 -2.49809942854285  0.22916561786179
 1  15.83724091569157  1.00766385508551  0.60419426302630
 1  16.59651597429743 -0.28524471537154  1.36756875367537
 1  18.18020409770977 -0.61218969756976 -0.29683436813681
 1  17.52257498289829  0.83634659775978 -1.24613191779178
 1  18.05995770167017  2.11595032273227  0.87883437843784
 1  18.56823983818382  0.78696753355336  1.71815307090709
 1  20.33300152995299  0.28172890659066  0.05581851895190
 1  19.71558425562556  3.13216534863486 -0.82534750895089
 1  21.06464498169817  2.12201780558056 -1.40365568896890
 1  19.31617985378538  1.69947998459846 -1.58347352855286
 1  20.69983499659966  1.41824137443744  2.40135406320632
 1  21.84900874257426  2.09738785538554  1.10882278207821
 1  20.39286694939494  2.79819949044904  1.96033863826383
 1 -6.77404118661866  1.64670894289429  0.35937919471947
 1 -7.50995236183618 -0.39513438903890 -0.25728904910491

