%nproc=4
%Mem=2GB
# td=(NStates=1) B3LYP/SVP 

TD

0 1
 6 -5.19460231073107 -1.92922272827283  0.38902752785279
 6 -4.72085824402440  2.75486571557156  1.41920859695970
 6 -9.32492173577358  3.39212540884088 -0.20637525372537
 6 -9.81181303240324 -1.37727932253225 -0.89857600300030
 7 -5.10445719371937  0.48065452655266  0.71722918091809
 6 -4.61452955055506 -0.74482346594659  0.73719980558056
 6 -3.13681543524352 -0.60998148164816  1.20474372377238
 6 -3.09655380778078  0.88895401300130  1.77139164456446
 6 -4.38234319241924  1.39523656905691  1.25290720212021
 6 -2.92328882678268  0.97484578557856  3.35065492349235
 6 -2.17645298809881 -0.73415842994299 -0.05749914221422
 6 -0.68375676377638 -0.87327618241824  0.42442020712071
 6  0.43858836473647 -1.26425334263426 -0.64817067426743
 8  0.16828656455646 -1.89062875277528 -1.70538299289929
 8  1.58818389358936 -0.78969538803880 -0.21781677367737
 7 -7.06394957595760  2.74837957985799  0.53563415741574
 6 -5.90229441044105  3.40403713621362  0.98644276967697
 6 -6.25225649814981  4.76589467326733  1.11311286298630
 6 -7.52708577307731  5.03765508850885  0.53089831993199
 6 -8.07091254165417  3.68544714361436  0.26823816011601
 6 -5.23925308170817  5.83967775017502  1.59338534243424
 6 -8.22852944114411  6.26653637133713  0.52327738203820
 6 -9.14039156195620  6.71327061766177 -0.30642925922592
 7 -9.19745314461446  0.83229170377038 -0.44476145154515
 6 -9.87669944734473  2.07828112981298 -0.39850866156616
 6 -11.32558879687969  1.91864550405041 -0.90770484178418
 6 -11.51802724322432  0.53734777617762 -1.05718578017802
 6 -10.16740344874488 -0.02054910431043 -0.94863834423442
 6 -12.24838903610361  2.95788835793579 -1.06292072117212
 6 -12.72182227962796 -0.10159925832583 -1.59613184818482
 6 -12.75259972957296 -0.26492113851385 -3.15555273967397
 7 -7.50055318101810 -1.22965728022802 -0.33593993909391
 6 -8.57891387688769 -1.98388500270027 -0.70249717811781
 6 -8.25130873807381 -3.32926752825283 -0.73372711121112
 6 -6.90678270647065 -3.33907979227923 -0.41938404370437
 6 -6.41040958055806 -2.04571637073707 -0.17376522242224
 6 -9.23543752885288 -4.53858725872587 -0.85044755155516
 6 -5.81267738923892 -4.28093332023202 -0.12890022042204
 8 -5.74296615271527 -5.43235974467447 -0.20887396699670
 6 -4.54970057465747 -3.33506061876188  0.32037728732873
 6 -3.80586300110011 -3.73437713291329  1.50577246254625
 8 -3.81380399209921 -3.36017697359736  2.66972743674367
 8 -3.17559007470747 -5.01261154245425  1.28729447244724
 6 -2.59505303560356 -5.52641354665467  2.48758522882288
 6  2.73328337173717 -1.11058974957496 -1.10753495879588
 6  3.93425753555356 -0.65795041844184 -0.36157277047705
 6  4.93101540174017 -0.00939189158916 -1.03260866546655
 6  4.89364987518752  0.41097493919392 -2.57235977497750
 6  6.30898461056106  0.31025365366537 -0.39020048314831
 6  7.53814804200420 -0.48343767686769 -0.75337269066907
 6  8.80749422642264 -0.08935414231423 -0.01301618151815
 6  10.12821467616762 -0.81925640824082 -0.39516049594960
 6  9.99183297669767 -2.36331149694970 -0.19907402210221
 6  11.31478215281528 -0.10229990059006  0.34451198319832
 6  12.68271685628563 -0.55051352975298 -0.34483236043604
 6  13.87688409560956  0.23500079697970  0.22364872747275
 6  15.30753257435743 -0.19875291109111 -0.22161599739974
 6  15.60877820542054 -1.66267042894289  0.05021528602860
 6  16.30340293749375  0.92534344554455  0.30382364676468
 6  17.69760659935994  0.73677941184118 -0.22017652545255
 6  18.68809866086609  1.89333795279528  0.31826051895189
 6  20.11933182908291  1.56158178347835 -0.13281052065207
 6  20.40376130563056  1.95923535473547 -1.56275268426843
 6  21.20683114871487  2.36789052515251  0.70215661636164
 1 -4.15397356495650  3.31943832813281  1.97911014931493
 1 -10.04933251825183  4.19768920542054 -0.36350502440244
 1 -10.49929826972697 -2.09364537453745 -1.32180207410741
 1 -2.89427547904790 -1.32836320042004  1.95503729842984
 1 -2.15826639423942  1.40071002210221  1.44855435383538
 1 -1.89706722262226  0.71432885458546  3.59318604390439
 1 -3.25132843314331  1.93786843044304  3.76696579777978
 1 -3.44826540594059  0.10448115041504  3.79289813551355
 1 -2.13775322922292 -1.75316919461946 -0.77898475477548
 1 -2.37326326492649 -0.10311283698370 -0.91025968666867
 1 -0.31688601200120  0.01746587248725  0.79982601310131
 1 -0.39590260316032 -1.74713389338934  1.15729284828483
 1 -4.51348600600060  6.02097023462346  0.69211234923492
 1 -5.64060527932793  6.84593971267127  1.92874847184719
 1 -4.68232000900090  5.31488133753375  2.54095515611561
 1 -7.89653975287529  6.87221425512551  1.28808011431143
 1 -9.57634302710271  6.26425441094109 -1.29234863086309
 1 -9.79816409560956  7.53371865716572 -0.21509121322132
 1 -12.40304485188519  3.37931843034303  0.04291189258926
 1 -11.82204112641264  3.89147411211121 -1.57398461596160
 1 -13.09789718971897  2.53016863506351 -1.49945299219922
 1 -12.79371419731973 -1.02747287358736 -1.06650122392239
 1 -13.64540528282828  0.45310497189719 -1.18071174847485
 1 -12.99362387738774  0.71609862496250 -3.47098594199420
 1 -11.97585379307931 -0.91853124952495 -3.71469226592659
 1 -13.54646271947195 -0.93640099819982 -3.54965882458246
 1 -10.13491103790379 -4.39107119901990 -0.12489829372937
 1 -9.54701661186118 -4.90071708520852 -1.87923844444444
 1 -8.76715842134213 -5.41160194009401 -0.38242289578958
 1 -3.86945267256726 -3.48057540884088 -0.48760181998200
 1 -2.09887675567557 -6.28220482418242  2.16447215121512
 1 -1.89218579027903 -4.90689042804280  2.95177962826283
 1 -3.42421347674767 -5.81962896289629  3.33314483468347
 1  2.63112490429043 -2.26754349544955 -1.27282441574157
 1  2.33040488338834 -0.73674511251125 -2.05694331363136
 1  4.15797723362336 -0.99996806730673  0.64900394479448
 1  4.77849311381138  1.61652935073507 -2.62054464186419
 1  5.72013897769777 -0.13332737753775 -3.21394446154615
 1  3.98549503470347  0.17718052395239 -3.29180453735374
 1  6.61187128422842  1.36699984388439 -0.36808200860086
 1  6.23045087088709  0.03431784648465  0.79535923002300
 1  7.26153680678068 -1.60825487088709 -0.69519436553655
 1  7.66156590769077 -0.31114560996100 -2.11457031473147
 1  8.76896133773377  1.10866871837184 -0.01070981248125
 1  8.59563229312931 -0.10744783178318  1.14014686758676
 1  10.27426429172917 -0.63529333103310 -1.68708943184318
 1  9.13881106870687 -2.76348501130113 -0.92142136763676
 1  10.98092495349535 -3.06933861026103 -0.37342308790879
 1  9.75384382618262 -2.67952983048305  0.92336881538154
 1  11.16601079117912  0.96442406620662  0.23524698729873
 1  11.27103467286729 -0.46949543504350  1.34122464416442
 1  13.07462397039704 -1.58962284128413 -0.23418686148615
 1  12.49429974657466 -0.30455772867287 -1.59370268876888
 1  13.80744177967797  1.41368176397640 -0.03465829172917
 1  13.93846868236824  0.14321136713671  1.26246582278228
 1  15.20591208860886  0.18753195299530 -1.43197984778478
 1  14.66008140314031 -2.17078536233623 -0.02949697019702
 1  16.60365710201020 -2.05143098259826 -0.46457785038504
 1  16.09908262586259 -1.87145676427643  1.14911761306131
 1  16.05631282288229  2.08512160086009 -0.04903105950595
 1  16.40399672237224  1.04742855195520  1.59656165296530
 1  18.11124720202020 -0.30148862746275 -0.23031771647165
 1  17.61162388778878  0.82364532763276 -1.38901620622062
 1  18.50762246814682  3.04071279897990 -0.18074157915792
 1  18.68979199339934  1.75766460326033  1.49636089168917
 1  20.40619884968497  0.51776250995100 -0.01516857975798
 1  20.36261895909591  3.18664079617962 -1.82130710491049
 1  21.43308182538254  1.53518912271227 -1.98116343974398
 1  19.55955419121912  1.42982301890189 -2.05503068426843
 1  20.87768278137814  2.07275682598260  1.90309423722372
 1  22.28242208390839  2.06209432603260  0.32905480528053
 1  21.22869053175318  3.65658532903290  0.71034363876388
 1 -7.21491527402740  1.75547981998200  0.39635289208921
 1 -7.55049641624162 -0.20773564916492 -0.15705902610261

