%nproc=4
%Mem=2GB
# td=(NStates=1) B3LYP/SVP 

TD

0 1
 6 -5.09746259675968 -2.00640044604460  0.37529615471547
 6 -4.68979513771377  2.71911214021402  1.37147382348235
 6 -9.22195143874387  3.40953715001500 -0.19950456665667
 6 -9.73965581668167 -1.32042363696370 -0.82526867226723
 7 -5.13695044304430  0.37044350545055  0.79138659665967
 6 -4.48456655425543 -0.83286226982698  0.82722880848085
 6 -2.98717047074707 -0.59350983448345  1.23849709910991
 6 -2.96835098749875  0.90495561316132  1.75316982238224
 6 -4.32128708680868  1.40469751515152  1.25340725212521
 6 -2.86917341524152  1.03270157115712  3.32267212521252
 6 -2.09330467326733 -0.81303631773177  0.06532314001400
 6 -0.71608999709971 -0.96670552535254  0.46415418051805
 6  0.26160066596660 -1.17128404570457 -0.75058091529153
 8  0.02371210711071 -1.48663835373537 -1.93223567816782
 8  1.62100717591759 -1.00634705320532 -0.28373336533653
 7 -6.90899408040804  2.82347708960896  0.48948954295430
 6 -5.76620080108011  3.43895062756276  0.87194131953195
 6 -6.07352862536254  4.90378846264626  0.89335088678868
 6 -7.33677674217422  5.03420474347435  0.46937216731673
 6 -7.93113856425643  3.80527912681268  0.12151348764876
 6 -5.09557871427143  5.82860664306431  1.36805280918092
 6 -7.97648423662366  6.38121783948395  0.36172122642264
 6 -9.12696021882188  6.69761905250525 -0.49904852115212
 7 -9.05407880718072  0.96046452105211 -0.58390536593659
 6 -9.75845762316232  2.10561386308631 -0.42876168686869
 6 -11.19200543854385  2.02994663416342 -0.89217328862886
 6 -11.44458989948995  0.69463350475048 -1.00206026762676
 6 -10.02366907530753  0.01915486608661 -0.78656213661366
 6 -12.26526072327233  3.03930649974998 -0.92306673577358
 6 -12.69126922432243 -0.14350344874487 -1.43348558355836
 6 -12.69057352695270 -0.48914356075608 -3.00921810621062
 7 -7.44099722542254 -1.21382569706971 -0.23133947904790
 6 -8.49956594209421 -1.94793140734073 -0.62882981138114
 6 -8.21310491769177 -3.30837543904390 -0.58474221272127
 6 -6.84371639983998 -3.41380726502650 -0.18568067336734
 6 -6.42534107370737 -2.06854865396540  0.00998315241524
 6 -9.19079306440644 -4.56699009900990 -0.82184469126913
 6 -5.61491761326133 -4.32770799769977  0.01252392199220
 8 -5.69044090019002 -5.52424893359336 -0.17343042264226
 6 -4.46010161476148 -3.41757887058706  0.42575782538254
 6 -3.85946836163616 -3.80254394959496  1.73655554085409
 8 -4.04119673137314 -3.33992494839484  2.85904636863686
 8 -3.05399791549155 -4.89489977127713  1.43989973297330
 6 -2.51530506080608 -5.51943284858486  2.61316778707871
 6  2.61692173557356 -1.27684637523752 -1.29284348964897
 6  3.96161027082708 -0.97682230563056 -0.60931754495450
 6  4.93686598679868 -0.16568752115212 -1.15815121972197
 6  4.84127463766377  0.47849169086909 -2.40857339633963
 6  6.14542825492549 -0.00263763546355 -0.31189265236524
 6  7.47831205840584 -0.53947328042804 -1.08740609400940
 6  8.69345282228223 -0.48642384928493 -0.07708258815882
 6  9.97383923862386 -0.85756023862386 -0.71239221912191
 6  10.07990178357836 -2.36774193999400 -1.15021913661366
 6  11.23864453905390 -0.37724739533953 -0.05546801480148
 6  12.60418900350035 -0.53630210861086 -0.60791866906691
 6  13.69799620682068  0.03401069796980  0.20962732533253
 6  15.09743156425642 -0.10529356515652 -0.42404624042404
 6  15.37829515711571 -1.56014017591759 -0.60066980248025
 6  16.17401999919992  0.59916082728273  0.43865713011301
 6  17.59620645934593  0.85090082398240 -0.17046155395540
 6  18.51505135613561  1.61825044404440  0.85406409930993
 6  19.93225312121212  1.90345597089709  0.29466222662266
 6  20.06155708520852  2.59293872507251 -1.09386579557956
 6  20.81004146974697  2.68926266236624  1.44040044074407
 1 -3.92381054865487  3.28178456275628  1.91026326462646
 1 -9.96714429942994  4.28758819531953 -0.21670034393439
 1 -10.56026436633664 -2.03857986798680 -1.22468236213621
 1 -2.86744279577958 -1.36395675977598  2.16654844954495
 1 -2.08269883748375  1.36499645074507  1.17935743414341
 1 -1.90060757665767  0.54075149684968  3.64564128942894
 1 -3.06550985128513  2.07464210781078  3.59842894409441
 1 -3.63144372377238  0.33683438573857  3.76694554025403
 1 -2.47239669356936 -1.61557543524352 -0.60556741304130
 1 -2.13080901950195  0.22042951725173 -0.40937959865987
 1 -0.20167449084909 -0.02576845094509  1.03696972747275
 1 -0.44531754465447 -1.87032621262126  1.18658577757776
 1 -4.07404206160616  5.67200533813381  0.89770290829083
 1 -5.38800001880188  6.95431054975498  1.37269286628663
 1 -5.02854463146315  5.80498034743474  2.46197725832583
 1 -7.84468456735674  7.23466049974997  1.13492479877988
 1 -9.51107650045005  5.96421440694069 -1.26353574957496
 1 -9.61558583778378  7.66655194049405 -0.26812651675167
 1 -12.46763131053105  3.48612911141114  0.18408601000100
 1 -12.07912683498350  3.86997196189619 -1.68628584608461
 1 -13.42109950995100  2.69162478067807 -1.11624467136714
 1 -12.63582840874087 -1.01952207850785 -0.85416999079908
 1 -13.53988473077308  0.61318097949795 -1.21452512981298
 1 -12.47390190519052  0.32035905100510 -3.63356219961996
 1 -12.03641984968497 -1.47708710511051 -3.48392918961896
 1 -13.86902497569757 -0.87279463756376 -3.32716657535754
 1 -9.83131067786779 -4.72069416131613  0.16705090119012
 1 -9.99590150035004 -4.44266127962796 -1.76146666726673
 1 -8.37427913341334 -5.46933771367137 -1.15003965746575
 1 -3.78230395769577 -3.69150650195019 -0.21449450925093
 1 -2.05411227922792 -6.45872247594759  2.41855755975598
 1 -1.34212078377838 -4.72658239723972  2.87264171447145
 1 -3.17186824222422 -5.55329232923292  3.46290781098110
 1  2.67714950675068 -2.34556129722972 -1.86316344964496
 1  2.18930077297730 -0.75337677567757 -2.21913953325332
 1  4.06607804370437 -1.42643071357136  0.31116016041604
 1  5.05370063456346  1.60144784258426 -2.36652924032403
 1  5.32511947574757  0.04861081628163 -3.19675274237424
 1  3.87880436563656  0.60572337823782 -2.81825718261826
 1  6.31759185628563  1.15057820172017 -0.21809701010101
 1  6.09047687348735 -0.43539912521252  0.56154584868487
 1  7.09864051715172 -1.56087013241324 -1.45338018411841
 1  7.83546329742974  0.15801130573057 -1.90434929262926
 1  8.79824426602660  0.41623947544754  0.46222748124812
 1  8.50619334923492 -1.14493158015802  0.76912976587659
 1  10.03157002230223 -0.38349815151515 -1.64553527642764
 1  9.29517670527053 -2.68400706350635 -1.95339456495650
 1  11.18093495449545 -2.68581025742574 -1.54944068966897
 1  10.04790323212321 -3.00895277277728 -0.16580010151015
 1  11.23573776387639  0.80168779257926  0.35178864146415
 1  11.19613718311831 -0.70660914641464  1.03556407810781
 1  12.85930243824382 -1.57624150315031 -0.79547299009901
 1  12.56706702330233 -0.22208948184819 -1.54364768326833
 1  13.55357639313931  1.11584197999800  0.24145932003200
 1  13.40309514501450 -0.53892684668467  1.29721929812981
 1  15.19260075747575  0.48700189999000 -1.39710636043604
 1  14.69312470747075 -2.10688897269727 -1.32431645214521
 1  16.34795153145315 -1.75318115761576 -1.13252464506451
 1  15.30240295789579 -2.05525514411441  0.41487418871887
 1  15.84128131973197  1.75621871057106  0.83519736333633
 1  16.08274459715972 -0.15847203810381  1.46332832963296
 1  18.00647672497250 -0.28992747134713 -0.36948163286329
 1  17.52658538393839  1.49370233333333 -1.00321762636264
 1  17.84750645654566  2.67080580828083  1.03450994599460
 1  18.36239925412541  1.03914275107511  1.87195845144514
 1  20.52111034083408  0.96298703240324  0.14334727182718
 1  19.63862655985599  3.71731386348635 -1.19466444064406
 1  21.05096361356135  2.53787939173917 -1.50671599499950
 1  19.20896913271327  1.98038807540754 -1.65227040824082
 1  20.99960497359736  1.95266481678168  2.45698962676268
 1  21.93434727642764  2.82589070567057  1.37229912971297
 1  20.26622428512852  3.71799146964696  1.53877648204820
 1 -7.23644742724272  1.81805607760776  0.46988024482448
 1 -7.49194056065607 -0.13428830443044 -0.08221154135414

