%nproc=4
%Mem=2GB
# td=(NStates=1) B3LYP/SVP 

TD

0 1
 6 -5.04816766726673 -1.92196200220022  0.50656928202820
 6 -4.84967112531253  2.78152838183818  1.37840451655165
 6 -9.49708895249525  3.28120431673167 -0.14581919811981
 6 -9.78173002410241 -1.51760335493549 -0.79608575397540
 7 -5.25063181118112  0.44239070017002  0.80441789978998
 6 -4.47934603220322 -0.67094607820782  0.88905499109911
 6 -3.04502625632563 -0.47289777327733  1.24658790819082
 6 -3.07232138453845  0.94538965656566  1.85723022842284
 6 -4.46366132423242  1.42393943934393  1.28502041344134
 6 -3.04811130903090  1.02971127212721  3.44232409040904
 6 -2.14888023082308 -0.69779479357936  0.08661526922692
 6 -0.62060044814481 -0.56175503030303  0.47462522762276
 6  0.36120062596260 -0.82683960126013 -0.63625948314832
 8  0.09456919281928 -1.22281197109711 -1.76910936553655
 8  1.67915299049905 -0.62401882038204 -0.27077206920692
 7 -7.17051023202320  2.74016875877588  0.63309390339034
 6 -6.03895807680768  3.42291902440244  0.98814293969397
 6 -6.28913018551855  4.83240132393239  0.97946949864986
 6 -7.60430349484948  4.96638796179618  0.38856408650865
 6 -8.20496594699470  3.70109870877088  0.17423876017602
 6 -5.22948210461046  5.89826360876088  1.37658366226623
 6 -8.20441702990299  6.24648436613661  0.21763681798180
 6 -9.27849537233723  6.47474676527653 -0.64696331263126
 7 -9.33050644994499  0.79341781638164 -0.34628160356036
 6 -10.00852262966297  2.05907920962096 -0.45099391009101
 6 -11.33776001400140  1.81728536803680 -0.88503257455746
 6 -11.40192563306331  0.38542258365837 -1.11660172177218
 6 -10.05968267666767 -0.09555660506051 -0.73186666706671
 6 -12.41713591079108  2.86114868396840 -1.01656608570857
 6 -12.66565666306631 -0.30585968436844 -1.55367760276028
 6 -12.51973644324432 -0.61444609100910 -3.06149333373337
 7 -7.36814994069407 -1.26741105560556 -0.24132047714771
 6 -8.53966995249525 -2.02674928912891 -0.60181711011101
 6 -8.07367097429743 -3.36442104360436 -0.72831657015702
 6 -6.72447447564756 -3.31444732903290 -0.29360146544654
 6 -6.34807334693469 -1.98358015711571 -0.04519236513651
 6 -8.87746173127313 -4.64799819981998 -1.09656216301630
 6 -5.67691381288129 -4.29156438333833  0.04354702430243
 8 -5.66562841894189 -5.50896740544054 -0.09062214181418
 6 -4.42258786338634 -3.35281239393939  0.38394364396440
 6 -3.85907832263226 -3.81330502570257  1.70519240454045
 8 -4.40080269196920 -3.50785174107411  2.79956042004200
 8 -2.85359787548755 -4.69517979927993  1.48008375137514
 6 -2.40380391069107 -5.41042194749475  2.64109057935794
 6  2.65175521892189 -0.69017770837084 -1.30679488478848
 6  4.04401851165117 -0.73698832223222 -0.63586019921992
 6  4.95492779297930  0.19912896049605 -0.93335874047405
 6  4.99707021722172  1.16530037173717 -2.13723626262626
 6  6.19420313241324  0.04182681098110 -0.14442590569057
 6  7.46319054625463 -0.25082441554155 -1.04111146454645
 6  8.75999947694770 -0.47266247314731 -0.09519439933993
 6  10.03898575327533 -0.82167665026503 -0.72555353525353
 6  10.11444523792379 -2.28382354815482 -1.21398551325133
 6  11.35369604420442 -0.50375004560456 -0.00344281228123
 6  12.74561314591459 -0.75889436783678 -0.60237811501150
 6  13.86809321652165 -0.25228793189319  0.25305166776678
 6  15.23026484758476 -0.35998903470347 -0.37168100390039
 6  15.66570389798980 -1.73997815971597 -0.46972670817082
 6  16.26009860706071  0.54096500770077  0.41841510591059
 6  17.69136597529753  0.60165589948995 -0.13834834263426
 6  18.60784063506350  1.60570918991899  0.67346603950395
 6  20.04513440934093  1.60044566986699  0.19223198359836
 6  20.19793072257226  2.13103253445345 -1.25442185118512
 6  21.00001046664666  2.37399113521352  1.07100350105010
 1 -4.06081424902490  3.42632901720172  1.72478471677168
 1 -10.11339892489249  4.22196163266327 -0.32765143904390
 1 -10.56257459735974 -2.22731874187419 -1.13961385528553
 1 -2.67300335183518 -1.26611697579758  2.01769356405641
 1 -2.20733130073007  1.51864181528153  1.61996149454946
 1 -2.12557007290729  0.61326874857486  3.76343306860686
 1 -2.99759305960596  2.02611725532553  3.81024012521252
 1 -3.67338791819182  0.38212891519152  3.98089693539354
 1 -2.45641509540954 -1.69404328202820 -0.42911976827683
 1 -2.13393933253325  0.14262173647365 -0.76540520122012
 1 -0.36789111251125  0.45555968186819  0.86430246074607
 1 -0.47455046794679 -1.19645882588259  1.20100721972197
 1 -4.30057471487149  5.93703184078408  0.79884302230223
 1 -5.60109132793279  6.82497761646165  1.52255785278528
 1 -4.82786456345635  5.50593044244425  2.41682274287429
 1 -7.91135123402340  7.03446047974797  0.70109141544154
 1 -9.48520391319132  5.69347733323332 -1.34112350835084
 1 -9.74768904810481  7.48026331163116 -0.73015271937194
 1 -12.63400794819482  3.37794829332933 -0.09606200480048
 1 -12.12029095139514  3.56086105080508 -1.69145636313631
 1 -13.52022942294230  2.64305992419242 -1.43866691359136
 1 -12.85564038993899 -1.28205833213321 -0.93432800660066
 1 -13.66627737003700  0.11758141954195 -1.40904458175818
 1 -12.27462197719772  0.17549456455646 -3.63564240764076
 1 -11.68560476817682 -1.38548794519452 -3.14417521422142
 1 -13.50915898909891 -1.05900325842584 -3.53472733143314
 1 -9.62801034783478 -4.57805989788979 -0.37166297019702
 1 -9.15701761196120 -4.51157817131713 -2.27574809540954
 1 -8.29729143464347 -5.43969474937494 -1.01808646214621
 1 -3.69263499079908 -3.36595394669467 -0.47088014781478
 1 -1.64800166816682 -6.32636924062406  2.48609431343134
 1 -1.84061063276328 -4.67466720572057  3.33401785208521
 1 -3.42454350975098 -5.71864886488649  3.24745626582658
 1  2.56934872667267 -1.73379012011201 -1.79995712901290
 1  2.45678752165217  0.24109267126713 -1.98086570587059
 1  4.19221065696570 -1.26253432393239  0.16475551995200
 1  5.75937120162016  2.17860555835584 -1.98615120252025
 1  5.48902586638664  0.73903985918592 -3.03083615071507
 1  3.94394087928793  1.41247405330533 -2.42287764466447
 1  6.56664676177618  0.98533167706771  0.22362716231623
 1  6.12738056385639 -0.82365795109511  0.72253194729473
 1  7.11301195429543 -1.09291333673367 -1.58249309540954
 1  7.74143389448945  0.52160766536654 -1.78160701840184
 1  8.79677411901190  0.51973982548255  0.64777603610361
 1  8.50517324722472 -1.22682976997700  0.66921977487749
 1  10.19425629092909 -0.30261006270627 -1.82602332523252
 1  9.13791097869787 -2.54575323812381 -1.67756698219822
 1  10.79954681568157 -2.66299797619762 -2.15371111671167
 1  10.37848629042904 -3.06707858535854 -0.40504402590259
 1  11.20213440354035  0.55843346714671  0.36340980358036
 1  11.37773534293429 -0.97511599709971  0.88947946964696
 1  12.84586109410941 -1.89305318431843 -0.75751919471947
 1  12.67718803540354 -0.19838711161116 -1.60443376187619
 1  13.50839187468747  0.86937733353335  0.41511668576858
 1  13.81526636213621 -0.91011396539654  1.18543812001200
 1  15.39561105850585  0.15689888968897 -1.45627227702770
 1  14.82367776277628 -2.48610689448945 -0.81115513601360
 1  16.49112584888489 -1.92382822232223 -1.12739413201320
 1  15.89688240584058 -2.23468308690869  0.62397509880988
 1  15.77659485108511  1.61263435213521  0.57831167476748
 1  16.16925324802481  0.22803661276128  1.52578457525753
 1  18.07866394369437 -0.37075555415542 -0.28520320502050
 1  17.61233395879588  1.06305926902690 -1.28382568716872
 1  18.10425213111311  2.54172289999000  0.80048654365437
 1  18.50410342454246  1.05988482528253  1.74555581118112
 1  20.52310053985398  0.63155388908891  0.31555449254925
 1  19.62023472067207  3.03539567166717 -1.31377635183518
 1  21.09139765696569  2.38951455525553 -1.37352267566757
 1  20.01012924872487  1.24007404400440 -2.10107528872887
 1  20.64894990809081  2.32515206550655  2.27311123892389
 1  22.12131597329733  1.95025314191419  0.83056495629563
 1  21.08450611331133  3.60909057955796  0.67218982338234
 1 -7.10629441194119  1.70745501750175  0.23028628542854
 1 -7.25282664926493 -0.17264213981398 -0.44528784898490

