%nproc=4
%Mem=2GB
# td=(NStates=1) B3LYP/SVP 

TD

0 1
 6 -5.12845569606961 -2.00124993099310  0.36706533163316
 6 -4.62643880208021  2.72660288928893  1.35705238133813
 6 -9.22912215581558  3.47524372067207 -0.10219483568357
 6 -9.85985783688369 -1.34243583818382 -0.77024316971697
 7 -5.19913666166617  0.38409487058706  0.80272773077308
 6 -4.54063216081608 -0.80750973457346  0.78858494409441
 6 -3.08163991769177 -0.73547403090309  1.14648789818982
 6 -2.98982313471347  0.72544766236624  1.70712521792179
 6 -4.29379433753375  1.38587563296330  1.22205411681168
 6 -2.90570706860686  0.75909421042104  3.26517637563756
 6 -2.09167451025102 -1.01352636673667  0.00791739943994
 6 -0.67963635173517 -0.75725458025803  0.43103086818682
 6  0.38587309320932 -1.21630854815482 -0.73944980218022
 8 -0.00559082318232 -1.61305099499950 -1.83230568516852
 8  1.62038711391139 -1.16175259375938 -0.40003499549955
 7 -6.94047722872287  2.64053879577958  0.42156275027503
 6 -5.87257143814381  3.35105183768377  1.01088521392139
 6 -5.96593786628663  4.77427551135114  0.89758130983098
 6 -7.21201426592659  5.05267659065907  0.48636386648665
 6 -7.90088553895390  3.70795939483948  0.25366670297030
 6 -4.93232238863886  5.65897968036804  1.37705370927093
 6 -7.71461805000500  6.37991770947095  0.20412546684668
 6 -8.80254777757776  6.74396368696870 -0.63291190749075
 7 -9.13996739603960  1.05622409700970 -0.27410438583858
 6 -9.82718449584958  2.25590889258926 -0.52505131583158
 6 -11.23492973097310  2.08109174867487 -0.82452652395240
 6 -11.34852029252925  0.65082912431243 -1.00112017361736
 6 -10.04610131853185  0.14828777937794 -0.67160064046405
 6 -12.20848504570457  3.20619318841884 -1.18310273937394
 6 -12.51954205160516 -0.00187928632863 -1.48610084508451
 6 -12.74876934653465 -0.28735338173817 -2.92462964736474
 7 -7.59006213191319 -1.20393470797080 -0.17855420052005
 6 -8.68440442594259 -1.94016063026303 -0.51602853125313
 6 -8.31905551275127 -3.40843544504450 -0.60839457795780
 6 -6.89407143534353 -3.44209009330933 -0.40290239553955
 6 -6.56293483308331 -2.09326112521252  0.01256341044104
 6 -9.19525351045104 -4.50713411341134 -1.17504001080108
 6 -5.83284940644064 -4.34201942884289  0.00394306390639
 8 -5.80260211631163 -5.60522703140314 -0.07991107070707
 6 -4.61787739233923 -3.47332444514451  0.43306855645565
 6 -4.02979539433943 -3.90417411261126  1.71660354565457
 8 -4.16716932863286 -3.26153710961096  2.83338380238024
 8 -3.19589210491049 -4.90845112641264  1.53373911691169
 6 -2.67663119341934 -5.59909081438144  2.74725119541954
 6  2.81299134253425 -1.39359805040504 -1.31540574587459
 6  4.06035014481448 -1.06166078947895 -0.53649026222622
 6  4.87447974817482 -0.07344829722972 -0.95614101870187
 6  4.85468597879788  0.79688353005301 -2.11183372237224
 6  6.20619433153315  0.06611924022402 -0.18951041414141
 6  7.50251447864786 -0.59540887398740 -0.80949830323032
 6  8.75500897789779 -0.45013021992199  0.02025714581458
 6  10.09584143884388 -0.87375185778578 -0.79738071797180
 6  10.08634242764277 -2.36873203900390 -1.07694180888089
 6  11.32414308890889 -0.34796446704670  0.13954148614861
 6  12.65272385698570 -0.66916539493949 -0.40647852505251
 6  13.80253666086609 -0.14768747184718  0.28329469206921
 6  15.24385620672067 -0.20178321412141 -0.34145798159816
 6  15.65781310891089 -1.56736089798980 -0.73976371187119
 6  16.17870046724673  0.56495740694069  0.56398966336634
 6  17.54843168186819  0.91492722662266  0.00156564876488
 6  18.44099395039504  1.93159177817782  0.66429512241224
 6  19.88019791569157  2.14105973127313  0.09303206360636
 6  19.81092202170217  2.84815424662466 -1.34353076207621
 6  20.82405287088709  2.89957369346935  0.99400580128013
 1 -3.79089725732573  3.40785717001700  1.72580481878188
 1 -9.76974455945595  4.42150158665867 -0.26091476537654
 1 -10.69216755665567 -1.87990400040004 -1.24605449934993
 1 -2.72320837233723 -1.30934129822982  2.12308410311031
 1 -2.19898046564656  1.43748369946995  1.15782528092809
 1 -2.09107662356236  0.13670109180918  3.48098482378238
 1 -2.95009831013101  1.91608625222522  3.49698880008001
 1 -3.69520009940994  0.28543924622462  3.71053989968997
 1 -2.18279773367337 -2.06552042974297 -0.59347620392039
 1 -2.15013095169517 -0.14179670537054 -0.72481114181418
 1 -0.20030435383538  0.07172129802980  0.65514154465447
 1 -0.24579759265927 -1.34802398239824  1.22647976697670
 1 -4.11076573397340  5.79597773537354  0.46189932793279
 1 -5.24037525632563  6.93081820052005  1.64558015501550
 1 -4.16119789678968  5.45630547994800  2.14152521312131
 1 -7.20281037993799  7.30351738543854  0.59224053035304
 1 -9.66011140394039  6.08182616811681 -1.26534593059306
 1 -9.10474475367537  7.95207049234924 -0.76120582468247
 1 -12.39495404280428  3.89798029652965 -0.50216261486149
 1 -11.69575849814982  3.71766673137314 -2.06687390489049
 1 -13.07599499949995  2.92380799899990 -1.72887593449345
 1 -12.46998182408241 -0.95680580688069 -1.02997757155716
 1 -13.39206994929493  0.52025168656866 -0.82902657995800
 1 -12.84885940094009  0.74653166826683 -3.33021186458646
 1 -11.78355456315632 -0.82402179857986 -3.26715751245125
 1 -13.66490456365637 -1.06549390749075 -3.20616447514752
 1 -10.40058760556056 -4.32202429432943 -0.70093589748975
 1 -9.30674258445844 -4.58988600210021 -2.28177869846985
 1 -8.79976168166817 -5.33048382828283 -0.89739439293929
 1 -3.73403913121312 -3.49248659996000 -0.39030209000900
 1 -1.76642351035104 -6.11578818251825  2.25816152015202
 1 -2.63345991769177 -4.61180091909191  3.35164961526153
 1 -3.45783683908391 -6.28706570657066  3.15414693489349
 1  2.93101489328933 -2.49547628872887 -1.63665079837984
 1  2.57828967186719 -0.69227066506651 -2.25147276657666
 1  4.16806824272427 -1.79270734123412  0.27058610301030
 1  5.50312557705771  1.77576527432743 -1.93768635603560
 1  5.39911687548755  0.25158111331133 -3.04531759885989
 1  3.82789927512751  1.05102790869087 -2.36995235213521
 1  6.56176627372737  1.08023116701670 -0.07688288868887
 1  6.07816564236424 -0.45814139943994  0.77519721382138
 1  7.32667332043204 -1.65878992439244 -1.18972381848185
 1  7.59812956405641 -0.02187668306831 -1.75866472417242
 1  8.86301074267427  0.68509636113611  0.41873313181318
 1  8.86308903880388 -1.26575366236624  0.92891574447445
 1  10.10113697899790 -0.39259906160616 -1.65507623052305
 1  9.13984117171717 -2.59462812561256 -1.68620784628463
 1  10.97074393539354 -2.54260593699370 -1.83124887048705
 1  10.03953239503950 -2.94898677617762 -0.09609313081308
 1  11.27917210731073  0.70853847764776  0.38622208480848
 1  11.00908847824782 -1.15485397089709  1.04527504920492
 1  12.57325383338334 -1.81109498849885 -0.19976341914191
 1  12.94417473407341 -0.30143741664166 -1.51241455995600
 1  13.77793882938294  0.89419981578158  0.56036121022102
 1  13.86270110561056 -0.73939689368937  1.33654323052305
 1  15.16398789618962  0.53879707950795 -1.15805245504550
 1  15.05484087908791 -2.03610189398940 -1.45416943744374
 1  16.57204394069407 -1.63362920242024 -1.44536592919292
 1  15.64294701230123 -2.35934555315532  0.09191189248925
 1  15.55238242984298  1.47632072077208  0.82972681628163
 1  16.34393071577158 -0.02246843774377  1.59463145994599
 1  18.07687376467647 -0.12671114971497  0.03528884418442
 1  17.52200492589259  1.15471843494349 -1.01432873747375
 1  17.96124783068307  3.06558528622862  0.77667416241624
 1  18.57550056425643  1.72539137593759  1.71814306990699
 1  20.35419364916492  1.01333206690669 -0.07201426432643
 1  19.48775147234724  3.89008114021402 -1.09862483668367
 1  20.69901841904190  2.73390899469947 -1.71714703810381
 1  19.21499973577358  2.16593663026303 -1.95137031823182
 1  20.70365537863787  2.47715726602660  2.10535446324632
 1  21.78540238193819  2.83731184778478  0.45995789558956
 1  20.59466712941294  3.89615928642864  1.35634823922392
 1 -7.25979976247625  1.72003627562756  0.61247450425043
 1 -7.75196656325633 -0.12608748434844 -0.16232955315532

