%nproc=4
%Mem=2GB
# td=(NStates=1) B3LYP/SVP 

TD

0 1
 6 -5.09166201670167 -1.89439924592459  0.44077270237024
 6 -4.76835299349935  2.81306153515352  1.51700837693769
 6 -9.31475071867187  3.25685188148815 -0.29703431963196
 6 -9.76634848594859 -1.51637323192319 -1.00214636003600
 7 -5.28416516451645  0.43665012611261  0.73561101910191
 6 -4.61970006760676 -0.61186016961696  0.76419250485049
 6 -3.12855460916092 -0.50377086058606  1.29971322072207
 6 -3.11623577597760  0.95448056565657  1.95804030943094
 6 -4.49023398149815  1.41796884228423  1.39266117751775
 6 -3.13447994589459  0.89272757375738  3.48044790279028
 6 -2.21505684848485 -0.51486650075008  0.06609321702170
 6 -0.67174556265627 -0.68821767656766  0.58289605470547
 6  0.32861736763676 -1.04393131043104 -0.53927978517852
 8 -0.00074033813381 -1.39501919181918 -1.66112856745675
 8  1.64514959015902 -0.72464888338834 -0.13613860586059
 7 -7.00711389238924  2.78244298619862  0.49937053105311
 6 -5.91537571857186  3.41757849034903  1.09916404180418
 6 -6.19954122662266  4.75928401220122  1.02526407810781
 6 -7.53137620212021  4.96296761976198  0.48985421552155
 6 -8.00834628502850  3.63894249314932  0.15371670797080
 6 -5.29731888828883  5.81040482288229  1.47712371627163
 6 -8.10654724292429  6.23390310801080  0.29735478977898
 6 -9.18932645544554  6.61484077467747 -0.56580519681968
 7 -9.18197159645965  0.86246472107211 -0.49406638203820
 6 -9.84493627102710  2.02000530223022 -0.57480629132913
 6 -11.35192143014301  1.79024266376638 -0.89210328162816
 6 -11.42434787528753  0.41045508690869 -1.05838590019002
 6 -10.12383909230923 -0.14085113451345 -0.83165664606461
 6 -12.27129132633263  2.97067963706371 -0.98730315941594
 6 -12.69020911831183 -0.41681077947795 -1.40670290529053
 6 -12.63950842044204 -0.82281692809281 -2.92758994339434
 7 -7.48706183188319 -1.29176349084908 -0.26585293039304
 6 -8.55024100960096 -2.11648826302630 -0.59971690009001
 6 -8.08017162436244 -3.38567316881688 -0.65318905740574
 6 -6.71320334853485 -3.33539942424242 -0.34792689798980
 6 -6.41472001160116 -2.05603740284028 -0.06389423532353
 6 -8.92640662576258 -4.64222762276228 -1.00310281708171
 6 -5.61809793129313 -4.19354458135814 -0.09422675307531
 8 -5.57287914401440 -5.39087559625963 -0.07060013961396
 6 -4.47256286088609 -3.21912902560256  0.48114336393639
 6 -3.96697911271127 -3.82483617881788  1.79141102640264
 8 -4.36721933363336 -3.46600755665567  2.77893835783578
 8 -2.97592010771077 -4.64541482278228  1.48248399139914
 6 -2.53031656195620 -5.37466837213721  2.70223669396940
 6  2.66539658305831 -1.00168885948595 -1.10995520082008
 6  3.94002811261126 -0.55963058645865 -0.53320993419342
 6  4.89850215041504  0.09367841544154 -1.17929333393339
 6  4.77693820402040  0.63143698539854 -2.58480101910191
 6  6.25432914501450  0.34133676197620 -0.41029249234923
 6  7.49674390159016 -0.26344567766777 -1.13364071747175
 6  8.88847232423242  0.06679147224722 -0.42014689458946
 6  10.22057391209121 -0.65513999659966 -1.08891987188719
 6  10.05631942534253 -2.12231739753975 -1.18309242394239
 6  11.34568524312431 -0.11884155475548 -0.30607307530753
 6  12.69750833543354 -0.56664514291429 -0.93608148534854
 6  13.78687509470947  0.02941023792379  0.10030639323932
 6  15.37069889098910 -0.21091412721272 -0.38198203400340
 6  15.63789111671167 -1.70274443634363 -0.47427716321632
 6  16.24619721692169  0.48816972817282  0.52079534393439
 6  17.75400223892389  0.56319205310531 -0.00976548434843
 6  18.67350720172017  1.42386100510051  0.80806949984998
 6  20.15246514241424  1.35122074737474  0.41657441784178
 6  20.35581651115112  1.89637906910691 -0.96701311031103
 6  20.96869733533353  2.23921765786579  1.37311371207121
 1 -4.15544371197120  3.43352973727373  2.19621185948595
 1 -10.09508709370937  4.00863029952995 -0.45551422532253
 1 -10.56718505840584 -2.24851086108611 -1.14149404330433
 1 -3.09988604010401 -1.19306967106711  2.14255605030503
 1 -2.37259782738274  1.49738969006901  1.45651514991499
 1 -2.11816933283328  0.52698011971197  3.88328505380538
 1 -3.11903520382038  1.92627727132713  3.80152925412541
 1 -3.93860443984398  0.38689939223922  3.84675352105211
 1 -2.38645809970997 -1.50835471317132 -0.35131198749875
 1 -2.38678461706171  0.28748622292229 -0.56356501720172
 1 -0.38853317671767  0.10613473937394  1.09748577907791
 1 -0.50720373327333 -1.59285846584658  1.22949006800680
 1 -4.44364902230223  5.72403054065407  1.14681781978198
 1 -5.71428264706471  6.74423954265427  1.33309890689069
 1 -5.11795357235724  5.60105995539554  2.64920598119812
 1 -7.84012411131113  6.94417145084508  1.10071137743774
 1 -9.58967436023602  5.84436242174217 -1.14981437743774
 1 -9.59838411761176  7.55025031033103 -0.43776348044804
 1 -12.12808735613561  3.75088558705871 -0.19543194179418
 1 -12.19112803510351  3.66821178587859 -2.01421863936394
 1 -13.39942734273427  2.59766538473847 -1.07235028192819
 1 -12.57127195309531 -1.50831095739574 -0.76994156795680
 1 -13.55985672797280  0.15512517391739 -1.14218789608961
 1 -12.59516403140314  0.03941095619562 -3.67110595399540
 1 -11.87399360706071 -1.35913530993099 -3.24074487118712
 1 -13.61911998519852 -1.24909226732673 -3.12943680238024
 1 -9.87752529932993 -4.58442053395339 -0.39739554345435
 1 -9.26846875707571 -4.51208822232223 -1.95365588618862
 1 -8.44668637413741 -5.50513129302930 -0.65087974147415
 1 -3.49066479377938 -3.34990234153415 -0.08434149394940
 1 -2.03899076707671 -6.16599320302030  2.26680238423842
 1 -2.17557412911291 -4.64901464046405  3.37158160846085
 1 -3.38021907730773 -5.68589558955895  3.44950647084709
 1  2.56127791959196 -2.09279602070207 -1.34077121042104
 1  2.81683352625263 -0.65698713671367 -2.04682230153015
 1  4.08772020792079 -0.86414448494849  0.39867891229123
 1  5.02408767326733  1.73065076287629 -2.59237182458246
 1  5.49202616641664  0.22491844704470 -3.33805687278728
 1  3.77623410861086  0.53817662356236 -2.90145550245025
 1  6.27367746484648  1.55766891079108 -0.57802300270027
 1  6.02095992179218  0.18422283698370  0.65297499159916
 1  7.48348900200020 -1.34910895629563 -1.27748259435944
 1  7.59369912101210  0.07254275887589 -2.21950080778078
 1  8.93803824542454  1.07258511001100 -0.21741048254825
 1  8.62664539443944 -0.22292937993799  0.47398025092509
 1  10.25725259055906 -0.00148995069507 -2.04305502840284
 1  9.06992418001800 -2.16248491129113 -1.94777400290029
 1  10.93836069706971 -2.62668434483448 -1.50206595219522
 1  9.96497493929393 -2.81488336583658 -0.34638816031603
 1  11.26172036213621  0.93441106490649 -0.03228976637664
 1  11.18639620902090 -0.58879736523652  0.69164968666867
 1  12.56978348634863 -1.66229010801080 -0.88382182498250
 1  12.90248056465646 -0.14691196409641 -1.97575089358936
 1  13.64164520002000  1.13542393819382  0.29961513561356
 1  13.53867870337034 -0.47621057505751  1.03586316251625
 1  15.43805530293029  0.13083628342834 -1.35508215801580
 1  14.73405880088009 -1.89115739953995 -1.34237825832583
 1  16.69936667296730 -1.92078791829183 -0.89868126072607
 1  15.55841855945595 -2.34065368396840  0.38174087538754
 1  15.89760695229523  1.51256434513451  0.69515335893589
 1  16.14250057275728  0.07363117221722  1.63166516331633
 1  18.24242031933193 -0.53566204480448  0.07998331363136
 1  17.53813653905391  0.85134809790979 -1.07249455405541
 1  18.42788449434943  2.74429315701570  0.83190968596860
 1  18.54700771497150  1.39537837463746  2.08675993159316
 1  20.54603283308331  0.31046177987799  0.35861879897990
 1  20.09300199739974  2.94359649174918 -1.10442541674167
 1  21.32906142334233  1.83933953775378 -1.32525784918492
 1  19.50006824262426  1.58350838743874 -1.96523170437044
 1  21.02434744784479  1.82805235553555  2.19243317111711
 1  22.03877771947194  2.18068618521852  1.21552345214522
 1  20.67407507020702  3.35584525502550  1.30906351075108
 1 -6.98192197469747  1.82332660466047  0.75343860066007
 1 -7.79990135673567 -0.27800267586759 -0.03107642784278

