%nproc=4
%Mem=2GB
# td=(NStates=1) B3LYP/SVP 

TD

0 1
 6 -5.06004885538554 -1.89740954695470  0.45139376447645
 6 -4.68019417761776  2.85598582758276  1.46266294239424
 6 -9.36850609420942  3.35240143644364 -0.24084870107011
 6 -9.86604845594559 -1.52283387798780 -0.74847099249925
 7 -5.15879262726273  0.55540200130013  0.78764622262226
 6 -4.47528562616262 -0.60403938753875  0.81224731033103
 6 -3.04705645934594 -0.40746122962296  1.26314956435644
 6 -2.98149230163016  0.93268838643864  1.89029353475348
 6 -4.33000795889589  1.50016706210621  1.30079199059906
 6 -2.98670516841684  0.96090439143914  3.38176803480348
 6 -2.04069941274127 -0.66337135123512  0.08400500820082
 6 -0.54567295539554 -0.62807166196620  0.44445221032103
 6  0.33911841774177 -0.91885880318032 -0.78973483068307
 8  0.03591332723272 -1.45760545044504 -1.83399585418542
 8  1.66386146134613 -0.72083850235024 -0.41848684068407
 7 -7.05347852885289  2.76548129002900  0.59703029702970
 6 -5.97138131913191  3.47446417891789  1.09726385178518
 6 -6.30472174467447  4.83385146894689  1.15545709740974
 6 -7.53782684718472  5.05506682968297  0.56542177227723
 6 -8.08823427382738  3.64532313121312  0.27735907220722
 6 -5.23629278567857  5.78013179557956  1.55330133403340
 6 -8.02213880208021  6.32078179587959  0.31878693299330
 6 -9.00024754755476  6.57102639323932 -0.66472508880888
 7 -9.21768516781678  0.85790426502650 -0.40669764516452
 6 -9.88644042144214  2.09780308200820 -0.49195800650065
 6 -11.29454569256926  1.82025566506651 -0.95889996129613
 6 -11.38828426892689  0.44009805120512 -1.17260732233223
 6 -10.09851656005601 -0.10149719911991 -0.81917539793979
 6 -12.31507570477048  2.87664023312331 -1.17727215631563
 6 -12.63399349674967 -0.30916001440144 -1.57402963796380
 6 -12.70976544614462 -0.56583122952295 -3.06710389478948
 7 -7.49298242394239 -1.29354366886689 -0.16383272837284
 6 -8.58120410591059 -2.05346196039604 -0.53112004040404
 6 -8.13765737293729 -3.45601020252025 -0.56963070157016
 6 -6.82056408460846 -3.45436132043204 -0.21315342064206
 6 -6.39911845144514 -2.00539233833383  0.05313746784678
 6 -8.91887587268727 -4.64953835383538 -0.85800830763076
 6 -5.67324344584458 -4.24711993889389 -0.01866919731973
 8 -5.52077393349335 -5.47557406610661 -0.06749982958296
 6 -4.46085168976898 -3.29347646034603  0.33261851145115
 6 -3.83855627042704 -3.82953664886489  1.61115300060006
 8 -3.97326993869387 -3.42853380928093  2.80070053405341
 8 -2.92108462416242 -4.82418269956996  1.39698544154415
 6 -2.37028055835584 -5.61152205750575  2.36967343764376
 6  2.66288633203320 -0.86819551015101 -1.38530273557356
 6  3.96196030583058 -0.56388101150115 -0.67029364256426
 6  4.92999529972997  0.15337438503850 -1.19672507710771
 6  4.87950846104610  0.91372521422142 -2.45926846584658
 6  6.19674338643864  0.32123475177518 -0.39940140324032
 6  7.41637586478648 -0.43629296239624 -0.96428378177818
 6  8.66612008900890 -0.30269547644764 -0.20018489838984
 6  9.99680153485349 -0.86815129772977 -0.66910789068907
 6  9.86633042644264 -2.30610577637764 -0.91601571627163
 6  11.20620129472947 -0.49637930853085  0.19383691569157
 6  12.63978256285629 -0.76270474887489 -0.51630950815082
 6  13.77770417761776 -0.13181588468847  0.35640200280028
 6  15.18692051315131 -0.28560159595960 -0.27566140194019
 6  15.62021934953495 -1.73919808170817 -0.41498123362336
 6  16.19872246944695  0.52132304350435  0.61272453685369
 6  17.55527236593659  0.69974570847085 -0.03293780158016
 6  18.56265611661166  1.66773539253925  0.68854754765477
 6  20.03908380428043  1.54959058435844  0.16718947934793
 6  20.14327525702570  2.01703113431343 -1.34095050405041
 6  20.84363482908291  2.55027876397640  1.03026942764276
 1 -3.84184235183518  3.59764614891489  1.87603984228423
 1 -10.13785137013701  4.08506794329433 -0.48198687258726
 1 -10.78810715061506 -2.22753876387639 -0.86158605250525
 1 -2.82315836733673 -1.22682304640464  2.02060385508551
 1 -2.21074164176418  1.50493044414441  1.65112461086109
 1 -2.08124564046405  0.48090551225122  3.61437816311631
 1 -3.07967126742674  2.10864550815081  3.71231033223322
 1 -3.96923750315031  0.28308901120112  3.75678452415242
 1 -2.14248370227023 -1.63806768446845 -0.48467532383238
 1 -2.10069600820082  0.19498697299730 -0.71746040674067
 1 -0.33965828922892  0.30397452335234  0.73132916341634
 1 -0.17055006790679 -1.11302048204821  1.35917303630363
 1 -4.51443610101010  5.98699683728373  0.63285642364236
 1 -5.71751297009701  6.73820893959396  1.95356095309531
 1 -4.66448822582258  5.73501335073507  2.51789284988499
 1 -7.59574967386739  7.10207724142414  0.76593790009001
 1 -9.36298169096910  5.97837582308231 -1.47305670167017
 1 -9.26233051225122  7.62278756405641 -0.78027773187319
 1 -12.52198674607461  3.26008650715072 -0.17388978757876
 1 -11.92305122742274  3.66054101880188 -1.70948816631663
 1 -13.21083848384839  2.43577919611961 -1.64713776067607
 1 -12.47106193209321 -1.26678680498050 -1.01268584238424
 1 -13.56021676397640  0.18330799219922 -1.19933361066107
 1 -13.30533504850485  0.44399141424142 -3.60246909030903
 1 -11.69936614431443 -0.83313270967097 -3.38412920962096
 1 -13.46316438963896 -1.47664502260226 -3.27623148184818
 1 -10.00315786258626 -4.45747783968397 -0.42006781068107
 1 -9.01897380758076 -4.90544755825583 -2.09768028862886
 1 -8.60826253175318 -5.68243902380238 -0.23328798229823
 1 -3.92572830013001 -3.37261461276128 -0.52766582638264
 1 -1.82655952395240 -6.47709431313131  1.79067477147715
 1 -1.77255382708271 -4.82072181118112  2.91968641894189
 1 -3.03679473487349 -6.10437743774377  3.24935645584558
 1  2.70662245404540 -2.06494323542354 -1.59393652695270
 1  2.44046588948895 -0.26229766776678 -2.22197981728173
 1  4.31341277717772 -1.34717278777878  0.05406445084508
 1  5.21643690819082  1.98248594639464 -2.30992357975798
 1  5.61248821262126  0.35781173637364 -3.24924799189919
 1  3.84879136433643  0.83101590749075 -2.77316267316732
 1  6.41307140424042  1.33104624852485 -0.32889809020902
 1  6.15180300610061 -0.00010559585959  0.59184887898790
 1  7.12389304240424 -1.61255530093009 -1.13517836393639
 1  7.58860861196120 -0.22227672307231 -1.93776263396340
 1  8.67126156775678  0.84467231873187 -0.02896163766377
 1  8.57317004690469 -0.75545263226323  0.90886373927393
 1  10.24668153345334 -0.44713451515152 -1.72972369526953
 1  9.03187037463747 -2.37087575037504 -1.51747097259726
 1  10.72211907290729 -2.90016169256926 -1.33265901150115
 1  9.51375981778178 -2.74249612711271  0.03660013851385
 1  10.92770696079608  0.44531215501550  0.62607607020702
 1  11.05151272067207 -0.98470695619562  1.10436095779578
 1  12.81922843084308 -1.75633951295130 -0.76770021282128
 1  12.88542885948595 -0.22798007090709 -1.54204752325232
 1  13.45750678617862  1.04973536933693  0.44508968306831
 1  13.79367420292029 -0.70255320932093  1.29360893709371
 1  15.16956845424543  0.45242844264427 -1.28516516631663
 1  14.86178157315732 -2.28567685148515 -1.07348136863686
 1  16.51447818411841 -1.76299213871387 -0.92570396299630
 1  15.67733045064506 -2.11497111571157  0.44486718801880
 1  15.75776296789679  1.62428551725173  0.60654449804981
 1  16.25404172687269  0.27954176327633  1.87390938773877
 1  18.02133821112111 -0.33264174277428 -0.15598028272827
 1  17.42171489688969  1.03395635873587 -1.16303360796080
 1  18.07583928982898  2.76829555725573  0.77831432643264
 1  18.45329834403440  1.04933377017702  1.84051530713071
 1  20.31519974977498  0.65927666136614  0.08676161326133
 1  19.42585528272827  2.97196932903290 -1.35281025522552
 1  21.13127164436444  2.19237484128413 -1.57781310471047
 1  19.97079531533153  1.16476651325132 -2.19147432863286
 1  20.40171518461846  2.46870642094209  2.09545347314732
 1  21.89411325302530  2.48469658625863  0.72798469826983
 1  20.38946660936094  3.56603627412741  0.67287989238924
 1 -7.09080286278628  1.61109538153815  0.80036329312931
 1 -7.52234360096010 -0.21133600920092 -0.35041836203620

