%nproc=4
%Mem=2GB
# td=(NStates=1) B3LYP/SVP 

TD

0 1
 6 -5.07724057455746 -2.03251305730573  0.35659428452845
 6 -4.66252241044104  2.76931716071607  1.42889956605661
 6 -9.32147139073907  3.31376757305731 -0.24752936913691
 6 -9.81926377747775 -1.39965155975598 -0.84156030143014
 7 -5.14545129312931  0.42270873197320  0.79411686968697
 6 -4.55356345394539 -0.73679266286629  0.76399248484848
 6 -3.02835458915892 -0.64277476097610  1.24089733913391
 6 -3.06340049244924  0.84063918151815  1.86247075247525
 6 -4.41697665576558  1.35398244364436  1.25804771617162
 6 -2.95402190009001  0.83933223422342  3.34459431743174
 6 -1.93322866566657 -0.71529654375438 -0.02682607490749
 6 -0.56981536963696 -0.82073092789279  0.57837560266027
 6  0.32347685358536 -0.95442235953595 -0.59388524572457
 8  0.00423015891589 -1.07199688958896 -1.82759521412141
 8  1.64840991619162 -0.88355477397740 -0.26873186518652
 7 -6.96942012301230  2.81117585948595  0.35568616261626
 6 -5.85435961696170  3.42181891439144  0.85314944034403
 6 -6.20589186168617  4.81595967976798  0.90254180588059
 6 -7.57123018751875  4.95961728472847  0.41052628272827
 6 -8.03521897229723  3.66393499239924  0.12808414471447
 6 -5.20936009240924  5.86664044644464  1.42490849474948
 6 -8.12214880308031  6.32329204690469  0.17278233253325
 6 -9.11121864466447  6.62335162576258 -0.71546016231623
 7 -9.32903630293029  0.88803727832783 -0.37351432683268
 6 -9.92286406380638  2.08814211591159 -0.43581239193919
 6 -11.37558379637964  1.87003064256426 -0.91192526382638
 6 -11.47471291179118  0.52876691809181 -0.94347440904090
 6 -10.17090379877988 -0.10684773417342 -0.71294477487749
 6 -12.26675087228723  3.09524209330933 -1.15239966906691
 6 -12.71342143954396 -0.28662776117612 -1.44465670067007
 6 -12.79633410301030 -0.49593423982398 -2.95933311771177
 7 -7.47044016971697 -1.33190750525052 -0.15881222632263
 6 -8.59371535703570 -1.98960557475748 -0.54846177457746
 6 -8.21763537073707 -3.46007060856086 -0.54026776527653
 6 -6.90832286048605 -3.51142702700270 -0.17264937023702
 6 -6.42048058765877 -2.12522432153215  0.02274442854285
 6 -9.06854083918392 -4.70218361836184 -0.94848735553555
 6 -5.70251637313731 -4.39113434033403  0.04872754235424
 8 -5.70278213431343 -5.61337784648465  0.12838975937594
 6 -4.49173477807781 -3.43154026672667  0.45320056965697
 6 -3.91531394619462 -3.87703139833983  1.71587347264726
 8 -4.18306091779178 -3.40706166206621  2.75045550955095
 8 -2.92174469016902 -4.77092737403740  1.55231097409741
 6 -2.28991252155215 -5.29485039033903  2.66955342564256
 6  2.66081612501250 -1.00498918951895 -1.30611481678168
 6  4.01625573537354 -0.69655427882788 -0.62304891809181
 6  4.98658095829583  0.12962200980098 -0.95613101770177
 6  4.82100261046105  1.10660450215022 -2.09486202520252
 6  6.32333604570457  0.17568019631963 -0.28283974707471
 6  7.55724995219522 -0.38259759285929 -1.06884423782378
 6  8.78382185918592 -0.37570277717772 -0.24710959085909
 6  10.08785063976398 -0.59693417601760 -0.96663764366437
 6  10.14222801620162 -2.08532369816982 -1.60072418711871
 6  11.25000567516752 -0.34710438103810 -0.14871733973397
 6  12.68267685228523 -0.56519499789979 -0.66072394959496
 6  13.76955336253625 -0.06608931203120  0.22328869146915
 6  15.16173799489949 -0.26362939873987 -0.44133796959696
 6  15.57769509710971 -1.73705786768677 -0.64882461796180
 6  16.22350494769477  0.53774468566857  0.47020028442844
 6  17.67620445914591  0.69804553845385 -0.06400090789079
 6  18.61882173317332  1.49357797679768  0.80800949384939
 6  20.09505940184019  1.57039266456646  0.34434719511951
 6  20.30623155265527  2.14574400560056 -0.99263567256726
 6  20.82203266886689  2.40763449954996  1.48409481018102
 1 -3.97244541214121  3.35628201250125  2.02044428272827
 1 -10.00084766976698  4.32280171667167 -0.21183985788579
 1 -10.57172551245124 -1.89855586558656 -1.23770366426643
 1 -2.56282233373337 -1.40729109320932  1.99680147484749
 1 -2.19257982558256  1.39400935203520  1.55799529792979
 1 -1.91702921882188  0.46668409010901  3.85100182548255
 1 -3.09147244754476  1.90555519911991  3.55048414961496
 1 -3.59542012141214  0.31005170747075  3.96076492219222
 1 -2.32634208810881 -1.53148702640264 -0.56471332763276
 1 -1.97760369896990  0.26203367766777 -0.75690435113511
 1 -0.40427475087509  0.00327445334533  1.22351838233823
 1 -0.67539055195520 -1.65426460646065  1.33193031203120
 1 -4.10939559695970  5.89543768136814  1.02451558955896
 1 -5.62829404820482  7.00605572427243  1.24831042804280
 1 -5.19217099409941  5.68325817521752  2.70579163976398
 1 -7.70402050095009  7.20978801250125  0.95629693599360
 1 -9.14627001980198  5.94575256075608 -1.58695809180918
 1 -9.56106038523852  7.54606989228923 -0.54893459755976
 1 -12.25641018841884  3.70808130663066 -0.26768916751675
 1 -12.01198012031203  3.58669363406341 -1.96503372087209
 1 -13.43497089708971  2.70025564376438 -1.27117016391639
 1 -12.62508733463346 -1.27960808710871 -0.89116369016902
 1 -13.68945968826883  0.20630029142914 -1.16441011831183
 1 -12.64266878187819  0.62956997209721 -3.38277712111211
 1 -11.97860406810681 -1.21725112151215 -3.23683448014801
 1 -13.79346741994200 -0.85641299939994 -3.25653951265127
 1 -10.15065261206121 -4.69119121102110 -0.21711751565157
 1 -9.53455536573657 -4.58935594909491 -2.01662218281828
 1 -8.34145585108511 -5.37018779867987 -0.61045569906991
 1 -3.79406513381338 -3.52892024332433 -0.32386544634463
 1 -1.53911077907791 -6.01034763846385  2.31597730173017
 1 -1.89861643334333 -4.60746048504850  3.51268571887189
 1 -2.86883793919392 -5.78324532453245  3.22630415061506
 1  2.68113990579058 -1.89865660676068 -1.63177031033103
 1  2.30587243014301 -0.18300973897390 -2.20421804110411
 1  4.35457689358936 -1.30882895339534  0.17993703810381
 1  5.31595686018602  2.09464716251625 -2.01512409980998
 1  5.34193115691569  0.99967592279228 -3.04426749384938
 1  3.70135662086209  1.35356816271627 -2.45346070297030
 1  6.32781287838784  1.12257540144014  0.13558835843584
 1  6.08293611941194 -0.59208479377938  0.57077677177718
 1  7.34911556465647 -1.38333237863786 -1.50808565466547
 1  7.55727547864787  0.39627513211321 -1.95700455815582
 1  8.90302474407441  0.62081993349335  0.24824608310831
 1  8.47090982088209 -1.14826191319132  0.66417927082708
 1  10.23104997029703  0.19034923322332 -1.83133385628563
 1  9.35006219381938 -2.36831549434944 -2.48067729322932
 1  11.02464932593259 -2.14425610201020 -2.28411415701570
 1  10.08131657345735 -2.95236711421142 -0.87411093259326
 1  11.07222141224122  0.78565618941894  0.09343280588059
 1  11.26871444084408 -0.99491797729773  0.85884640634063
 1  12.62893940194019 -1.52553643264326 -0.75268871167117
 1  12.82005232183218 -0.22632990589059 -1.70683400190019
 1  13.60288132363236  1.05662605840584  0.37577275137514
 1  13.62177701320132 -0.76439939393939  1.22449202540254
 1  15.33908540594059  0.16955015481548 -1.38066471627163
 1  14.89745514051405 -2.28830711451145 -1.39292331283128
 1  16.67743447974798 -1.81618745824582 -1.21713310591059
 1  15.49743246084608 -2.32452207080708  0.27798049934993
 1  15.65170236183618  1.58051113981398  0.80364420802080
 1  16.46724304700470 -0.23245943684368  1.49110110691069
 1  18.09723580088009 -0.35289376797680 -0.23738842354235
 1  17.79787251265126  1.03614657775778 -1.14355165976598
 1  18.14910661656166  2.46664539223922  0.87027352235223
 1  18.37685069926993  0.86653549034903  1.78737999359936
 1  20.46586481628163  0.52985371907191  0.22880581768177
 1  19.75751844904491  3.19580171227123 -1.11460643484348
 1  21.30986950415041  2.28615421922192 -1.33153847724772
 1  19.89932816861686  1.36764680128013 -1.49717489868987
 1  20.59162417551755  2.05739528982898  2.42062599039904
 1  21.84212805450545  2.52541065766577  1.27302920272027
 1  20.41677934063406  3.40717038753875  1.39508211261126
 1 -7.22152593509351  1.87174144614461  0.24922817961796
 1 -7.56285765236524 -0.40088496409641 -0.18634195439544

