%nproc=4
%Mem=2GB
# td=(NStates=1) B3LYP/SVP 

TD

0 1
 6 -5.16275912641264 -1.98312811881188  0.35557418251825
 6 -4.50220637883788  2.69714994399440  1.22844952105211
 6 -9.16849609320932  3.43237943424342 -0.17857247344734
 6 -9.84447629872987 -1.33943553815382 -0.92433857925793
 7 -5.07194394239424  0.44468092919292  0.76808426642664
 6 -4.48708680628063 -0.82360134373437  0.77582366796680
 6 -3.00371212491249 -0.72253273677368  1.28107135653565
 6 -2.99411356375638  0.74604972257226  1.74791929732973
 6 -4.27534249234923  1.41598864426443  1.20811272267227
 6 -2.92153865176518  0.76631493249325  3.36624648264826
 6 -2.10897624042404 -0.93443845794579  0.13104971267127
 6 -0.65435382348235 -1.19581843664366  0.54586235133513
 6  0.31537604350435 -1.32029894719472 -0.58343420062006
 8  0.08012774867487 -1.65838552845285 -1.79894234883488
 8  1.67624269946995 -1.12487890639064 -0.29590458245825
 7 -6.80845402640264  2.71809655155516  0.48961955595560
 6 -5.68942312331233  3.40508724122412  0.94463858925893
 6 -5.94321559405941  4.75913399719972  1.01544309600960
 6 -7.21554461896190  4.95750707370737  0.56488171827183
 6 -7.81793724412441  3.68572717161716  0.24690602690269
 6 -5.01874103050305  5.79578336073607  1.49971597549755
 6 -7.95487207540754  6.32848256595660  0.43936899119912
 6 -8.84584210701070  6.58677796839684 -0.49635825212521
 7 -9.05432883218322  0.94304277887789 -0.42916989238924
 6 -9.77252903030303  2.20076337803780 -0.40577938863886
 6 -11.20611684968497  2.01875551505151 -0.83095716701670
 6 -11.38644408490849  0.70114415581558 -0.98170823242324
 6 -10.12584929332933  0.09288223882388 -0.80054353475348
 6 -12.14912911011101  3.16278884798480 -0.96491092019202
 6 -12.53824392179218  0.04036493809381 -1.63803603860386
 6 -12.57651212081208 -0.21434608100810 -3.20296748114812
 7 -7.43460658635864 -1.19147346184618 -0.30225657075708
 6 -8.63702968846885 -1.90059667386739 -0.68815574397440
 6 -8.24570817801780 -3.36136073757376 -0.70895463396340
 6 -6.90629265746575 -3.45558144244424 -0.25308741404140
 6 -6.45925446504650 -2.04091589068907 -0.01308915481548
 6 -9.22006599169917 -4.38584198419842 -1.00811331813181
 6 -5.87648376987699 -4.24686991389139  0.10613328292829
 8 -5.95220707680768 -5.50187669636964  0.04366128652865
 6 -4.64837044164416 -3.34125123782378  0.36834208380838
 6 -3.99371178597860 -3.80124381958196  1.80140202550255
 8 -4.32025463716372 -3.34375533143314  2.79744020802080
 8 -3.18767128282828 -4.80505078637864  1.60870661366137
 6 -2.66517004730473 -5.55774667996800  2.71467793809381
 6  2.70207025042504 -1.33610230083008 -1.19312351765177
 6  3.92047615741574 -0.86468109150915 -0.58700531373137
 6  4.93932623282328 -0.11226217861786 -1.19128453305331
 6  4.84244475467547  0.26113995569557 -2.68014055305531
 6  6.19504321642164  0.25277790609061 -0.44014547764776
 6  7.41666589378938 -0.70143947704770 -0.95924327772777
 6  8.79870334733473 -0.37881308820882 -0.22418729862986
 6  10.06352820752075 -0.94691917451745 -0.80542152205221
 6  9.99122291569157 -2.37295246104610 -0.95225934063406
 6  11.25694636923692 -0.30827049764976 -0.03128559655966
 6  12.65458404300430 -0.50551903030303 -0.62083996119612
 6  13.71980838803880  0.04235153205321  0.10970733333333
 6  15.17757957905791 -0.00365340114011 -0.33655749154915
 6  15.65914324192419 -1.54972913481348 -0.43759349484949
 6  16.12778537573757  0.80650156135614  0.48953221762176
 6  17.57378421712171  0.94426015991599 -0.10364487228723
 6  18.35687553855385  2.01591021002100  0.70325901880188
 6  19.75893578947895  2.01548717401740  0.32295505590559
 6  20.07954888438844  2.46278570977098 -1.13817022602260
 6  20.74211467706771  2.80304404050405  1.17226362706271
 1 -3.81661982958296  3.42389877417742  1.89650188848885
 1 -9.82418000300030  4.38078751525153 -0.11619029292929
 1 -10.57341568146815 -1.98258426842684 -1.43402329622962
 1 -3.12484853635363 -1.37307767186719  2.06093788848885
 1 -2.05628619621962  1.34245419651965  1.33684318271827
 1 -1.90410792669267 -0.02396497479748  3.72891961726173
 1 -2.64643794409441  1.80874551815182  3.77810691189119
 1 -3.84817539693969  0.34114481678168  3.94336318201820
 1 -2.27711716561656 -2.11174505220522 -0.16831368766877
 1 -2.40465640424042 -0.18592111781178 -0.53601226192619
 1 -0.04512883628363 -0.45551142524252  1.44108013851385
 1 -0.49524253715372 -2.08927810781078  1.03454057305730
 1 -4.21630628802880  5.90706884448445  0.69824296229623
 1 -5.27245846464646  6.70943606230623  1.56265186218622
 1 -4.40191196819682  5.53385323472347  2.51305236583658
 1 -7.73747384628463  7.07266430013001  1.03895520182018
 1 -9.24751014381438  5.99902788828883 -1.14735413141314
 1 -9.44228850805080  7.46618190349035 -0.52144184828483
 1 -12.31575612301230  3.59519001750175 -0.03094549314932
 1 -11.84642356465647  3.92877784248425 -1.83326054355436
 1 -13.07312471247125  2.59675529372937 -1.15087813471347
 1 -12.39944477037704 -0.86763688998900 -1.17953252705271
 1 -13.37371811411141  0.71098075947595 -1.27996167346735
 1 -12.25418993399340  0.74552156725673 -3.90370921432143
 1 -11.68070427812781 -0.86494589098910 -3.43337413411341
 1 -13.44882295549555 -0.90613797189719 -3.49169302800280
 1 -10.22760030683068 -4.56477856975698 -0.34417022092209
 1 -9.43560547074707 -4.29936695019502 -2.08640916151615
 1 -8.59540124562456 -5.40013079297930 -0.74007866136614
 1 -3.92975870317032 -3.50256760806081 -0.41675473527353
 1 -1.90880774877488 -6.39717632133213  2.51681738573857
 1 -2.19145571727173 -4.92924266326633  3.21683613391339
 1 -3.43620467586759 -5.99829682968297  3.27072859305931
 1  2.53488528032803 -2.52499924102410 -1.56068320162016
 1  2.33176501940194 -0.71600303830383 -1.99836745604560
 1  4.13027446334633 -1.05170324082408  0.49855890029003
 1  5.35736100060006  1.31337903570357 -2.86334892229223
 1  5.40613757755776 -0.34030807560756 -3.37646071317132
 1  3.83285977117712  0.40765357125713 -3.20014537143714
 1  6.11343144024402  1.36775991989199 -0.50987618801880
 1  6.03365119091909  0.03753816851685  0.71402109620962
 1  7.19461011411141 -1.73852789818982 -0.76940178627863
 1  7.68953870497050 -0.73859835523552 -2.10737959565957
 1  8.85751019261926  0.69941779327933 -0.21340008150815
 1  8.66283901380138 -0.81615870287029  0.92894574747475
 1  9.92773963926393 -0.59391919361936 -1.88649937283728
 1  9.18492568016802 -2.70792945574557 -1.49535876137614
 1  10.89353621462146 -2.67647932433243 -1.48065381098110
 1  9.97575601740174 -2.83106498399840  0.11655813431343
 1  11.03021721182118  0.84084170797080  0.08155161776178
 1  11.21409897929793 -0.78453693919392  1.12580310201020
 1  12.63083959195920 -1.55172905190519 -0.71991543434343
 1  12.55540585718572 -0.05878315121512 -1.83939725822582
 1  13.28841987748775  1.09176957275728  0.41435660976098
 1  13.90705554105411 -0.39128208220822  1.13176275247525
 1  15.18745024242424  0.29184238403840 -1.39336598639864
 1  15.08762415741574 -2.29245752955296 -1.19423344384438
 1  16.74846158245825 -1.54240007950795 -0.99312070467047
 1  15.75105782338234 -2.17284690329033  0.48866156745675
 1  15.44850204180418  1.81534462316232  0.36619046264626
 1  16.03580990369037  0.53011682078208  1.38975097189719
 1  17.85175125242524 -0.20403888248825 -0.11196588128813
 1  17.40130285568557  1.14994795789579 -1.08430573517352
 1  17.99621132703270  2.95516424412441  0.48555505050505
 1  18.13224623882388  1.64324316111611  1.83058431403140
 1  20.16099432923292  0.86057679137914  0.38297123422342
 1  19.98765146234624  3.72982511461146 -0.93534850905090
 1  21.08027654485448  2.14586018981898 -1.55375069846985
 1  19.14878311411141  2.18182821942194 -1.70776595779578
 1  20.41387640074008  2.31528107840784  2.18148207600760
 1  21.60379422112211  2.88697681428143  0.80708260806081
 1  20.36599426212621  3.74974464496450  1.35165777017702
 1 -6.67739152165216  1.69386365836584  0.18331158795880
 1 -7.44616598319832 -0.28317319291929 -0.29995331553155

