%nproc=4
%Mem=2GB
# td=(NStates=1) B3LYP/SVP 

TD

0 1
 6 -5.08807165766577 -1.98521832783278  0.65533415851585
 6 -4.75689184738474  2.76902713171317  1.48903557965797
 6 -9.31611085468547  3.37075327162716 -0.21082569876988
 6 -9.76586843794379 -1.48331992659266 -1.06133227862786
 7 -5.18844559255926  0.50106656775678  0.80237769576958
 6 -4.55590368796880 -0.72269125272527  0.83583966956696
 6 -3.06330808450845 -0.56262674617462  1.21526477587759
 6 -3.01379553195320  0.86190130773077  1.78830333573357
 6 -4.34269922802280  1.48286533193319  1.29142105350535
 6 -3.02971946984698  0.93458175917592  3.38554841284128
 6 -2.18379372217222 -0.72585759985999  0.06281288898890
 6 -0.64393278137814 -0.77891674647465  0.43784154925493
 6  0.26305081098110 -0.95852276957696 -0.65131098829883
 8  0.09203893979398 -1.37142683258326 -1.74814726932693
 8  1.62999807500750 -0.70989740824082 -0.26009100110011
 7 -6.99914309530953  2.82524726662666  0.54912550655066
 6 -5.87088126912691  3.42861959445945  1.03235736113611
 6 -6.14516578907891  4.83990207400740  0.98832038373837
 6 -7.49446251075108  5.02461378437844  0.52425765586559
 6 -8.08529397979798  3.71924052295230  0.24628596489649
 6 -5.20490964736474  5.84371815421542  1.52862886678668
 6 -8.09746633483348  6.32101181888189  0.47796285058506
 6 -8.97435495829583  6.70371966256626 -0.54807342364236
 7 -9.23057645694569  0.84836331093109 -0.45335231063106
 6 -9.82570434783478  2.01465476717672 -0.56573538423842
 6 -11.29781601960196  1.83467710721072 -1.01031510281028
 6 -11.42026746724672  0.50331437283728 -1.12377243884388
 6 -10.14116082448245 -0.16335338473847 -0.87036051645165
 6 -12.23105730293029  2.90766333543354 -1.09178360746075
 6 -12.73925402280228 -0.11956105450545 -1.60285252025203
 6 -12.70443491309131 -0.39531417781778 -3.15244242864286
 7 -7.38956208190819 -1.21209552405241 -0.28690503560356
 6 -8.46405239073907 -2.05761237543754 -0.67146407480748
 6 -8.19776338353835 -3.45706030753075 -0.78967270577058
 6 -6.83796582478248 -3.34469035333533 -0.21773387868787
 6 -6.42003054265427 -2.04124592369237  0.02630478457846
 6 -9.04683866896690 -4.63504690469047 -1.06121862866287
 6 -5.80005612711271 -4.26640186708671  0.18026069566957
 8 -5.75080693679368 -5.43646015471547  0.06511343174317
 6 -4.54500010461046 -3.35427253995400  0.63602885248525
 6 -3.83527594239424 -3.89734342954295  1.83924580988099
 8 -4.01732434413441 -3.42737369326933  2.96215667966797
 8 -3.05767828352835 -4.97411769306931  1.62040778377838
 6 -2.57799132943294 -5.56913781908191  2.82155862616262
 6  2.65131517491749 -0.86642533313331 -1.21196540184018
 6  4.03024713451345 -0.64897952135214 -0.61618823202320
 6  5.03054535473547 -0.01741269366937 -1.25855125972597
 6  4.90777128732873  0.62583642534253 -2.50722326132613
 6  6.29998371047105  0.13976660496050 -0.41323278637864
 6  7.50698492569257 -0.42061139423942 -1.03915126852685
 6  8.71846532353235 -0.29010421732173 -0.32833771367137
 6  10.06706856155616 -0.78192267486749 -1.06842782268227
 6  10.12549634303430 -2.25719088488849 -1.30941505620562
 6  11.32677335193519 -0.35651532213221 -0.24599706770677
 6  12.70788937353735 -0.83492197059706 -0.67644552175218
 6  13.75901230843084 -0.13764646774677  0.14861122372237
 6  15.22603442454245 -0.28674170997100 -0.39580341614161
 6  15.78005533313331 -1.77118128002800 -0.31927166266627
 6  16.15615821302130  0.64872578377838  0.42074533893389
 6  17.66894373307331  0.76356209010901  0.00979647184718
 6  18.47257710871087  1.69797841684168  0.80959965286529
 6  19.94516441234124  1.79260488578858  0.31791455185519
 6  19.99835076457646  2.40147957915792 -1.10406681568157
 6  20.87070753635363  2.37790152625263  1.36731313201320
 1 -4.06482465006501  3.52474885918592  1.84489672797280
 1 -10.27936552155215  4.10870030653065 -0.23536221012101
 1 -10.52356069596960 -2.17883389338934 -1.52993288718872
 1 -2.71427747924792 -1.25758612271227  2.10894268896890
 1 -2.05555612321232  1.59380933203320  1.48074757315732
 1 -2.14279179507951  0.50238766046605  3.83384010931093
 1 -3.09815311561156  2.05779042264226  3.73750285148515
 1 -3.80321090049005  0.24000470277028  3.82969181488149
 1 -2.54630408430843 -1.59745362306231 -0.49428628492849
 1 -2.25785172377238  0.09027650195020 -0.77795645634563
 1 -0.39259358275828 -0.03621949604961  1.09685571607161
 1 -0.36280929382938 -1.64651383138314  0.86160327932793
 1 -4.06963162056206  5.80105824342434  1.15858899689969
 1 -5.51285250405041  6.82989810851085  1.31650724772477
 1 -5.34254603160316  5.86495634503450  2.65547660826083
 1 -7.98581868076808  6.88699573327333  1.29712101840184
 1 -9.43039843264326  5.81670965646565 -1.21123051905191
 1 -9.37793207240724  7.62358764406441 -0.66383608770877
 1 -12.42308685608561  3.20477097559756  0.02583018441844
 1 -12.03532245454546  3.84264922962296 -1.63960117761776
 1 -13.22883028302830  2.54633025122512 -1.65681872877288
 1 -12.81437626352635 -0.94887501380138 -0.81127570137014
 1 -13.52839358165817  0.53011267266727 -1.35898957625763
 1 -12.51214572957296  0.56446346144614 -3.57436628002800
 1 -11.92676888458846 -1.07417681408141 -3.45775657235724
 1 -13.77358543174318 -0.73490084818482 -3.39735359405941
 1 -9.88582612941294 -4.68108019991999 -0.49516532043204
 1 -9.54949685988599 -4.47889490299030 -2.11607212781278
 1 -8.42161386688669 -5.62437321722172 -1.08620327382738
 1 -3.72209793709371 -3.26744409570957 -0.35367842764276
 1 -2.22277914591459 -6.73594019771977  2.61456716071607
 1 -1.58785535723572 -4.97385712471247  3.21241569186919
 1 -3.33068412381238 -5.62947994799480  3.65268678887889
 1  2.72464425622562 -1.83451019211921 -1.69909704300430
 1  2.58039988288829 -0.32140357835784 -2.29814743404340
 1  4.26315775167517 -0.81665973647365  0.44702374677468
 1  5.42243750825082  1.78116581438144 -2.76038862626263
 1  5.39831679547955 -0.00878492329233 -3.25233830093009
 1  3.98732521772177  0.68032083798380 -2.91741709860986
 1  6.72784288138814  1.23285642954295 -0.16691189158916
 1  6.28389621542154 -0.21792737803780  0.68183787788779
 1  7.40408106120612 -1.41458550395040 -1.20493533963396
 1  7.34187393849385 -0.00799529492949 -2.15841469916992
 1  8.98543298489849  0.80915876737674 -0.26493523502350
 1  8.70050278017802 -0.79542662966297  0.68910176307631
 1  10.15924278957896 -0.11438123982398 -1.92688341124112
 1  9.33682086968697 -2.52274093689369 -2.22560178567857
 1  11.03687054805481 -2.68516019241924 -1.82665841144114
 1  9.99070751255126 -2.93738561606161 -0.44432795429543
 1  11.31645583568357  0.72755037883788 -0.01694823222322
 1  11.12409997939794 -0.94851333683368  0.73830435213521
 1  12.90999750775078 -1.99238311731173 -0.72935637843784
 1  12.91493180978098 -0.48362563546355 -1.76480979947995
 1  13.67012804830483  0.96752714851485  0.13471864596460
 1  13.58762359785979 -0.36701965596560  1.25322489868987
 1  15.21820331773177  0.05484868466847 -1.41225787558756
 1  15.02873826882688 -2.58781706550655 -0.87848186868687
 1  16.81482821912191 -1.84164000350035 -0.84957635023502
 1  15.93622634023402 -2.17256687528753  0.72371507280728
 1  15.78424561616161  1.71237432613261  0.24708855245525
 1  16.36901322402240  0.31983579267927  1.54556655345535
 1  18.03562964026403 -0.37115559415942 -0.03262794749475
 1  17.60323304870487  0.94137710081008 -1.18713601820182
 1  18.14949665556556  2.80954968266827  0.77277377237724
 1  18.68053106730673  1.46264510131013  1.93486474207421
 1  19.95396362616262  0.57601833553355  0.35053799089909
 1  19.73682637983799  3.51762389448945 -1.04735971017102
 1  20.94645316251625  2.28987459125913 -1.61547687108711
 1  19.41219945574558  1.86787682428243 -1.69314449564956
 1  21.02587760086009  1.90372992329233  2.33030695849585
 1  21.86519036073607  2.42087020362036  0.91121302110211
 1  20.62929059175918  3.48322799329933  1.61579418381838
 1 -7.11231501400140  1.75879015101510  0.48606186298630
 1 -7.27905927252725 -0.32010688628863 -0.36163948414842

