%nproc=4
%Mem=2GB
# td=(NStates=1) B3LYP/SVP 

TD

0 1
 6 -5.16140899139914 -2.06569637563756  0.44969359445945
 6 -4.63021918011801  2.71492172117212  1.31257793389339
 6 -9.11668091169117  3.48349454575458 -0.08401301750175
 6 -9.83228507960796 -1.38907050165016 -0.95327147254725
 7 -5.12330907890789  0.41207766886689  0.81244870287029
 6 -4.45711380898090 -0.85323430703070  0.81165725132513
 6 -2.98566031973197 -0.68736922042204  1.19926317571757
 6 -2.86640079247925  0.78098321592159  1.75173967936794
 6 -4.24790974907491  1.36045309070907  1.18392030343034
 6 -2.69605610351035  0.87407570857086  3.32228208620862
 6 -2.07929327212721 -0.90595560966097  0.00433704140414
 6 -0.53896228432843 -0.97127598239824  0.49772753785379
 6  0.29535404130413 -1.17226414371437 -0.65188104530453
 8 -0.00887115121512 -1.55203489338934 -1.78275072967297
 8  1.64025910111011 -0.88996541504150 -0.40026501850185
 7 -6.85624880588059  2.78232297419742  0.57477807180718
 6 -5.79521370237024  3.39882661516152  1.01041516691669
 6 -5.92983425592559  4.81445952975298  1.02367391909191
 6 -7.26291935643564  4.97061838483848  0.51636686678668
 6 -7.81161661206121  3.77180577947795  0.23720505680568
 6 -4.92871202760276  5.85236901930193  1.54671067496750
 6 -7.85301188938894  6.39950966866687  0.33562861716172
 6 -8.79806732953295  6.83749303990399 -0.59464808110811
 7 -9.10302370167017  1.01923039763976 -0.53717069246925
 6 -9.72548432583258  2.18271157285729 -0.52784159485949
 6 -11.17441367936794  1.99890352985299 -0.91982605390539
 6 -11.33568900940094  0.58446248764876 -1.02341240284028
 6 -10.03418012641264 -0.03954100350035 -0.83604708510851
 6 -12.14379857705771  3.06892946204620 -1.11411584068407
 6 -12.58975907330733 -0.04527362576258 -1.44196643164316
 6 -12.86086055565557 -0.37635228162816 -3.06859404380438
 7 -7.53143626932693 -1.24208852335234 -0.40528687378738
 6 -8.58812479797980 -2.04197081128113 -0.60555748414841
 6 -8.18995260246025 -3.41741634313431 -0.52046578507851
 6 -6.95249727792779 -3.47159304360436 -0.17570967626763
 6 -6.52529106870687 -2.10275207430743  0.01227338143814
 6 -9.06428041314131 -4.59841324132413 -0.95353786058606
 6 -5.90799692119212 -4.35516074297430  0.23633630323032
 8 -5.94327618371837 -5.59611612031203  0.22078899929993
 6 -4.64261986658666 -3.50739785248525  0.55112036163616
 6 -3.93174558935894 -3.83154684988499  1.77215910121012
 8 -4.14780739243924 -3.28716967286729  2.87337780178018
 8 -3.13617613331333 -4.94089437073707  1.55404114711471
 6 -2.66628015831583 -5.64452535783578  2.67017348764876
 6  2.61022106550655 -1.10788947954795 -1.40234443974397
 6  3.89022313211321 -0.80592521592159 -0.79537615081508
 6  5.01328362856286 -0.05560651305131 -1.41036644124412
 6  5.00668117831783  0.50712455415542 -2.65211775077508
 6  6.23030674277428  0.03492612091209 -0.44651611471147
 6  7.47024125132513 -0.57500683378338 -1.17630498389839
 6  8.65672914991499 -0.35675088198820 -0.19468434833483
 6  9.98350020472047 -0.89717420002000 -0.89710068996900
 6  10.08987278067807 -2.39297446324632 -1.05377949264926
 6  11.11963263786379 -0.35889556015602 -0.05011747974797
 6  12.51168975357536 -0.60515899429943 -0.64976285348535
 6  13.66753316051605  0.04239153605361  0.21900826342634
 6  15.10572239333933  0.04132109630963 -0.42924676047605
 6  15.56516384398440 -1.47547170907091 -0.71825156065607
 6  16.17518011521152  0.63309422062206  0.58210147454745
 6  17.50561740044004  0.81851758565857 -0.08161266906691
 6  18.45992584358436  1.65042366136614  0.85136382928293
 6  19.87735763166317  1.94403002830283  0.39978273867387
 6  19.94123505300530  2.62023145434543 -0.97511392039204
 6  20.63111357695769  2.73310704680468  1.44638103880388
 1 -3.80327849544954  3.46453283758376  1.63822606090609
 1 -9.93004058905891  4.24928436493649 -0.03957263116312
 1 -10.70074841474148 -2.03420943094309 -1.19434932883288
 1 -2.92513856535654 -1.41242160626063  1.94240603530353
 1 -2.05459602720272  1.36912686378638  1.21943144154415
 1 -1.77324484038404  0.52595001670167  3.56746347164716
 1 -2.81845514581458  2.05264990859086  3.78073717491749
 1 -3.52246282568257  0.32105280758076  3.88085693139314
 1 -2.20297975187519 -1.77663154085408 -0.59993684998500
 1 -2.16574251285129  0.05065253955396 -0.63143180388039
 1 -0.07881220462046 -0.07249312341234  1.22849888038804
 1 -0.29436244914491 -1.82130131013101  1.04976209520952
 1 -3.88707336473647  5.57353549114911  1.26074921292129
 1 -5.42278349714972  6.88737385608561  1.55804140114011
 1 -4.88828060506051  5.58923877327733  2.71470253085309
 1 -7.37492759165917  7.16873390709071  0.91518282458246
 1 -9.30848624142414  6.35321330683068 -1.35135453145315
 1 -9.09403368256826  7.75737102240224 -0.41740144424442
 1 -12.32421696909691  3.57802830133013  0.00767836923692
 1 -11.76308523082308  3.83029799449945 -1.69825704320432
 1 -13.14455185518552  2.67795341354135 -1.54374742164216
 1 -12.83467829372937 -1.10878100440044 -1.01013558735874
 1 -13.43311405370537  0.52986264766477 -1.09341301860186
 1 -12.58670318531853  0.53402041714171 -3.70440928432843
 1 -12.06533274097410 -1.05271466786679 -3.32250304700470
 1 -13.96503457665767 -0.86990434853485 -3.09500335903590
 1 -10.34805235203521 -4.15617770967097 -0.74040984488449
 1 -8.74942685288529 -4.69927694119412 -2.36991751235124
 1 -8.58774047954796 -5.44583536343634 -0.25739039253925
 1 -3.94403013031303 -3.97068441974197 -0.37639069886989
 1 -2.04076094409441 -6.40498710241024  2.16995269926993
 1 -2.13583015471547 -4.91946168516852  3.32667711801180
 1 -3.44651570697070 -6.00003700370037  3.24358587878788
 1  2.68137992979298 -2.23897063816382 -1.54649178247825
 1  2.25858770167017 -0.86852829082908 -2.40824844414441
 1  3.85456689258926 -0.98991706220622  0.35864490889089
 1  5.05139040354035  1.66529422722272 -2.44451703910391
 1  6.01601856565657  0.34909086428643 -3.37794086118612
 1  4.13645013021302  0.12188499439944 -3.10179553645365
 1  6.40602069916992  1.20638378227823 -0.38185338573857
 1  5.93230105590559 -0.45303088838884  0.54693438753875
 1  7.22632328542854 -1.42828687408741 -1.22444729082908
 1  7.71998174927493 -0.12256675207521 -2.03082193989399
 1  8.81491593319332  0.53328117961796 -0.01447018851885
 1  8.56473920382038 -0.89065615261526  0.74196704960496
 1  9.82758962426243 -0.49652945464546 -1.99886060896090
 1  9.32579976757676 -2.44623328612861 -1.78304753025302
 1  10.94996185718572 -2.89538121452145 -1.31986773237324
 1  10.04188263006301 -3.03422530003000 -0.14205772727273
 1  11.02784697479748  0.75521314511451  0.17733119571957
 1  10.96025359475948 -0.79494798029803  1.01189171087109
 1  12.74939144714472 -1.63561744074407 -0.61022446524652
 1  12.46218653525352 -0.15552282518252 -1.64725804430443
 1  13.47509854535454  1.14599499529953  0.35616079017902
 1  13.74597943344335 -0.48410136413641  1.31572114831483
 1  15.01769326672667  0.70223342314231 -1.31934858465847
 1  14.79325472047205 -1.99280756455646 -1.52277629812981
 1  16.52186892319232 -1.31425726522652 -1.28254964756476
 1  15.60251296889689 -1.99822944154415  0.27123982528253
 1  15.91868906050605  1.68169125782578  0.86249009260926
 1  16.07563388608861  0.14888869796980  1.56048804560456
 1  17.99737581488149 -0.28349682828283 -0.33238792349235
 1  17.56237896329633  1.28753171627163 -1.06752405700570
 1  17.99007071297130  2.63427215491549  1.26830332533253
 1  18.60789380358036  1.04724356115612  1.92422367796780
 1  20.30143837363736  0.85725645934593  0.33068600570057
 1  19.21538423562356  3.45778791089109 -1.08799377357736
 1  20.97508602580258  2.82403800760076 -1.25756107950795
 1  19.68272650845084  1.86622665926593 -1.88915409660966
 1  20.65152016511651  2.33866341664166  2.40696462426243
 1  21.54587842954295  2.89334745134513  1.18308020782078
 1  20.18975663836384  3.64589425992599  1.71854445884588
 1 -6.97543132563256  1.81843611561156  0.58553180998100
 1 -7.46067743434343 -0.06205108070807 -0.65503882408241

