%nproc=4
%Mem=2GB
# td=(NStates=1) B3LYP/SVP 

TD

0 1
 6 -5.22783563406341 -2.00651045704570  0.51270989608961
 6 -4.68998515671567  2.61270149914992  1.69733640974097
 6 -9.08673791739174  3.48195439173917 -0.34854947114711
 6 -9.86144799589959 -1.24322591719172 -1.00615676107611
 7 -5.17254400240024  0.34496095719572  0.93919137713771
 6 -4.50312841044104 -0.86286527012701  0.94024010961096
 6 -3.06314806850685 -0.77084756825683  1.38348159755976
 6 -3.01905605800580  0.75926104370437  1.91977648304831
 6 -4.30803576167617  1.25808285368537  1.47713962536254
 6 -2.96564306220622  0.55981428242824  3.46342620062006
 6 -2.09882522532253 -0.99058407250725  0.13597020472047
 6 -0.63630201830183 -0.81547040184018  0.64608237333733
 6  0.34679918581858 -1.29947686498650 -0.33956981418142
 8 -0.00939120322032 -1.66746643654365 -1.46248870347035
 8  1.65459053425343 -1.08916533503350 -0.02878787078708
 7 -6.96122930393039  2.67791253315332  0.55147574157416
 6 -5.78004218521852  3.31955868836884  1.14474860026003
 6 -5.97590886338634  4.63561164496450  1.14793634533453
 6 -7.17486055055506  4.96038736173617  0.53163839393939
 6 -7.86565201560156  3.71964056295630  0.20125146144614
 6 -5.05896505290529  5.66684046644664  1.65850185408541
 6 -7.77780436863686  6.29108882658266  0.35176023032303
 6 -8.64080160296030  6.65557484808481 -0.60844946124612
 7 -9.02926632593259  1.11741021562156 -0.70578755415542
 6 -9.68792056945695  2.25998930063006 -0.78363717441744
 6 -10.96817305530553  2.26667030653065 -1.35453952525253
 6 -11.24381982248225  0.85838988038804 -1.46042610421042
 6 -10.02176888528853  0.23293624422442 -0.98094157455746
 6 -11.83490768796880  3.38597116621662 -1.57744217331733
 6 -12.44893499089909  0.20564146574657 -2.00576281128113
 6 -12.39832430203020 -0.23229787618762 -3.50659784418442
 7 -7.56572969866987 -1.24484879937994 -0.24006035113511
 6 -8.65763174867487 -1.93194980918092 -0.65309223762376
 6 -8.27784139133913 -3.39711431293129 -0.60452419091909
 6 -6.96147817601760 -3.43110899519952 -0.22343444874487
 6 -6.54657319691969 -2.11252305140514  0.09255140924092
 6 -9.19077306240624 -4.54726812681268 -1.00162266906691
 6 -5.91385750725073 -4.32478770567057  0.05738840844084
 8 -5.85171702780278 -5.56331283998400 -0.07170024962496
 6 -4.73185879047905 -3.46345345804580  0.53612886248625
 6 -4.23506592139214 -3.92417611281128  1.87170905620562
 8 -4.54397700940094 -3.54346530243024  2.96297676167617
 8 -3.41092360806081 -5.07158744004400  1.72456819981998
 6 -3.08526205650565 -5.71033193849385  2.98920539083908
 6  2.60116015941594 -1.35774446504650 -1.00652485778578
 6  3.96424053385339 -1.18170279367937 -0.48839545274527
 6  4.85019731993199 -0.26332728512851 -0.88594399899990
 6  4.82360287048705  0.36118996069607 -2.17494003300330
 6  6.16258997109711 -0.13166053775378 -0.04125558865887
 6  7.44701892909291 -0.54797413051305 -0.86820417381738
 6  8.67800127712771 -0.40631583848385  0.00442556265627
 6  10.04212606730673 -0.81644612721272 -0.75207618751875
 6  10.12839663306331 -2.32212737853785 -1.16358047274727
 6  11.25867654225422 -0.19299897049705 -0.02731519951995
 6  12.62152073667367 -0.40615909430943 -0.75471334853485
 6  13.80384679187919  0.15223252015202  0.14017037963796
 6  15.16137795889589  0.05057202140214 -0.60694453025303
 6  15.68250557815782 -1.36489065096510 -1.06136587208721
 6  16.25070766796680  0.77596850805080  0.19004226862686
 6  17.68700553925392  0.99150488438844 -0.33722823062306
 6  18.57241709270927  1.71317993699370  0.62556124902490
 6  20.01544144004400  2.09953557885789  0.00220298069807
 6  19.97488841834183  2.97165659685969 -1.27035344434443
 6  20.98424889048905  2.74250798689869  1.00003640434043
 1 -4.01664983258326  3.27781416571657  2.14748698699870
 1 -9.78159574457446  4.28694813131313 -0.62355102900290
 1 -10.68523686358636 -1.80889689968997 -1.45547544144414
 1 -2.80746679817982 -1.63470383448345  2.03799559425943
 1 -2.13490405800580  1.39518947004700  1.58134763316332
 1 -1.89894741064106  0.21624904660466  3.85560228552855
 1 -3.10275357565757  1.60263490709071  3.88881798299830
 1 -3.70394097349735 -0.20841013871387  4.01797064276428
 1 -2.31924137803780 -2.13288716641664 -0.05495235153515
 1 -2.21399733833383 -0.23300582628263 -0.47180584128413
 1 -0.35863018641864  0.18568269416942  1.03910994149415
 1 -0.55282829572957 -1.24632381238124  1.82613973297330
 1 -4.25513017041704  6.15416355395539  0.82671580958096
 1 -5.67839905870587  6.60861598029803  1.69034463146315
 1 -4.58106988398840  5.42359220862086  2.60765182578258
 1 -7.31903200210021  6.96540357405741  1.03820512681268
 1 -8.81267666046605  6.08353633913391 -1.61616101210121
 1 -9.42992727192719  7.60645593089309 -0.49709941404140
 1 -12.36645119251925  3.78484898339834 -0.67452985158516
 1 -11.35390431273127  4.30059502420242 -1.97492470997100
 1 -12.74747214721472  3.11224684288429 -2.30705375227523
 1 -12.75265009090909 -0.69378950525053 -1.20642521632163
 1 -13.42319306160616  0.81969163056306 -1.85223890119012
 1 -12.26508102310231  0.75185220032003 -4.13860270367037
 1 -11.62513872157216 -0.89228862526253 -3.82285308200820
 1 -13.27033510671067 -0.52041940004000 -3.67774163286329
 1 -10.11070861766177 -4.54801689358936 -0.41392719661966
 1 -9.31787369756976 -4.58746576007601 -2.09630015061506
 1 -8.57428913441344 -5.42646342624262 -0.85789044254425
 1 -3.86709243654365 -3.57420477177718 -0.22853591339134
 1 -2.22754962296230 -6.59546615031503  2.97194289828983
 1 -2.54892146384638 -4.96172591159116  3.64622907320732
 1 -3.86323737913791 -6.10951795179518  3.52228374857486
 1  2.43638543034303 -2.34913165426543 -1.25337247054705
 1  2.49155099799980 -0.87232867086709 -1.97249486878688
 1  4.10684212011201 -1.54127219771977  0.52001104550455
 1  5.08784404890489  1.58171586938694 -2.10561314871487
 1  5.43588055185519 -0.03310735553555 -3.09160222732273
 1  3.99615610081008  0.39712251815182 -2.64011936883688
 1  6.07993809090909  0.87903104700470  0.44120892049205
 1  6.09071689748975 -0.89222480778078  0.85930562466247
 1  7.06485713881388 -1.43746779217922 -1.16591143724372
 1  7.46333608470847  0.04595009960996 -1.83337219491949
 1  8.71850629222922  0.57881573307331  0.69858111661166
 1  8.59970270017002 -1.17145423242324  0.84632748564856
 1  9.90249711501150 -0.14075387708771 -1.61172189508951
 1  9.01297848544855 -2.69886854965497 -1.36821604710471
 1  11.00589745074507 -2.43565524192419 -2.09230497609761
 1  10.60108855065507 -3.08061993949395 -0.23924744624462
 1  11.22453664376438  0.93069069286929  0.12199566216622
 1  11.22915048444844 -0.55835432093209  1.00727124882488
 1  12.74348085608561 -1.55636951595160 -1.00784422722272
 1  12.34362467906791  0.28278100520052 -1.61362468096810
 1  13.49101013651365  1.22287268306831  0.49314448854886
 1  13.77705254075408 -0.59262221622162  0.96561613781378
 1  15.03605510291029  0.76395959575958 -1.47513416321632
 1  15.10583597859786 -1.78171645544555 -1.81991601210121
 1  16.47922465876588 -1.36647248674867 -1.67851924452445
 1  15.77281999959996 -1.95492511111111 -0.37205450415041
 1  15.98140533213321  1.75068815751575  0.54643848744874
 1  16.55945226792679  0.23855766486649  1.15535753255326
 1  17.85575165246525 -0.05551403000300 -0.58860354505451
 1  17.48981170657066  1.48731169426943 -1.35310261486149
 1  18.06726843274328  2.73495222292229  0.64259075407541
 1  18.61538455265527  1.32959179597960  1.64871612721272
 1  20.35896412621262  0.98900963466347 -0.24628169106911
 1  19.45213791099110  4.10788292039204 -0.86722169636964
 1  21.09327784498450  3.30863646744674 -1.80255557895790
 1  19.40268850465046  2.26670670727073 -2.18467364856486
 1  20.96018103120312  1.98689824012401  2.06832075987599
 1  22.05549939163916  2.82332044864486  0.57664956475648
 1  20.75046270897090  3.84526419691969  1.49840244464447
 1 -7.18417219971997  1.64183845584558  0.59963322012201
 1 -7.61579294589459 -0.29988486408641 -0.30330365056506

