%nproc=4
%Mem=2GB
# td=(NStates=1) B3LYP/SVP 

TD

0 1
 6 -5.06175902640264 -1.93028283428343  0.39615824092409
 6 -4.80378653685369  2.75875610461046  1.36573324942494
 6 -9.39664890849085  3.30295649194920 -0.16483109930993
 6 -9.84046589768977 -1.50433202780278 -0.92927907330733
 7 -5.14109085708571  0.43922038313831  0.65950340834083
 6 -4.46772487008701 -0.74436341994199  0.72270835643564
 6 -2.95560731443144 -0.54863534703470  1.26427967736774
 6 -3.01682583498350  0.96219133673367  1.67150165556556
 6 -4.44725968406841  1.46299334473447  1.27401931333133
 6 -2.91580807870787  1.00145844684468  3.11267112511251
 6 -1.97737308010801 -0.92665767986799  0.09677628532853
 6 -0.54274266236624 -0.77166602140214  0.49052681778178
 6  0.32352685858586 -0.97145406270627 -0.70335619281928
 8  0.03501323722372 -1.31745143504350 -1.81166362096210
 8  1.64784986018602 -0.75233165166517 -0.34567955995600
 7 -7.09651283228323  2.78997373927393  0.47287788178818
 6 -6.01163534453445  3.43345007750775  0.95085921132113
 6 -6.24076534903490  4.81978006180618  0.88720027172717
 6 -7.66553961846185  4.99488081108111  0.67160239033903
 6 -8.10804625502550  3.71239983888389  0.28987032333233
 6 -5.19654881128113  5.78674245664566  1.31982798669867
 6 -8.25027161536154  6.37243696139614  0.50657571187119
 6 -9.40434795759576  6.70283957455746 -0.21830044634463
 7 -9.27566096539654  0.88744721932193 -0.42478945434543
 6 -9.90347212461246  2.08641194289429 -0.42118092879288
 6 -11.25426166416642  1.81995563506351 -0.90604467576758
 6 -11.49908534903490  0.53344738613861 -1.15780584218422
 6 -10.16521322972297 -0.08807585698570 -0.82557603800380
 6 -12.30313451065106  2.92959552865287 -1.02156658575858
 6 -12.72766286368637 -0.26968606700670 -1.52299453445345
 6 -12.84463893349335 -0.66398104450445 -3.01030821522152
 7 -7.56882000770077 -1.18412272677268 -0.17078342344234
 6 -8.60473645914592 -2.03502011621162 -0.60329725812581
 6 -8.13927753495349 -3.43708831033103 -0.71835557405741
 6 -6.84502653085309 -3.35742162646265 -0.32600470577058
 6 -6.47997653725372 -2.04735653475348  0.01187334143414
 6 -8.92573655875587 -4.61615501550155 -1.03180568736874
 6 -5.78548466996700 -4.28463369026903  0.06204887448745
 8 -5.66229808590859 -5.57442395109511  0.02717963836384
 6 -4.55522112671267 -3.42220933363336  0.41510676027603
 6 -3.85848826362636 -3.76822051725173  1.74109599489949
 8 -4.01912452415242 -3.15402635853585  2.77234769876988
 8 -2.96362887858786 -4.77645792709271  1.50729647264726
 6 -2.27021055135513 -5.32404330963096  2.61358782908291
 6  2.63780382378238 -1.08726741734173 -1.25782998829883
 6  3.96815092489249 -0.69258388178818 -0.58684529772977
 6  4.96961926212621 -0.01611256365637 -1.11534693929393
 6  4.99937044724472  0.62551639333933 -2.50545308430843
 6  6.33185689778978  0.20503313161316 -0.38454991809181
 6  7.54436866406641 -0.26791612471247 -1.03332068546855
 6  8.84491796879688 -0.04906011291129 -0.19336421632163
 6  10.10091194589459 -0.63689817241724 -0.79375035493549
 6  10.16788058145815 -2.17987315311531 -0.98606272097210
 6  11.30989166376638 -0.34547421802180  0.04465199719972
 6  12.70739932453245 -0.52098057645765 -0.57593547074707
 6  13.87245365256526 -0.00819352245225  0.23768013061306
 6  15.16045786688669 -0.29802283808381 -0.26888072387239
 6  15.49812714031403 -1.81204536643664 -0.40170990649065
 6  16.27693029022902  0.43276418761876  0.49705296969697
 6  17.66798363706371  0.75249098299830 -0.08257276507651
 6  18.70177002800280  1.50247886688669  0.82442113501350
 6  20.05104500040004  1.57221284658466  0.19129188958896
 6  20.15399632913292  2.15242467366737 -1.16295270427043
 6  21.03482394799480  2.26339007510751  1.13300970167017
 1 -4.07198536613661  3.42100848514852  1.69891212951295
 1 -9.95332291729173  4.26820625712571 -0.35603427732773
 1 -10.54473281318132 -2.20298630863086 -1.32031192509251
 1 -2.73667971947195 -1.29395976007601  2.11173296799680
 1 -1.96612718031803  1.58014796589659  1.13326282468247
 1 -1.94175169106911  0.55483290499050  3.73233995929593
 1 -3.12585588588859  2.15957060066007  3.55402450365037
 1 -3.61724230363036  0.47965866816682  3.55769461516152
 1 -2.21144059795980 -1.87371124882488 -0.29187604390439
 1 -2.14702064066407 -0.29688221392139 -0.92325098579858
 1 -0.41095541894189  0.16352047794780  1.03460949144914
 1 -0.36220923382338 -1.60014919491949  1.16093321232123
 1 -4.49552420982098  5.78808694629463  0.50771390939094
 1 -5.57371859065907  6.81219633833383  1.65704130113011
 1 -4.45605738273827  5.34738458785879  2.02116317691769
 1 -7.64841494039404  7.10719775347535  1.28065937223722
 1 -9.99755514831483  6.02684066956696 -1.01541093709371
 1 -9.63262754195420  7.76540182548255 -0.09365907000700
 1 -12.32463701110111  3.55536603510351 -0.04207660626063
 1 -12.14297321962196  3.63239820452045 -1.93565078257826
 1 -13.32567996799680  2.46787240544054 -1.38464151105111
 1 -12.75446027192719 -1.10718084438444 -0.78498307210721
 1 -13.54590533283328  0.26856651805181 -1.06252993029303
 1 -12.74202871787179  0.15009202430243 -3.60218906230623
 1 -12.03823003070307 -1.54479387578758 -3.27140793749375
 1 -13.80199827302730 -1.35284264236424 -3.26690054875488
 1 -9.82974052085209 -4.83903599549955 -0.32345814971497
 1 -9.46929884008401 -4.55569258275828 -2.16201672227223
 1 -8.34837654315432 -5.43052383228323 -0.86062071557156
 1 -3.68199392669267 -3.66512386368637 -0.43856691649165
 1 -1.43138000600060 -5.95485208890889  2.27309301330133
 1 -1.87384395609561 -4.58241798079808  3.34688913921392
 1 -3.16359741514151 -5.74825182518252  3.23944546474647
 1  2.59324111591159 -2.05361210231023 -1.75311244454445
 1  2.54267611051105 -0.42146358435844 -2.12552017131713
 1  4.13956539243924 -1.11170924142414  0.42870191459146
 1  5.38355361986199  1.73805150295029 -2.31998458585859
 1  5.92275923972397 -0.01407545234523 -3.16959002610261
 1  4.01467795299530  0.62560536643664 -2.81694705160516
 1  6.34310440754075  1.42777592149215 -0.00943614401440
 1  6.10427825362536 -0.38320390569057  0.58636833093309
 1  7.28391904500450 -1.35001904730473 -1.27035188128813
 1  7.81247099819982  0.33033853845385 -1.98097695539554
 1  8.79291373297330  1.05745359685969  0.05720697919792
 1  8.65584831473147 -0.52875996299630  0.67250010291029
 1  10.47206407170717 -0.04017381908191 -1.88507923082308
 1  9.24418160576058 -2.71293995679568 -1.39004823032303
 1  11.26075293629363 -2.71112278867887 -1.40734648024802
 1  9.94455289708971 -2.58719059655966  0.15762224072407
 1  11.43270746084608  0.69129675347535  0.61008447104711
 1  11.16019358875888 -1.09030751625162  0.93407392909291
 1  12.95386189418942 -1.55047892689269 -0.83209665246525
 1  12.81867218381838  0.16046877397740 -1.61684500300030
 1  13.63506454195420  0.98918931473147  0.45643081718172
 1  13.96191102660266 -0.54806776077608  1.22417199339934
 1  14.95550704810481  0.11373457325733 -1.42451910171017
 1  14.95717111211121 -2.17620590439044 -1.27414143464346
 1  16.52072880918092 -2.03176901640164 -0.80776216881688
 1  15.17185990359036 -2.42731234983498  0.60795349664966
 1  15.98282547414741  1.65286837553755  0.62359620322032
 1  16.29211553425343 -0.15471166206621  1.36853885068507
 1  18.07048312561256 -0.13036151475148 -0.28434311901190
 1  17.44885761116112  1.30096305940594 -0.98754605920592
 1  18.32961466736674  2.58050677837784  1.30495699069907
 1  18.74752776697670  1.08075691249125  1.98711996759676
 1  20.17511574137414  0.52052278597860  0.03046598369837
 1  19.50058275547555  3.05665779787979 -1.19502447664766
 1  21.03037155435543  2.30014561836184 -1.59798512191219
 1  19.50899913571357  1.62988302490249 -1.88809399059906
 1  20.93449846294629  1.78988853915392  2.13074700250025
 1  22.17335117681768  1.94564268086809  0.78531043084308
 1  20.72459012171217  3.36511618211821  1.27452005640564
 1 -7.39978376087609  1.85003927592759  0.35939919671967
 1 -8.02977434403440 -0.08329320492049  0.22451913171317

