%nproc=4
%Mem=2GB
# td=(NStates=1) B3LYP/SVP 

TD

0 1
 6 -5.13472632313231 -2.06186599259926  0.54486311141114
 6 -4.68743490169017  2.73657388638864  1.31548822492249
 6 -9.24351359495950  3.32125832213221 -0.34351896809681
 6 -9.79720157125712 -1.50151174577458 -0.80369651505151
 7 -5.18893564156416  0.36183264436444  0.82068952695270
 6 -4.47623572117212 -0.77179616321632  0.78088417401740
 6 -3.01686344004400 -0.63310379387939  1.22147539693969
 6 -3.02942709510951  0.82255737333733  1.76082058745875
 6 -4.33378833693369  1.32781982738274  1.29446135753575
 6 -3.03691018891889  0.91558985998600  3.28111796979698
 6 -2.06188153095309 -0.82227724182418  0.00938754645465
 6 -0.56621500960096 -0.65653450825083  0.48259602470247
 6  0.34148865476548 -1.05815273257326 -0.64648050525053
 8  0.13775351125112 -1.26584627452745 -1.81058351295129
 8  1.54520959615962 -0.74334075257526 -0.23520851285129
 7 -6.99758293929393  2.79425416731673  0.46653724772477
 6 -5.83210739173917  3.37300403290329  0.90839496489649
 6 -6.07453872637264  4.78339642344234  1.02324387608761
 6 -7.44416748124813  4.96465778877888  0.49139436953695
 6 -7.97431288168817  3.68560715961596  0.17612894919492
 6 -5.27581673807381  5.74199798219822  1.60080608450845
 6 -8.15124171237124  6.24729444714471  0.50216527082708
 6 -9.14864238703870  6.58295758635864 -0.46454507080708
 7 -9.21652505180518  0.92525099969997 -0.51911888728873
 6 -9.85296707410741  2.11840514221422 -0.57145595629563
 6 -11.26323256125612  1.87355099459946 -0.95693976527653
 6 -11.36836227672767  0.51118515991599 -1.08534859645965
 6 -10.06570327872787 -0.06486353575358 -0.92837631803180
 6 -12.23172736993699  3.01989455855586 -1.14473890299030
 6 -12.62998309570957 -0.25081417981798 -1.70065230023002
 6 -12.53398786838684 -0.39454410081008 -3.27802498689869
 7 -7.48373149884988 -1.27054136863686 -0.23495984108411
 6 -8.59915590109011 -2.00366698089809 -0.54593152155216
 6 -8.20745435263526 -3.42448705020502 -0.59506324482448
 6 -6.86097812601260 -3.40707659195920 -0.16833893919392
 6 -6.48534707430743 -2.13256505560556  0.08247040114011
 6 -9.13750773587359 -4.53459685968597 -0.85066757355736
 6 -5.75980210171017 -4.36098132503250  0.09926259585959
 8 -5.65045690179018 -5.56029253795380  0.03256017641764
 6 -4.53661926652665 -3.49384649734974  0.54710996059606
 6 -3.86326874167417 -3.87706140134013  1.82156404170417
 8 -4.08470108180818 -3.37839879577958  2.88565902990299
 8 -3.06922943864386 -4.81604188548855  1.59136487948795
 6 -2.44510804110411 -5.46073697899790  2.67927439773977
 6  2.59591963536354 -0.79680837143714 -1.29419362466247
 6  3.92372648244825 -0.54760938433843 -0.50855746894689
 6  4.99770207040704  0.10091913951395 -1.07936334093409
 6  5.01369187938794  0.76801064276428 -2.42340487948795
 6  6.22408612071207  0.39382201050105 -0.29539100220022
 6  7.45223945114511 -0.39514884798480 -0.89185653905391
 6  8.76237971497150 -0.02631783868387 -0.22275715561556
 6  9.96625848054805 -0.75270975357536 -0.85792677257726
 6  9.82984677807781 -2.26427159295930 -0.86321043574357
 6  11.29357003160316 -0.39231890249025 -0.18972144014401
 6  12.62668125272527 -0.56013449184918 -0.76692456965697
 6  13.75037144434443 -0.13597630073007  0.09063542614261
 6  15.26009783088309 -0.15079811561156 -0.45738957475748
 6  15.69038636623662 -1.57568173007301 -0.64816455195520
 6  16.13398599579958  0.68943985518552  0.34313757815782
 6  17.61815865456546  0.70363609750975 -0.14858936673667
 6  18.55220507150715  1.49280789978998  0.78680737363736
 6  20.03112300820082  1.54555018031803  0.23653641404140
 6  20.23109403890389  2.36642607380738 -1.05061147014701
 6  20.87229769536954  2.13422715881588  1.37772417311731
 1 -3.78192636023602  3.35901228552855  1.52828506680668
 1 -9.92034961996200  4.11134057055706 -0.21559023292329
 1 -10.68859719961996 -2.25080109010901 -1.10389028292829
 1 -2.84665071657166 -1.36693705780578  1.92319411411141
 1 -2.21391195879588  1.58467841894189  1.33407290569057
 1 -2.07262477837784  0.56589401110111  3.61579830513051
 1 -2.94854815511551  2.05003964756476  3.39346844804480
 1 -3.91575215461546  0.44406510881088  3.82361120682068
 1 -2.23297275117512 -1.73945782348235 -0.58336519281928
 1 -2.19387532613261  0.09798727302730 -0.79195785648565
 1 -0.25541986538654  0.23906803270327  0.93170920142014
 1 -0.29801281418142 -1.66319549954996  1.21583870287029
 1 -4.21761641904190  5.71603974157416  1.15932907090709
 1 -5.70442166096610  6.66267138583858  1.12848844584458
 1 -5.23421519851985  5.67400725012501  2.72312337293729
 1 -7.56902700160016  7.01253828752875  1.06722802910291
 1 -9.37927332013201  5.86298428392839 -1.40197959395940
 1 -9.77143142234223  7.59977526282628 -0.38956866096610
 1 -12.30113466086609  3.51883238173817 -0.25824822342234
 1 -11.93524244654466  3.69735470017002 -1.85402261976198
 1 -13.32437983798380  2.84238985718572 -1.36294934183418
 1 -12.85187001290129 -1.30550067636764 -1.34013858765877
 1 -13.51467220952095  0.16085574697470 -1.33534721202120
 1 -12.38179269426943  0.48813582868287 -3.78656750015002
 1 -11.80661686938694 -0.90249964636464 -3.64845564226423
 1 -13.25833390659066 -1.05658301640164 -3.49817367606761
 1 -9.92213976077608 -4.71820391229123 -0.06908271217122
 1 -9.88281019121912 -4.19494650815081 -1.74998551915191
 1 -8.60033173867387 -5.47247802770277 -1.08531318481848
 1 -3.74407013431343 -3.69112646394639 -0.28995205500550
 1 -1.69974684268427 -6.23657026072607  1.99009471347135
 1 -1.95459203090309 -4.67803754275428  3.36347079737974
 1 -3.29385044044405 -6.03592059205921  3.51983350355036
 1  2.59942173397340 -1.73306004710471 -1.59796692999300
 1  2.42070391329133 -0.02030346834683 -2.12725034433443
 1  4.00104154005401 -1.13688175867587  0.29735878027803
 1  5.54064932943294  1.76005370317032 -2.62457504490449
 1  5.55415237903790  0.26292224742474 -3.15680874797480
 1  3.93264975017502  1.20004281018102 -2.73148850575057
 1  6.39296939403940  1.48671181508151 -0.15381058145815
 1  6.13274109990999  0.20238465316532  0.92813250735074
 1  7.22040269336934 -1.48852289768977 -0.77862270837084
 1  7.56898664976498 -0.04245874127413 -2.06582544024402
 1  9.08237267886789  1.11810966246625 -0.28020676217622
 1  8.78647137703770 -0.50835792279228  0.87263011591159
 1  10.06448331363136 -0.36910671237124 -2.00693141604160
 1  8.91408859645965 -2.64681334413441 -1.30680990649065
 1  10.69665652665267 -2.86998867526753 -1.17015276087609
 1  9.71577001880188 -2.75075695319532  0.20730720922092
 1  11.23939812991299  0.63714133793379 -0.08716525392539
 1  11.41167873727373 -0.59101758725873  0.73469399109911
 1  12.69319582758276 -1.64565844484448 -0.93250669346935
 1  12.51238155475547 -0.17762503540354 -1.89737305580558
 1  13.60328136363636  0.97474787058706  0.18215338943894
 1  13.58328316381638 -0.73843679767977  1.02603217941794
 1  15.04740623802380  0.32011521132113 -1.49214586438644
 1  15.08115351035104 -2.11882016581658 -1.38232225272527
 1  16.62474921122112 -1.79773561306131 -1.30218161076108
 1  15.83060577817782 -2.09509912851285  0.36227892919292
 1  15.68907609920992  1.66015910461046  0.55855969956996
 1  16.13439976267627  0.16350015911591  1.36402839963996
 1  18.11155723302330 -0.20910938953895 -0.24393907860786
 1  17.72038476387639  0.91789475257526 -1.17123442804280
 1  18.15865757165717  2.50455918361836  0.79400589558956
 1  18.56928994319432  0.96318515531553  1.85339659525953
 1  20.51798002780278  0.39243997769777 -0.03873093599360
 1  19.98451114831483  3.33942607470747 -1.11096607080708
 1  21.25346386358636  2.09305490929093 -1.44031935533553
 1  19.65820405620562  1.96394643124312 -1.98577375857586
 1  20.52540755385539  1.62602215251525  2.28306223402340
 1  21.92450629232923  2.24609272587259  1.12162406220622
 1  20.46105376807681  3.03261293179318  1.46973957835784
 1 -7.05134891739174  1.73512778477848  0.28565182198220
 1 -7.55191655825583 -0.29757463306331 -0.01555487568757

