%nproc=4
%Mem=2GB
# td=(NStates=1) B3LYP/SVP 

TD

0 1
 6 -5.06556940744074 -1.99939974597460  0.49386801190119
 6 -4.78411456965697  2.65297552655266  1.50841751785178
 6 -9.20484972857286  3.26221241754175 -0.44572918911891
 6 -9.77583943504350 -1.53633522812281 -0.92042818821882
 7 -5.19238598659866  0.35370183128313  0.79657711571157
 6 -4.48072617021702 -0.81591057465747  0.88645473107311
 6 -3.08404015771577 -0.57695817931793  1.34597784718472
 6 -3.16578073047305  0.85319043664366  1.95269977537754
 6 -4.49270422852285  1.38370541594159  1.32104401580158
 6 -3.12764926282628  0.83689199019902  3.55981583958396
 6 -2.16779212201220 -0.77873288738874  0.23923053075308
 6 -0.66866525462546 -0.68366722152215  0.55898366346635
 6  0.25804030993099 -0.80255717301730 -0.55670152735274
 8 -0.07920818491849 -1.07046673657366 -1.73642609720972
 8  1.57673274847485 -0.50650706920692 -0.26135112711271
 7 -7.04464764576458  2.76427116901690  0.47069766376638
 6 -5.91791597259726  3.38616534903490  1.04483860926093
 6 -6.17017829032903  4.76807489128913  1.07211876357636
 6 -7.39586265076508  4.98308963196320  0.46502173227323
 6 -7.99556500690069  3.60607920682068  0.11876321262126
 6 -5.31081023742374  5.77473125552555  1.67383338723872
 6 -8.11100768896890  6.18798851655165  0.29949500380038
 6 -9.07343486628663  6.61515080568057 -0.57436605290529
 7 -9.17013041234123  0.80408888348835 -0.53583055845585
 6 -9.81790356775678  2.03502680438044 -0.68559737043704
 6 -11.18091432943294  1.82946658615862 -1.15649972127213
 6 -11.32266770727073  0.43366740814081 -1.27865792739274
 6 -10.02026873527353 -0.06377342674267 -0.85933941434143
 6 -12.08603280048005  2.96682925202520 -1.42070649974998
 6 -12.52965306270627 -0.27045614401440 -1.74151638663866
 6 -12.55956042564256 -0.30886553295330 -3.30198738313831
 7 -7.52508563426343 -1.22217653215322 -0.22629897499750
 6 -8.55128111361136 -2.10761737593759 -0.62272920132013
 6 -8.21781538873887 -3.48101270277028 -0.49249298779878
 6 -6.88384041224122 -3.51074695899590 -0.13381548684869
 6 -6.42141068066807 -2.12570436953695  0.02800495459546
 6 -9.00300428552855 -4.63876727672767 -0.82822532933293
 6 -5.64189031053105 -4.34481970887089  0.11354402400240
 8 -5.55959781588159 -5.58107461616162  0.06942386278628
 6 -4.49896550115011 -3.33578069076908  0.54203945354535
 6 -3.83587600240024 -3.77182087728773  1.82999488478848
 8 -4.09622223392339 -3.31399235513551  2.93880434443444
 8 -2.93187570327033 -4.73189347064706  1.49154489748975
 6 -2.40833436373637 -5.30326123142314  2.67807427772777
 6  2.59075911931193 -0.72223091369137 -1.23625783108311
 6  3.95424953475348 -0.56121074447445 -0.49577619081908
 6  4.90675297549755  0.28207725532553 -0.94120952555256
 6  4.80286079627963  1.23920776247625 -2.17532007100710
 6  6.27418113021302  0.25450807910791 -0.27210867396740
 6  7.42527675487549 -0.51167050015002 -0.92503985738574
 6  8.74273775077508 -0.47950315721572 -0.17387226712671
 6  10.08524037873787 -0.78729321192119 -0.88650963086309
 6  9.90299409280928 -2.23173833963396 -1.44706882158216
 6  11.25280595519552 -0.63424309490949  0.10439797179718
 6  12.70940952555256 -0.55199367776778 -0.83028090529053
 6  13.81464787198720 -0.36240894399440  0.25968233083308
 6  15.25211703280328 -0.28125116091609 -0.42117595339534
 6  15.65159248684868 -1.84817897979798 -0.86910664616462
 6  16.24589718691869  0.38214912611261  0.49073233763376
 6  17.68182502120212  0.63080881478148 -0.20723523132313
 6  18.46634648564856  1.54855347434743  0.65277397029703
 6  19.94338423432343  1.68655428072807  0.11194395479548
 6  20.09309023852385  2.45781521272127 -1.16467287628763
 6  20.78418888448845  2.35841957805781  1.24337073777378
 1 -3.75289345694569  3.38086447074707  1.59987222552255
 1 -10.00493807880788  4.14659409590959 -0.52173084698470
 1 -10.39059739963997 -2.24677068706871 -1.40038993289329
 1 -2.81076712821282 -1.34821518561856  2.22657445214521
 1 -2.23613418101810  1.46064601570157  1.55744524292429
 1 -2.13523103900390  0.42598001970197  4.09991671697170
 1 -3.22848614891489  1.70685532913291  3.93080218141814
 1 -4.01457203660366  0.24966566886689  3.95800464616462
 1 -2.39935938983898 -1.81810568826883 -0.21581843814381
 1 -2.14801073967397 -0.11013353905391 -0.47449611031103
 1 -0.48530285368537  0.19850397629763  1.02612864336434
 1 -0.37900091299130 -1.52704188418842  1.25472259125913
 1 -4.29969462686269  5.84661279887989  1.12286542454245
 1 -5.88284950375037  6.82927804650465  1.69380497749775
 1 -4.87958973597360  5.44814466386639  2.56172723332333
 1 -7.67479757865787  6.94627166086609  0.93886519281928
 1 -9.53537893069307  5.97364535003500 -1.38395779177918
 1 -9.24843912311231  7.72046733203320 -0.65742544664467
 1 -12.44221876927693  3.59147964646465 -0.56926932553255
 1 -11.84166308860886  3.73966893159316 -2.16397361486149
 1 -13.21763916391639  2.52364798299830 -1.76247929482948
 1 -13.00126495239524 -1.29596972327233 -1.16575114891489
 1 -13.43972471477148  0.27651731313131 -1.58178185548555
 1 -12.64852936793679  0.82940995609561 -3.48437728112811
 1 -11.37104331203120 -0.44486388278828 -3.81526232293229
 1 -13.27284535773577 -1.23688104620462 -3.83077693639364
 1 -9.86777432423242 -4.80331242314231 -0.02767857175717
 1 -9.56219813001300 -4.63824083758376 -1.89182970357036
 1 -8.22826453195320 -5.43873465336534 -0.84143879737974
 1 -3.57772349964996 -3.52823017431743 -0.17251031083108
 1 -1.85117198519852 -6.16836344004400  2.35993169716972
 1 -1.55391196289629 -4.55429516851685  3.22882733303330
 1 -3.23531458685869 -5.56284328432843  3.22029354955496
 1  2.52714450625062 -1.75319206030603 -1.73093022632263
 1  2.52731457435744  0.06935549754976 -2.16309392869287
 1  4.06487792369237 -0.96217428792879  0.52979202360236
 1  5.32004726922692  2.09282698049805 -1.74457704510451
 1  5.40366733053305  0.74470042524252 -3.15947901500150
 1  3.75664214941494  1.34241704760476 -2.52765812271227
 1  6.56689678677868  1.16226937083708 -0.13811901230123
 1  6.29150697649765 -0.04444002930293  0.77741743584358
 1  7.29654030713071 -1.55611965736574 -0.93354820092009
 1  7.39086883798380 -0.14088858425843 -1.98076693439344
 1  8.84490893249325  0.77105495699570  0.07153841234123
 1  8.72681541144114 -0.95129221622162  0.81742459535954
 1  10.05627249254925 -0.08003780548055 -1.86497722062206
 1  9.19031621922192 -2.42421108390839 -2.40114934043404
 1  10.82395925692569 -2.52400407680768 -1.90997674327433
 1  9.75454389618962 -3.13435531303130 -0.58736225772577
 1  11.28882307240724  0.40442806660666  0.67920138273827
 1  11.51268883828383 -1.40944943044304  1.03215373707371
 1  12.74350085808581 -1.46767064606461 -1.47428087088709
 1  12.59527984458446  0.24530725782578 -1.60621393989399
 1  13.41290232573257  0.65734613041304  0.78574374847485
 1  14.09143397889789 -1.07690064406441  1.22015159135914
 1  15.22932442984298  0.28474167396740 -1.27284393419342
 1  14.77802319731973 -2.36416470027003 -1.22632665316532
 1  16.58873560986099 -1.73221906140614 -1.63153454605461
 1  16.05851856945695 -2.50509012761276  0.15905860716072
 1  15.73169036063606  1.42509559825983  0.82766661026103
 1  16.40658698139814 -0.22514870577058  1.39020101690169
 1  18.06106218351835 -0.49499797839784 -0.23216790149015
 1  17.52073479887989  0.98734169726973 -1.17109441404140
 1  18.12547425332533  2.68103683138314  0.57211370637064
 1  18.79874288848885  1.49484832163216  1.75280653625363
 1  20.30391862166217  0.64941567526753  0.00893383048305
 1  19.94750744794479  3.57429956205621 -0.92987796199620
 1  21.12409092629263  2.09814541834183 -1.80371569496950
 1  19.33001123692369  1.97357739433943 -1.89389457065707
 1  20.78032304540454  1.74687423772377  2.29472340014001
 1  21.87922176387639  2.34477259385939  1.08137003680368
 1  20.51607927062706  3.30826049654965  1.54875748014801
 1 -6.94129791229123  1.68832310431043  0.58554181098110
 1 -7.79910127672767 -0.39100397599760  0.06350303010301

