%nproc=4
%Mem=2GB
# td=(NStates=1) B3LYP/SVP 

TD

0 1
 6 -5.14129698019802 -2.02823262926293  0.48043666876688
 6 -4.71306746494649  2.73544377337734  1.57733440954095
 6 -9.28813805740574  3.42364856115612 -0.22408702490249
 6 -9.84449630073007 -1.37849944454445 -0.95296144154415
 7 -5.14234098209821  0.33665012611261  0.92250970897090
 6 -4.57088518611861 -0.88072705630563  0.85114119971997
 6 -3.05907766146615 -0.63025350885089  1.39217246664666
 6 -3.11085523792379  0.79948506610661  1.93335784118412
 6 -4.41680663876388  1.36322336773677  1.51466337773777
 6 -2.90701719961996  0.86301460246025  3.45657551555156
 6 -2.12019736253625 -0.84037905200520  0.14085069276928
 6 -0.53220160826083 -0.74927378217822  0.56713447854785
 6  0.33926843274327 -0.98730564786479 -0.55651150835083
 8  0.06051578747875 -1.23426311621162 -1.72225468006801
 8  1.71389646484648 -0.96696311481148 -0.13183817581758
 7 -7.05019820082008  2.76945168706871  0.57392798679868
 6 -5.85134931593159  3.34048078057806  1.19442356775678
 6 -6.09542081458146  4.74236232003200  1.25079663136314
 6 -7.38691175567557  4.94863618661866  0.54698992909291
 6 -7.96529197959796  3.69372797169717  0.18095943224322
 6 -5.12460161656166  5.71151493389339  1.50537654155416
 6 -8.10134672287229  6.20808052575257  0.33995905020502
 6 -8.83436095889589  6.62619190979098 -0.66488510481048
 7 -9.14206760606061  0.94627310191019 -0.44489146454645
 6 -9.75016679407941  2.15062836453645 -0.59529834053405
 6 -11.20657689568957  2.03583722322232 -1.15793986528653
 6 -11.35345078557856  0.65337937933793 -1.23163322492249
 6 -10.13306001440144  0.00218316891689 -0.87563104350435
 6 -12.18671286848685  3.12484505360536 -1.36819124822482
 6 -12.56408650605061 -0.09247834623462 -1.75664789978998
 6 -12.57528199779978 -0.34728937533753 -3.25759294369437
 7 -7.47159028472847 -1.22056637113711 -0.22020836593659
 6 -8.60201618711871 -2.01294790899090 -0.62771970037004
 6 -8.19619322652265 -3.39766436793679 -0.77633137163716
 6 -6.80584261246125 -3.38137402170217 -0.24744684998500
 6 -6.40172871247125 -2.05376717581758 -0.07491533743374
 6 -9.06156014111411 -4.48463186318632 -1.29584209100910
 6 -5.69978610011001 -4.26638186508651  0.01111378097810
 8 -5.67402925902590 -5.51278778747875 -0.20666374597460
 6 -4.52676828142814 -3.30306741944194  0.49305455505551
 6 -3.98915132993299 -3.84726842204220  1.92150403570357
 8 -4.38253086478648 -3.56934789068907  2.97528799279928
 8 -3.09166168186819 -4.84734501580158  1.60231597459746
 6 -2.91856538683868 -5.68445935123512  2.87376384668467
 6  2.65890593399340 -1.16542523312331 -1.07476168146815
 6  3.91998610841084 -0.77119174257426 -0.45431204440444
 6  5.01163346354635 -0.06696764916492 -0.96198160276028
 6  4.98463897409741  0.51610545224522 -2.36996953595360
 6  6.30702441454145  0.10224285258526 -0.27135859895990
 6  7.45785001220122 -0.55652498559856 -1.04000135353535
 6  8.64907838483848 -0.34637984488449 -0.15178005790579
 6  10.08542039673967 -0.82927741034103 -0.85058603850385
 6  10.05183897729773 -2.34631979777978 -0.88649276397640
 6  11.20205087968797 -0.27646731733173 -0.07865033303330
 6  12.68097668226823 -0.59378785718572 -0.63045092229223
 6  13.76565297249725  0.08411570847085  0.15520188278828
 6  15.19844166526653 -0.07341037683768 -0.42424626042604
 6  15.61071839943994 -1.50452461436144 -0.52745248074807
 6  16.23907650485049  0.71300221142114  0.37998126252625
 6  17.56796363506351  0.82487822172217 -0.32230673847385
 6  18.52333218421842  1.80971959095910  0.48934762766277
 6  20.02646254215421  1.79062468776878  0.24378713911391
 6  20.28591952145215  2.03434286548655 -1.40391680068007
 6  20.83728419401940  2.81386512261226  1.05309170987099
 1 -3.87157532513251  3.27722410671067  2.13159539783978
 1 -10.04281186618662  4.31058049454946 -0.30220889478948
 1 -10.51523986388639 -2.10653666366637 -0.95695558945895
 1 -2.83523957545755 -1.43118348244825  2.06511830653065
 1 -2.37817838543854  1.33473342444244  1.28616811521152
 1 -1.99153666956696  0.19094651635164  4.01287801310131
 1 -2.97076037633763  1.82706735033503  3.93090219141914
 1 -4.07566814621462  0.47428813111311  3.90961980768077
 1 -2.30473992789279 -2.00826470417042 -0.38098495479548
 1 -2.42484842344234 -0.15251777747775 -0.60835949664966
 1 -0.38062238563856  0.39494362026203  0.79809584008401
 1 -0.26641965486549 -1.36882606260626  1.47503462246225
 1 -4.09161381878188  5.60436857445745  1.15377851585159
 1 -5.45887710651065  6.88671379007901  1.30884648164816
 1 -4.99850162716272  5.77934778417842  2.55485654625463
 1 -7.72527262616262  7.20182721642164  0.96259756605661
 1 -9.15851124392439  6.04949293479348 -1.56862625862586
 1 -9.23281756095610  7.61152643794379 -0.66452615671567
 1 -12.26026057345735  3.71699219771977 -0.54183658225823
 1 -12.18734765706571  3.75203016771677 -2.21307852535254
 1 -13.25997339733973  2.64822044024402 -1.46587963486349
 1 -12.57489231513151 -1.26654678097810 -1.29252382618262
 1 -13.26319706200620  0.54618427982798 -1.45887956525653
 1 -12.35936045104510  0.59849686478648 -3.80451929532953
 1 -11.69462567026703 -1.12086148254825 -3.43702449914992
 1 -13.69410748394840 -0.76805416351635 -3.52763662236224
 1 -9.95319286608661 -4.60802289418942 -0.32835863976398
 1 -9.58816072627263 -4.17445445894590 -2.36708722932293
 1 -8.56658836433643 -5.46667744764476 -1.38136278977898
 1 -3.59634536183618 -3.45869322062206 -0.24775783558356
 1 -1.98079494749475 -6.05573217691769  2.31991769576958
 1 -2.90862743444344 -5.01563130213021  4.18406285658566
 1 -3.93290434583458 -6.45012201220122  2.86952847304730
 1  2.67108890069007 -2.21506824792479 -1.14198133143314
 1  2.35627747064707 -0.51831326932693 -2.04816243554355
 1  4.01216265216522 -1.14485255575558  0.56841588598860
 1  5.16256152065207  1.57809550735074 -2.50059264666467
 1  5.20925788958896  0.03753970917092 -3.29675274237424
 1  3.70531701690169  0.75765857175718 -2.52500785768577
 1  6.49193929102910  1.13014615851585 -0.04815001540154
 1  6.35279310511051 -0.18793437873787  0.81714140824082
 1  7.26039669276928 -1.65303934933493 -1.11119596569657
 1  7.63534328542854 -0.24897939333933 -2.13466232393239
 1  8.70629507110711  0.67562541404140  0.03752501100110
 1  8.65690842074208 -0.91426851385139  0.74376722962296
 1  9.91428829412941 -0.29921972367237 -1.93246396929693
 1  9.05591277887789 -2.63203186598660 -1.27805703120312
 1  10.78957581858186 -2.87051872827283 -1.66493223882388
 1  10.19293773557356 -2.87081895939594  0.25904238273827
 1  11.10530472057206  0.89926755055506  0.10125358795880
 1  11.32826039543954 -0.75333381888189  0.95635615731573
 1  12.74661116911691 -1.73657753675368 -0.62366580938094
 1  12.77565788238824 -0.20169744264426 -1.82394571307131
 1  13.68258929442944  1.06544694049405  0.33866904100410
 1  13.72920775627563 -0.20500345434543  1.36193576977698
 1  15.06969846724673  0.49475267506751 -1.43690033983398
 1  14.70984637963796 -2.03873215701570 -1.41407542804280
 1  16.60032676897690 -1.67752359185919 -0.77907930053005
 1  15.55010772837284 -2.03933355195519  0.50671337263726
 1  16.01047823942394  1.77081016971697  0.71302514611461
 1  16.67906422912291  0.08655246434643  1.30700269706971
 1  17.96900297759776 -0.20080855945595 -0.60914559925993
 1  17.42238496389639  1.13950691379138 -1.51832913751375
 1  17.85498720462046  2.81696042374237  0.47099359435944
 1  18.65271828602861  1.62465130193019  1.59165042064206
 1  20.24407263706371  0.85047578127813  0.43273621072107
 1  19.65849854705471  2.92893502560256 -2.03143811801180
 1  21.40546906410641  2.17631323512351 -1.47661298469847
 1  20.04232246804681  1.15571560816082 -2.06312149334934
 1  20.88705371847185  2.46372592289229  2.13927785558556
 1  21.79983382508251  2.95710382698270  0.76901880168017
 1  20.25807347004701  3.84323399389939  1.12204480888089
 1 -7.03324710721072  1.72304657665767  0.20386364316432
 1 -7.39657102370237 -0.20758563416342 -0.21161448164817

