%nproc=4
%Mem=2GB
# td=(NStates=1) B3LYP/SVP 

TD

0 1
 6 -5.05434828532853 -1.99883968996900  0.40813943904390
 6 -4.65289144734473  2.69281951095110  1.47566424252425
 6 -9.17866711031103  3.36250244654465 -0.19026364256426
 6 -9.84681653275327 -1.49654124872487 -0.87670381578158
 7 -5.15588233623362  0.40863732483248  0.73867132513251
 6 -4.50337843544354 -0.74404338793879  0.76086217181718
 6 -3.08317007070707 -0.65926641014101  1.21045429482948
 6 -3.07856200860086  0.77397251485148  1.82513701910191
 6 -4.36244120222022  1.30214726012601  1.30466237763776
 6 -3.00710720862086  0.80409871087109  3.38609846784678
 6 -2.13520886368637 -0.81312632673267  0.00131673937394
 6 -0.70791918001800 -0.87617647244724  0.37906567166717
 6  0.33950845674567 -0.94616153345335 -0.72978883608361
 8  0.06926666256626 -1.40637032693269 -1.83201565616562
 8  1.58556363156316 -0.86992341084108 -0.31722671467147
 7 -6.91223440444044  2.76521126302630  0.42678327232723
 6 -5.83743792479248  3.41687842034203  0.97581170657066
 6 -6.03826509900990  4.79981806560656  0.99309086078608
 6 -7.28781184568457  4.97256857985799  0.48953418351835
 6 -7.93436888728873  3.67945654455446  0.28098943524352
 6 -5.17913707010701  5.87227100950095  1.58209421332133
 6 -7.92715930413041  6.31568128582858  0.36225127942794
 6 -8.88316583938394  6.71631092169217 -0.57524614091409
 7 -9.17092049134913  0.85047352195220 -0.57776475187519
 6 -9.74150592799280  2.13615691739174 -0.59503831453145
 6 -11.18404464246425  1.97141078057806 -0.95254932623262
 6 -11.39861530203020  0.52903694509451 -1.11908196979698
 6 -10.04498120652065 -0.07792484188419 -0.96964044444444
 6 -12.30446464366437  3.02616518561856 -1.03865829492949
 6 -12.51568166556656 -0.12735183358336 -1.63755599059906
 6 -12.64620909050905 -0.40961560796080 -3.12455964036404
 7 -7.52617574327433 -1.18574288878888 -0.27219356445645
 6 -8.56837282278228 -2.03439005320532 -0.65717264566457
 6 -8.23951755895590 -3.39422402390239 -0.51542528102810
 6 -6.86136816501650 -3.40029591389139 -0.22740484578458
 6 -6.43175171477148 -2.09025082418242  0.01202335643564
 6 -8.98321230633063 -4.66055945594559 -0.84262676947695
 6 -5.78599472097210 -4.37557278417842  0.04764743434343
 8 -5.66764862096210 -5.58562507120712  0.13404032443244
 6 -4.50798640324032 -3.40567768046805  0.47454270387039
 6 -3.91908432323232 -3.87581127632763  1.78430031533153
 8 -4.13782639433943 -3.39939089498950  2.93381384538454
 8 -3.10618313401340 -4.82814309560956  1.56526226922692
 6 -2.59219274957496 -5.43910481578158  2.68619508980898
 6  2.65017506090609 -0.94201289188919 -1.23737794309431
 6  3.92205631543154 -0.77020164356436 -0.63346996019602
 6  4.87063936413641  0.17465651325133 -1.01413681828183
 6  4.93122363256326  0.99504334603460 -2.34156669566957
 6  6.17877158925893  0.20224285258526 -0.27753921702170
 6  7.43700792799280 -0.33550288338834 -0.98378573197320
 6  8.65862933993400 -0.32438764566457 -0.11619649954996
 6  9.94762661736174 -0.74547903050305 -0.74743572347235
 6  10.05393918731873 -2.26101126692669 -1.14602871757176
 6  11.25654632923292 -0.30216988758876 -0.02842531053105
 6  12.63504208880888 -0.66084456285629 -0.57807568476848
 6  13.72799920712071 -0.00146284938494  0.18713507610761
 6  15.19083090419042 -0.31434447024702 -0.39083291909191
 6  15.54689201680168 -1.73643780568057 -0.48236797229723
 6  16.21076367356736  0.50314122532253  0.51633489788979
 6  17.59944678337834  0.70169590349035 -0.12064657245725
 6  18.56217606860686  1.62890150915092  0.68989768266827
 6  20.00475037093709  1.71517714301430  0.10616337673767
 6  20.01081201070107  2.37989742094209 -1.23134954395440
 6  20.83279374497450  2.54722845894589  1.18204460516052
 1 -3.69842801040104  3.42963934823482  1.72841507980798
 1 -9.85818340334033  4.20650008650865 -0.41952062596260
 1 -10.76031437133713 -2.04788079807981 -1.12114200810081
 1 -2.84808085958596 -1.44484484858486  1.90649244394439
 1 -2.34465503310331  1.49877982908291  1.22780227862786
 1 -2.10968848474848  0.44200162186219  3.75457218251825
 1 -3.39811311161116  1.63526817041704  3.71434053525353
 1 -3.75897647704770 -0.01838113581358  3.70134898059806
 1 -2.52867232113211 -1.66296017371737 -0.59371622792279
 1 -2.42062800140014  0.00880835513551 -0.58460712141214
 1 -0.58315263866387  0.13880800670067  1.10084611511151
 1 -0.33354636753675 -1.62509168916892  1.14851197019702
 1 -4.33317797519752  6.23237137473747  0.74270740874087
 1 -5.88750996979698  6.79592471117112  1.85257085408541
 1 -4.39700147714771  5.28440829022902  2.45288634923492
 1 -7.62006210511051  7.15773280698070  0.94081538783878
 1 -9.45501089388939  6.05518350385038 -1.21657105310531
 1 -9.28380265946595  7.56164144944494 -0.48639834393439
 1 -12.15982052945295  3.79596009450945 -0.10700309890989
 1 -12.48022694499450  3.59541450615062 -2.08732595009501
 1 -13.47637503750375  2.37648326652665 -0.97217026392639
 1 -12.46618144404440 -1.15633575987599 -1.11740631443144
 1 -13.62282302460246  0.32480214161416 -1.44367804510451
 1 -12.74687920292029  0.64755177027703 -3.52174101750175
 1 -11.73463967166717 -0.92461185758576 -3.46006680338034
 1 -13.54318239143914 -0.93514087218722 -3.37760161886189
 1 -10.01118866566657 -4.78108019991999 -0.24083988788879
 1 -9.25849775997600 -4.59494650815082 -1.98842936353635
 1 -8.31074277977798 -5.67607838773877 -0.86540119361936
 1 -3.94354008130813 -3.63095044634464 -0.37351041084108
 1 -1.94178104610461 -6.40492709640964  2.52332803680368
 1 -2.06172274397440 -4.87527726672667  3.38116256655666
 1 -3.45516657205721 -5.91041804180418  3.41598311851185
 1  2.69046083788379 -2.01739848094809 -1.54193132643264
 1  2.51965380828083 -0.28728016601660 -2.26717433673367
 1  4.25012644854485 -1.25904397489749  0.25039408380838
 1  5.08295355985599  2.15633333113311 -2.11520410781078
 1  5.69101606540654  0.64482043724372 -2.89300236733673
 1  4.08800528572857  0.92290509640964 -2.83571892879288
 1  6.38969906700670  1.30280342424242  0.07046184578458
 1  6.09378720452045 -0.37642322762276  0.61169086318632
 1  7.16675732883288 -1.37121116651665 -0.88916376247625
 1  7.67069682078208  0.30207571217122 -1.79492835053505
 1  8.83678812041204  0.74726257775778  0.15438669716972
 1  8.64744747464747 -0.83749083608361  1.06659951285129
 1  10.00078694399440  0.01444164246425 -1.72238296119612
 1  9.13452063966397 -2.51852051485149 -1.75102432793279
 1  10.97716457745775 -2.45398707510751 -1.73216896249625
 1  10.28394683648365 -2.87052893039304 -0.27898141964196
 1  11.20704489458946  0.71800942474247  0.35259872247225
 1  11.40735830523052 -1.00310879637964  0.86945746744674
 1  12.70904741274127 -1.76251013001300 -0.63461690449045
 1  12.83172348894889 -0.22637991089109 -1.58731204970497
 1  13.62927396289629  1.18508890469047  0.09562473657366
 1  13.74760959645965 -0.29417237123712  1.30019959615962
 1  15.07828932633263  0.02832603240324 -1.54118076787679
 1  14.94955035003500 -1.96816510031003 -1.17816183668367
 1  16.51019775607561 -1.85267110661066 -1.02793418601860
 1  15.51229394699470 -2.37727734633463  0.58762146344635
 1  15.93523071467147  1.59822291099110  0.76830067366737
 1  16.27832415511551  0.08923273237324  1.46306830363036
 1  18.20219629692969 -0.30410888948895 -0.01001568626863
 1  17.56670939633963  1.12110507360736 -1.21527883248325
 1  18.13431513741374  2.62945167286729  0.66572306730673
 1  18.36085910011001  1.41149998679868  1.79515077067707
 1  20.30066829662967  0.66053678737874  0.30125306240624
 1  19.44724742194219  3.36100823292329 -1.35124009820982
 1  21.03196171337133  2.53030863466347 -1.72654797819782
 1  19.50269850565056  1.71741177777778 -1.98212339353935
 1  20.97896290939094  2.12618216851685  2.20821474927493
 1  21.84117795949595  2.75638375497550  0.78739063886389
 1  20.35741340404040  3.54852452295230  1.31579418381838
 1 -6.84747853035303  1.83696796879688  0.16052930973097
 1 -7.75099646624663 -0.22577745334533 -0.20991431163116

