%nproc=4
%Mem=2GB
# td=(NStates=1) B3LYP/SVP 

TD

0 1
 6 -5.18266111661166 -1.97695750175018  0.39794841994199
 6 -4.81375753395340  2.69208943794379  1.38087476357636
 6 -9.29712895649565  3.35193138943894 -0.24949956615662
 6 -9.80885273637364 -1.40171176577658 -0.96780292569257
 7 -5.30132688068807  0.36428288938894  0.77793525152515
 6 -4.53575167276728 -0.75607459105911  0.78655474107411
 6 -3.11684343804380 -0.66041652515252  1.37515076447645
 6 -3.11810596299630  0.82481759935994  1.89711421682168
 6 -4.46480143824382  1.36860390579058  1.32078398979898
 6 -3.08386488438844  0.96333463446345  3.47053691169117
 6 -2.05997133993399 -0.81057607170717  0.10385699339934
 6 -0.60699908800880 -0.80775963076308  0.57208497359736
 6  0.36898140404040 -0.99591650895090 -0.63589944714471
 8  0.13498323422342 -1.33364305420542 -1.76397885248525
 8  1.66107118231823 -0.74216063456346 -0.17135212721272
 7 -7.10399358035804  2.75531027292729  0.47958855285529
 6 -5.97009119011901  3.37919465196520  0.92604673007301
 6 -6.28624989748975  4.72958104190419  1.00570212191219
 6 -7.49046211071107  4.99557088008801  0.43332856295630
 6 -8.02176762716272  3.73825242414241  0.08677001330133
 6 -5.17888704510451  5.79799358175818  1.39474547844784
 6 -8.13843043124312  6.30391010871087  0.35386044034403
 6 -9.02508003080308  6.65310460106011 -0.67845646194619
 7 -9.17642104140414  0.92487096169617 -0.50907788318832
 6 -9.84111588898890  2.03049635133513 -0.62206101680168
 6 -11.25910214821482  1.81674531403140 -0.87285135643564
 6 -11.34230967146715  0.50922496389639 -1.20777083868387
 6 -10.08374508290829 -0.02437948734873 -0.89973345374537
 6 -12.21516571377138  2.98447101620162 -1.06911134023402
 6 -12.61173127052705 -0.20254935333533 -1.56379861486149
 6 -12.70669513911391 -0.60265491189119 -3.04126131053105
 7 -7.52705583128313 -1.32059637413741 -0.31176752185219
 6 -8.56754273977398 -2.08780539473947 -0.73674060246025
 6 -8.27568117531753 -3.46805140664066 -0.66363010151015
 6 -6.80544257245725 -3.43303918821882 -0.33827593289329
 6 -6.46584512411241 -2.09426122522252 -0.07729557545755
 6 -9.10945493059306 -4.52865626562656 -1.08511101790179
 6 -5.76692281378138 -4.28118334523452  0.07561023062306
 8 -5.76559841594159 -5.49325583428343  0.07145406580658
 6 -4.54927053165316 -3.28623573627363  0.45520076967697
 6 -4.00200261506151 -3.86164986018602  1.80125201050105
 8 -4.15960857255726 -3.34032498839884  2.88079854385439
 8 -3.22916543224322 -4.91880216151615  1.53264900790079
 6 -2.73515704600460 -5.50315122042204  2.65886235653565
 6  2.77751779517952 -1.02356104670467 -1.17551175647565
 6  4.01720583038304 -0.76816143954395 -0.41197781098110
 6  5.00700300050005  0.14218326592659 -0.79447485208521
 6  4.90195070527053  1.00295413711371 -2.07352989198920
 6  6.23953766586659  0.24543717201720 -0.07746921002100
 6  7.56924115131513 -0.20900023312331 -0.78233558695870
 6  8.88607208420842 -0.26593180008001  0.16146126622662
 6  10.09336119081908 -0.57833231583158 -0.69951093099310
 6  10.06514030743074 -2.04162932873287 -1.34806892159216
 6  11.25861653625362 -0.31527119771977  0.14740227222722
 6  12.66888547314731 -0.54516299469947 -0.48716659385939
 6  13.92771917911791 -0.03181588468847  0.20728709130913
 6  15.15014683578358 -0.21229426522652 -0.50907474327433
 6  15.66956428402840 -1.65474963686369 -0.91323105860586
 6  16.38294089128913  0.39095000620062  0.35332859725973
 6  17.78334517321732  0.55562129602960 -0.42941744954495
 6  18.67296714771477  1.37727634663466  0.60133882678268
 6  20.14463435933593  1.65302092739274  0.05996875727573
 6  20.24779570907091  2.32788221942194 -1.29034544354435
 6  20.98701916751675  2.47755149124912  1.19005540624062
 1 -4.03768193579358  3.50207659195920  1.80210244854485
 1 -9.95510309530953  4.14767420392039 -0.37564623852385
 1 -10.57133547344734 -1.91791780178018 -1.32359225312531
 1 -2.94050010151015 -1.42330269436944  1.94063585828583
 1 -2.27466803440344  1.45923587468747  1.49648914731473
 1 -2.04685220112011  0.73388080978098  3.80531725702570
 1 -3.44627792809281  1.98329297289729  3.86768586978698
 1 -3.71425200460046  0.15742644494449  4.05395424112411
 1 -2.20032948684868 -1.67632150985099 -0.58249510581058
 1 -1.99988592719272  0.10787826212621 -0.46131479217922
 1 -0.40403472687269  0.15590971687169  1.08938496899690
 1 -0.20844385728573 -1.66869604960496  1.41378849784978
 1 -4.37490214761476  5.72365050265026  0.79028216621662
 1 -5.54610582938294  6.74493961266127  1.47339293629363
 1 -4.53777555455545  5.69132898229823  2.45876693729373
 1 -7.85205530443044  6.96113314701470  0.84467577387739
 1 -9.06475186798680  6.03854183968397 -1.51100049604960
 1 -9.54699897909791  7.76097138243824 -0.54273397749775
 1 -12.37269181658166  3.64077457595760 -0.24702710131013
 1 -11.77740666296630  3.52337730243024 -2.12501971947195
 1 -13.16784418441844  2.79565518371837 -1.31161420832083
 1 -12.81295612151215 -1.13337346364637 -1.06442101590159
 1 -13.38677942024202  0.48538820022002 -1.46342001930193
 1 -13.01540605560556  0.34414142924292 -3.49713855725573
 1 -11.73103931163116 -1.04407380378038 -3.51138193489349
 1 -13.56662473567357 -1.29826718481848 -3.34558841754175
 1 -10.09175672247225 -4.93663575547555 -0.36689249314931
 1 -9.44521643184318 -4.26211322482248 -2.19057957855786
 1 -8.48036974247425 -5.54308508840884 -0.88889354285429
 1 -3.97802352965296 -3.51520887218722 -0.43277633743374
 1 -2.38770563856386 -6.38453505720572  2.22199790379038
 1 -1.81232780448045 -5.04192393139314  3.19986443674367
 1 -3.55715677107711 -5.69114611461146  3.36897841804180
 1  2.69184097589759 -2.16267300840084 -1.50211734503450
 1  2.68760060296030 -0.29095053305331 -1.91862948224823
 1  4.17465890179018 -1.29468753925393  0.41750079447945
 1  5.49733499799980  2.04412211001100 -1.63383597099710
 1  5.47327429122912  0.63441939713971 -3.09791285838584
 1  3.96034251945194  1.48986179207921 -2.32448780568057
 1  6.30814091119112  1.26236938083808  0.33456825642564
 1  5.88681650745075 -0.60172575787579  0.83438313241324
 1  7.66169682278228 -1.29147319271927 -1.07098194429443
 1  7.74067381848185  0.48568407300730 -1.67644650235023
 1  9.12379682128213  0.77197504900490  0.54739599809981
 1  8.79868259815982 -1.03885097209721  1.03432628552855
 1  10.08493535883588  0.19352955125513 -1.66188691159116
 1  9.21686887448745 -2.25768443124312 -2.06300552605261
 1  11.04288114911491 -2.17015869226923 -1.84295004060406
 1  10.10186862866287 -2.75442732023202 -0.51865538703870
 1  11.00607479757976  0.68587621142114  0.53429689228923
 1  11.28225579497950 -0.95533401890189  1.00537105880588
 1  12.77230373837384 -1.63450732973297 -0.63191663446345
 1  12.75061537813781 -0.31698897179718 -1.57885120362036
 1  13.90011104660466  1.03702409820982  0.44614978907891
 1  13.91865670117012 -0.55853880788079  1.25955553175318
 1  15.10809230663066  0.35917911771177 -1.38293494329433
 1  14.83116851185119 -2.22756103990399 -1.58296231673167
 1  16.62831956825683 -1.78266410591059 -1.39417080968097
 1  15.51737445504551 -2.21014063266327  0.14097679897990
 1  15.81123831543154  1.29133222192219  0.66990083368337
 1  16.50184650735074 -0.15875206610661  1.37635963276328
 1  18.26762283958396 -0.39643812241224 -0.46990167486749
 1  17.60012273767377  0.99720268336834 -1.38656596119612
 1  18.19273097899790  2.51066979467947  0.51398789378938
 1  18.43237625182518  0.91534037083708  1.57264852045205
 1  20.69117734753475  0.56183691739174  0.10614355145515
 1  19.77474017121712  3.44197632973297 -1.46109108330833
 1  21.18271678887888  2.28428403220322 -1.47118244164416
 1  19.69784802060206  1.77458749534954 -2.02598777997800
 1  21.17514252735274  1.86064561486149  2.22227615541554
 1  22.19663350505050  2.52564068066807  1.02722462226223
 1  20.59296695939594  3.45100477097710  1.35647825222522
 1 -7.25105888838884  1.68884315631563  0.60961421822182
 1 -7.45057642424243 -0.34723959955996 -0.19332265246525

