%nproc=4
%Mem=2GB
# td=(NStates=1) B3LYP/SVP 

TD

0 1
 6 -5.11390424092409 -1.99470927692769  0.43409203430343
 6 -4.70035619381938  2.69298952795280  1.56097277337734
 6 -9.21297054065406  3.35237143344334 -0.43246786298630
 6 -9.78195004610461 -1.41891348594859 -0.85218136353635
 7 -5.19329607760776  0.39538599969997  0.77826528452845
 6 -4.45880397799780 -0.74845382898290  0.86118220382038
 6 -3.06982873657366 -0.63091357485749  1.40404365376538
 6 -3.07960211261126  0.75054017161716  2.00410491589159
 6 -4.38689364746475  1.33920096549655  1.41973388478848
 6 -3.13028952685269  0.62413071407141  3.58765862386239
 6 -2.09090443324332 -0.77921293539354  0.11769837753775
 6 -0.55733412151215 -0.85193404820482  0.60539830493049
 6  0.36367087298730 -1.00842776007601 -0.52680853805381
 8 -0.04590485458546 -1.38955864576458 -1.63991644624462
 8  1.65421049624962 -0.79003542204220 -0.22256724872487
 7 -6.94878805980598  2.82700744264426  0.45323591759176
 6 -5.82192637363736  3.36545327782778  1.02134626002600
 6 -6.15994726722672  4.75648373217322  1.08872042374237
 6 -7.35735880038004  4.99471079407941  0.49164439453945
 6 -7.89468491889189  3.70363896279628 -0.06076474017402
 6 -5.15810496689669  5.83079686208621  1.56391239513951
 6 -8.05822241044104  6.23851356905691  0.31975703000300
 6 -8.91348887168717  6.60277956855686 -0.68618723502350
 7 -9.20407380668067  0.95702417701770 -0.50314729012901
 6 -9.79896167356736  2.18439174087409 -0.64500331103110
 6 -11.26308254625462  1.95108874837484 -1.07033110441044
 6 -11.42961840234023  0.63487752915292 -1.22692275387539
 6 -10.11337804620462  0.03039599019902 -0.76901038143814
 6 -12.23699789698970  3.16660923002300 -1.37487191629163
 6 -12.63010310771077 -0.12835193359336 -1.63515575057506
 6 -12.54347881748175 -0.57018166456646 -3.21107829222922
 7 -7.49896302200220 -1.27127144164416  0.09524317921792
 6 -8.59380536603660 -1.98204481868187 -0.40605753415342
 6 -8.23558716591659 -3.35002960446045 -0.45184892339234
 6 -6.89180120832083 -3.43415930023002 -0.02307441274127
 6 -6.48947748734873 -2.10317211631163  0.13176533063306
 6 -9.12958694379438 -4.52659605960596 -0.93971647844784
 6 -5.80415653715372 -4.29311453835384  0.04223689328933
 8 -5.61678353445345 -5.50939744844484 -0.15422850245025
 6 -4.50497610221022 -3.33487059975998  0.37300254985499
 6 -4.02346476127613 -3.88321201640164  1.75518740404040
 8 -4.35220783248325 -3.46569752565257  2.85646611061106
 8 -3.13215573127313 -4.91580186148615  1.53964970797080
 6 -2.47281081138114 -5.48804971027103  2.63488995929593
 6  2.61279132253225 -1.13107179777978 -1.20541474677468
 6  3.92698680848085 -0.76745136853685 -0.60191680488049
 6  4.90451275147515  0.02738178577858 -1.16148155275528
 6  4.71569207940794  0.73442728442844 -2.44152669166917
 6  6.27615132723272  0.17993062136214 -0.45363682678268
 6  7.41082530973097 -0.33884321742174 -1.24394174757476
 6  8.71880535753575 -0.22099730663066 -0.37705258515852
 6  10.11355321002100 -0.71823630623062 -1.00045102500250
 6  10.15832962636264 -2.20879604540454 -1.24457857255726
 6  11.36121679627963 -0.41122079267927 -0.03298576657666
 6  12.63844242884288 -0.53755223362336 -0.68196607380738
 6  13.82247865506551 -0.07379008210821  0.17410377297730
 6  15.16147796889689 -0.11478451425143 -0.37205104090409
 6  15.64626195379538 -1.63306746864686 -0.65440517601760
 6  16.20807340454046  0.74945585678568  0.47452071647165
 6  17.57077391609161  0.73787952185219 -0.11408591639164
 6  18.59437928892889  1.63877249624963  0.68938763166317
 6  20.02227212311231  1.70836646194619  0.34619738013801
 6  20.38765969546955  2.28453788498850 -1.11233764276428
 6  20.86124659025903  2.41904564066407  1.39178557925793
 1 -3.79086725432543  3.12621900620062  1.97475971427143
 1 -9.81777936293629  4.22102153865386 -0.54637331123112
 1 -10.54326266616662 -2.28866487648765 -1.14611450535053
 1 -2.73789984148415 -1.59165953005301  2.11387318201820
 1 -2.24827539513951  1.35527547864787  1.66355585398540
 1 -2.31104862076208 -0.00871344964496  4.09614633993399
 1 -3.08517181748175  1.73887853145315  4.07223632483248
 1 -4.15412599199920 -0.04487378507851  3.94797364306431
 1 -2.29948940284028 -1.76338021572157 -0.14176103240324
 1 -2.30049598819882 -0.06555908160816 -0.70280894159416
 1 -0.26107043044304  0.13333745964596  1.19843587408741
 1 -0.39334234713471 -1.77027620762076  1.23235035403540
 1 -4.16350100750075  5.82041017861786  1.03518665666567
 1 -5.77901912071207  6.80484560326033  1.65021061806181
 1 -4.84262603960396  5.56550640004000  2.65218627922792
 1 -7.74737483638364  7.12830986468647  0.99017032333233
 1 -8.98510390319032  5.84906289178918 -1.50742013801380
 1 -9.19053333253325  7.71904719001900 -0.72496220032003
 1 -12.42688723612361  3.67492799129913 -0.42182458105811
 1 -11.84814373667367  3.88516348104810 -2.19620683818382
 1 -13.32351975197520  2.75021063926393 -1.78055110201020
 1 -12.81579640554055 -1.03067319361936 -1.02602717651765
 1 -13.50222096439644  0.54364402580258 -1.45271894919492
 1 -12.27823233823382  0.26554356945695 -3.75470431383138
 1 -11.74342054975498 -1.26170556695670 -3.20354115081508
 1 -13.46737481068107 -1.13391074917492 -3.42359621832183
 1 -9.90943849064907 -4.57354944684468 -0.20351615551555
 1 -9.67536944714471 -4.30097711121112 -1.98517903850385
 1 -8.54134584008401 -5.31487226712671 -1.00536519001900
 1 -3.76701242854285 -3.58287563886389 -0.43818687848785
 1 -1.85088195619562 -6.42832943664366  2.38387409140914
 1 -1.59565613731373 -4.70549028802880  2.93284773507351
 1 -3.24690574597460 -5.88818581858186  3.30735225542554
 1  2.60706249804980 -2.10658739983998 -1.41867900120012
 1  2.34366620952095 -0.29992143014301 -2.10416803610361
 1  4.15883731963196 -1.21781985248525  0.36201524592459
 1  5.06061132563256  1.88473617141714 -2.30506309370937
 1  5.21334829862986  0.23760971617162 -3.20474354145415
 1  3.61325781098110  0.87099990589059 -2.75139049594960
 1  6.34904500160016  1.22453559745975 -0.24312951335134
 1  6.22393021882188 -0.25867145244524  0.55101479557956
 1  7.29519017211721 -1.28001204660466 -1.30104495059506
 1  7.59908966006601  0.14322982758276 -2.08328718641864
 1  8.99171361296129  0.78124597609761 -0.17184592609261
 1  8.49949267916792 -0.65834292129213  0.69225207810781
 1  10.15350221552155 -0.03125292699270 -1.94809553245325
 1  9.44432161976198 -2.52484114691469 -1.95227445294530
 1  11.20155701670167 -2.41741341774177 -1.41687743334333
 1  9.60663910571057 -2.58526040354035 -0.42741626312631
 1  11.04217840794079  0.64007163096310  0.26100956355636
 1  11.19921749114912 -1.20515900140014  0.90070059175918
 1  12.90409691769177 -1.55070894989499 -0.95034847764776
 1  12.62481279787979 -0.07738501140114 -1.80060337883788
 1  13.72958399389939  0.80598099389939  0.50932610671067
 1  13.72301713721372 -0.71094404840484  1.06663623982398
 1  15.27569906730673  0.32106530633063 -1.23967061686169
 1  15.14234962996300 -2.09235751955196 -1.42088610911091
 1  16.70747748404841 -1.62439827932793 -0.94592598519852
 1  15.62378509610961 -2.24628424702470  0.08536123742374
 1  15.88690588218822  1.71809489818982  0.29289313291329
 1  16.11862818551855  0.59681349044904  1.69953194999500
 1  18.00574665196520 -0.30062854145415 -0.25573025772577
 1  17.48182090749075  1.19062202530253 -1.13079038363836
 1  18.34059576547655  2.74721344904490  0.55052154715472
 1  18.41059407360736  1.42359119591959  1.79522077767777
 1  20.59620785058506  0.57814854855486  0.14517745484548
 1  19.87486018321832  3.39617174927493 -1.27998297249725
 1  21.46374489168917  2.25041064486449 -1.40408573197320
 1  19.61024926072607  1.92914295089509 -1.96470165136514
 1  20.59172418551855  1.99414896519652  2.49587351515152
 1  22.04872871457146  2.02857097369737  1.31037293709371
 1  20.45193285598560  3.52020169066907  1.29926253065307
 1 -7.09460324282428  1.74343861586159  0.48126138293829
 1 -7.47097846444644 -0.19050392599260  0.31123780358036

