%nproc=4
%Mem=2GB
# td=(NStates=1) B3LYP/SVP 

TD

0 1
 6 -5.13234608510851 -1.98553835983598  0.38449707480748
 6 -4.74991114931493  2.84694492349235  1.26630330643064
 6 -9.37635687928793  3.36963315961596 -0.11879649584959
 6 -9.88878072917292 -1.41333292789279 -0.82904905030503
 7 -5.18604535253525  0.49741620272027  0.63566102410241
 6 -4.52292038963896 -0.73193217681768  0.72669875547555
 6 -3.11212296599660 -0.61735221872187  1.16483973337334
 6 -3.03303745614561  0.77642275987599  1.72032653805381
 6 -4.41871682978298  1.43961100650065  1.11552346374637
 6 -2.98741523942394  0.88933723472347  3.26520637863786
 6 -2.13621896469647 -0.81168618271827 -0.06406979927993
 6 -0.64354274237424 -0.84491334613461  0.46078384348435
 6  0.35631013691369 -1.11189810711071 -0.66741259845985
 8  0.07497723362336 -1.48063775367537 -1.81128358295830
 8  1.57244231943194 -0.83756017451745 -0.27060205220522
 7 -7.11797497849785  2.74704944684468  0.53546414041404
 6 -5.98325250625063  3.38342507500750  0.91137526292629
 6 -6.23264453695370  4.82261034483448  0.93983553525353
 6 -7.49282234673467  4.99653097609761  0.52575780588059
 6 -8.14737018741874  3.63878247714772  0.27616895319532
 6 -5.24044320072007  5.87583136553655  1.24844084798480
 6 -8.12640922912291  6.39042876057606  0.38897395169517
 6 -9.17391491429143  6.68313760436044 -0.43766238253825
 7 -9.26551995129513  0.86938541314131 -0.31915889128913
 6 -9.93890566796680  2.13600690239024 -0.32797160786079
 6 -11.31227746574657  1.91974561406141 -0.88025209650965
 6 -11.40345578607861  0.53868791019102 -1.19183924552455
 6 -10.12310901930193 -0.05099214861486 -0.70238371877188
 6 -12.33760795799580  3.02518508760876 -0.94951938103810
 6 -12.74261435883588 -0.14683378177818 -1.57490972597260
 6 -12.69419388898890 -0.67022166856686 -3.02199938433843
 7 -7.54692781848185 -1.22924723922392 -0.13328967406741
 6 -8.62364835033503 -2.00600721492149 -0.58898582698270
 6 -8.24624823202320 -3.32635723722372 -0.67069080758076
 6 -6.95136716491649 -3.39418530283028 -0.24539664496450
 6 -6.42443098269827 -2.08145994509451 -0.10770861676168
 6 -9.15992997809781 -4.49853325332533 -0.85872837963796
 6 -5.76719284078408 -4.28020324722472  0.01895456505651
 8 -5.64095595169517 -5.48877538623862 -0.04426750635064
 6 -4.61694729932993 -3.35713282598260  0.44967021662166
 6 -3.94689710451045 -3.82144583978398  1.75813769906991
 8 -4.03818643034303 -3.35737669356936  2.87011747574757
 8 -3.10156267196720 -4.82305258655866  1.45567131013101
 6 -2.60061359165917 -5.51535244054405  2.48583505380538
 6  2.67792783618362 -1.03346203680368 -1.11740594589459
 6  3.94218832863286 -0.76431105450545 -0.51213782698270
 6  4.99512181238124 -0.01806275867587 -0.98267367196720
 6  5.08651916211621  0.65542938463846 -2.29859239823982
 6  6.42134584668467  0.20426305460546 -0.27448891199120
 6  7.54279850705070 -0.54199353245325 -0.95545289868987
 6  8.87342081908191 -0.28359356625663 -0.17614249414941
 6  10.20072192689269 -0.82186666926693 -0.89125010491049
 6  10.03221701510151 -2.30584575037504 -1.06685079977998
 6  11.36796747134713 -0.28424809540954 -0.00236270427043
 6  12.68517710231023 -0.55539401780178 -0.64745262246225
 6  13.85439184638464 -0.11631433453345  0.17738410101010
 6  15.33123494459446 -0.26035907170717 -0.32199603540354
 6  15.79149647724772 -1.70292445434543 -0.56512624812481
 6  16.32362495969597  0.71193210441044  0.48701196559656
 6  17.83011985068507  0.83085881978198 -0.12948745654565
 6  18.67857770877087  1.61465008400840  0.81277997089709
 6  20.14162405830583  1.72209783508351  0.23414617501750
 6  20.18684961446145  2.37037646884688 -1.15885229422942
 6  21.07571803740374  2.48120185628563  1.25269166986699
 1 -4.01835000260026  3.51863824812481  1.59140137843784
 1 -10.10788837383738  4.31504094059406 -0.23386206010601
 1 -10.76375471537154 -2.06991300130013 -1.30810070397040
 1 -2.88683473497350 -1.27174753885389  1.90657245194519
 1 -2.31978254585459  1.45401535263526  1.26531603000300
 1 -1.97705522142214  0.64728214991499  3.46331305660566
 1 -3.29540284058406  1.95428007160716  3.44256335753575
 1 -3.60994157355736  0.15533623592359  3.72579142484248
 1 -2.25825527942794 -1.71076495419542 -0.48219507580758
 1 -2.24539047764776 -0.03628615431543 -0.81709036973697
 1 -0.20884520792079  0.05531965786579  0.90530656115612
 1 -0.55345835873587 -1.64802398239824  1.28020513951395
 1 -4.38208286568657  6.13227136473647  0.26209934793479
 1 -5.88020923972397  6.74393951265127  1.64266986398640
 1 -4.70090186718672  5.48447829722972  2.18723978457846
 1 -7.66410650955096  7.18306534023402  1.14095540184018
 1 -9.77653304610461  6.11496948244824 -1.24227362336234
 1 -9.59287356655666  7.72006729202920 -0.29047875197520
 1 -12.37341188858886  3.58119861836184  0.08356595799580
 1 -11.93124204650465  3.81129609430943 -1.73910112761276
 1 -13.37471487148715  2.63645926412641 -1.24784783168317
 1 -13.11210603650365 -0.83105323162316 -0.86983155695570
 1 -13.68326906920692  0.49718938033803 -1.50126380368037
 1 -12.65079959495950  0.30047706280628 -3.37737658105811
 1 -11.78273448114812 -1.41290068646865 -2.98774957165717
 1 -13.75360343354335 -1.18055541364136 -3.36233009170917
 1 -10.08654620142014 -4.25406749864986 -0.20638644254425
 1 -9.53121503170317 -4.57061407490749 -2.03571409200920
 1 -8.58276998249825 -5.33481426132613 -0.56348100160016
 1 -4.01763749104911 -3.54476182748275 -0.39888294809481
 1 -1.95768263626363 -6.22491909560956  2.12801850585059
 1 -1.75644221592159 -4.91129086808681  3.14779923022302
 1 -3.27436849224923 -5.76702370237024  3.42772429262926
 1  2.73062485428543 -2.00940768186819 -1.56292342564256
 1  2.59550139303930 -0.46865830383038 -2.05287290659066
 1  3.93678511441144 -1.41432950345034  0.41346039043904
 1  5.49564482898290  1.68559625742574 -2.18504109150915
 1  5.69791675547555  0.20142609780978 -3.16631969906991
 1  4.11423790899090  0.86615942184218 -3.02710806770677
 1  6.72665276237624  1.35835897979798 -0.14370957135714
 1  6.32447027282728 -0.20412599789979  0.64342403650365
 1  7.23713436653665 -1.76556060146015 -0.91157600370037
 1  7.68506825792579 -0.37882237763776 -1.99814867256726
 1  9.09959440104010  0.79486733823382 -0.16399514101410
 1  8.69109183908391 -0.55854294129413  0.88104095699570
 1  10.23780064536454 -0.41133093479348 -1.96008673157316
 1  9.08640582818282 -2.70898956175618 -1.61145037053705
 1  10.92310917191719 -2.75286696309631 -1.76495224082408
 1  10.21898033983398 -2.70292216971697  0.02325880438044
 1  11.35662985308531  0.89306693049305  0.15044850745074
 1  11.22665023442344 -0.93392187768777  0.93783430513051
 1  12.88986549454945 -1.52454633363336 -0.87390083288329
 1  12.80059037563756 -0.18974624752475 -1.60555387388739
 1  13.78904994049405  1.00165056085609  0.40642581668167
 1  13.83306814231423 -0.75437839183918  1.18573815001500
 1  15.42462395979598  0.26722992279228 -1.27132378217822
 1  15.13744913991399 -2.16459474327433 -1.32123614411441
 1  16.77185392169217 -1.75502134163416 -1.13364475707571
 1  15.63612633023302 -2.40830044864486  0.38049075037504
 1  16.01194838643864  1.63124621332133  0.48718256185619
 1  16.45273159585959  0.42229603870387  1.67105910271027
 1  17.95646172347235 -0.39070754935494 -0.26823150785078
 1  17.69976270167017  1.29655261836184 -1.07742504710471
 1  18.12590429632963  2.62587131483148  0.95453194819482
 1  18.76514952915291  1.19316815361536  1.84633588918892
 1  20.45108333813382  0.62732346604661  0.20764370147015
 1  19.64139683688369  3.35416754885488 -1.04284925912591
 1  21.24287280448045  2.46454205800580 -1.39494481788179
 1  19.54583281908191  1.80354039063906 -1.87357253845385
 1  20.73921893499350  2.02018156845685  2.09547347514751
 1  22.06754059575957  2.25703381998200  0.89585148494849
 1  20.93038070077008  3.60989065956596  1.09444204860486
 1 -7.03258704120412  1.68101237323732  0.37001025782578
 1 -7.40656202280228 -0.05015989158916 -0.16242956315632

