%nproc=4
%Mem=2GB
# td=(NStates=1) B3LYP/SVP 

TD

0 1
 6 -5.21027387788779 -1.99350915691569  0.57280590569057
 6 -4.65280143834383  2.81107133613361  1.61117779387939
 6 -9.20813005660566  3.35356155245525 -0.29655427162716
 6 -9.79161101220122 -1.44175577017702 -1.17227337273727
 7 -5.11835858385839  0.40126658775878  0.95697315531553
 6 -4.57298539613961 -0.79183816741674  0.93307939353935
 6 -3.09875162886289 -0.68704918841884  1.47927117651765
 6 -3.14564871727173  0.78256337393739  1.99671417681768
 6 -4.33096805490549  1.34010105550555  1.44705661706171
 6 -3.08351484938494  0.73651195219522  3.55611546954695
 6 -2.10595593839384 -0.84144915901590  0.21830843854385
 6 -0.66036442454245 -0.72593144794479  0.61896966206621
 6  0.38507301320132 -1.04142105940594 -0.56926278347835
 8  0.11714145004500 -1.19272896279628 -1.74970742534253
 8  1.61068614381438 -0.72923934243424 -0.07867285928593
 7 -7.00878405940594  2.77108185008501  0.57633822782278
 6 -5.84542872387239  3.29973670617062  1.19027315271527
 6 -6.16051732423242  4.70202828662866  1.28951050275027
 6 -7.37100016451645  4.93656497949795  0.58078330843084
 6 -7.97759320972097  3.63359195809581  0.28645998229823
 6 -5.15817497389739  5.75350913331333  1.65768177207721
 6 -7.96769335753575  6.22877259495950  0.32851790609061
 6 -8.80284780758076  6.65488477907791 -0.65127374367437
 7 -9.10885428472847  0.92224069866987 -0.66264323972397
 6 -9.77544932233223  2.09563286498650 -0.67670648134813
 6 -11.11241747974797  1.89319295879588 -1.14942901420142
 6 -11.35415085558556  0.56137017841784 -1.43034309590959
 6 -10.08403511191119 -0.00100715011501 -1.07465094549455
 6 -12.15751994919492  3.01383395249525 -1.20357478657866
 6 -12.57027712511251 -0.10783988238824 -2.05519775477548
 6 -12.25284975457546 -0.31462610901090 -3.54363154755476
 7 -7.48145127082708 -1.22666698119812 -0.37221356645665
 6 -8.56685267076708 -1.98181479567957 -0.80938786718672
 6 -8.16472007920792 -3.41711631313131 -0.77812155065507
 6 -6.83571559975998 -3.38774465876588 -0.18996110141014
 6 -6.55045358495850 -2.09143094219422  0.11894404850485
 6 -8.96750073517352 -4.53005640564056 -1.17635014181418
 6 -5.74405052655266 -4.30161538843884 -0.00990832123212
 8 -5.77398925502550 -5.53308981768177 -0.09611269086909
 6 -4.60533613821382 -3.44486159885989  0.58193344294429
 6 -4.11291370617062 -3.92124581978198  1.90064194949495
 8 -4.32599521122112 -3.64462541844184  3.02225268926893
 8 -3.11049356505651 -4.91094137543754  1.72394813781378
 6 -2.73889742004200 -5.56182708800880  2.97605407570757
 6  2.63705374877488 -0.99183787438744 -1.06629083438344
 6  3.91237534733473 -0.52504712811281 -0.42558917211721
 6  4.96582888308831  0.13200224782478 -1.02237764236424
 6  4.83782429262926  0.61631547324732 -2.54043658265827
 6  6.27995170727073  0.29744237253725 -0.38742020512051
 6  7.49481370857086 -0.45554488758876 -0.93746109950995
 6  8.78822229922992 -0.12639784668467 -0.12410729062906
 6  10.01995385008501 -0.81439592219222 -0.57638861876188
 6  9.85115890929093 -2.33935910171017 -0.57341145584558
 6  11.24888556315632 -0.29258892949295  0.14263179517952
 6  12.63862244684468 -0.63710218861886 -0.50415829302930
 6  13.85461186838684 -0.01306400950095  0.17296365896590
 6  15.15389721082108 -0.07193022882288 -0.58736257205721
 6  15.62426975457546 -1.59686384828483 -0.74240397589759
 6  16.16925952315232  0.67504841604160  0.28259152355236
 6  17.56119295799580  0.78464419831983 -0.39511401920192
 6  18.47365721672167  1.54523314231423  0.40339903280328
 6  20.04708460436044  1.64223984928493 -0.06975421502150
 6  20.05696662616262  2.44600403160316 -1.42741915091509
 6  20.92136260186019  2.30875461156116  0.92193859455946
 1 -3.84519268686869  3.40900728502850  2.08947118541854
 1 -9.86168375337534  4.19528896539654 -0.42864153805381
 1 -10.67423576347635 -2.05311132113211 -1.84955484938494
 1 -3.01520757225723 -1.45237560166017  2.14086588128813
 1 -2.16260682828283  1.28223817491749  1.74931442984299
 1 -2.25640315621562  0.40440786248625  4.18502522782278
 1 -2.89429272957296  1.77579222282228  3.86080518171817
 1 -4.00877145654565  0.31318202050205  3.98612745844585
 1 -2.25071452535254 -1.90153403110311 -0.32985984228423
 1 -2.28280421902190  0.05890336463646 -0.47237589828983
 1 -0.37367169056906  0.12373649954996  1.17254328482848
 1 -0.39710272317232 -1.58394757475748  1.34417153615362
 1 -4.34172883028303  6.04258239583958  0.87673081108111
 1 -5.61397261606161  6.76091120982098  1.90167576457646
 1 -4.64828660566057  5.64708455785579  2.53809487008701
 1 -7.64574467336734  6.93917095079508  1.12091339763976
 1 -9.39455484828483  6.00606859235924 -1.45661505750575
 1 -9.28584286348635  7.56631191649165 -0.49194889898990
 1 -11.92129667706771  3.72434293279328 -0.38732113071307
 1 -12.11210013231323  3.62926789148915 -2.20121733923392
 1 -13.28401580158016  2.72916853505351 -1.24436748364837
 1 -12.69536436233623 -0.99961008730873 -1.31823639743974
 1 -13.49209995229523  0.36047570897090 -1.96186986428643
 1 -12.52089660466047  0.63510052515252 -3.94650349374938
 1 -11.21655786348635 -0.60689008540854 -3.78889968666867
 1 -12.91803987718772 -1.21811917001700 -3.90628448714871
 1 -9.91579912671267 -4.65155724762476 -0.55836164006401
 1 -9.28392030223022 -4.26677369086909 -2.31651217181718
 1 -8.41366307180718 -5.58624940484048 -1.07997265076508
 1 -3.54633036033603 -3.59408675997600 -0.10327338713871
 1 -1.73631049904990 -6.19394599829983  2.65505120912091
 1 -2.47390396209621 -4.80191993099310  3.65466991729173
 1 -3.69312036743674 -6.14962196219622  3.40431195139514
 1  2.95490728252825 -2.21278801990199 -1.16892402570257
 1  2.37434927782778 -0.64943638163816 -2.00450807010701
 1  4.10852228812881 -1.05849391989199  0.48770781518152
 1  5.21121638613861  1.64239193699370 -2.69632221962196
 1  5.30348731253125  0.00020597579758 -3.28531159825983
 1  3.74885137033703  0.80062286818682 -2.78499385628563
 1  6.40165026212621  1.42812595649565 -0.28738393879388
 1  6.12886071187119  0.11742615731573  0.73916361046105
 1  7.40665131823182 -1.53371741714171 -0.96240108620862
 1  7.81054080518052 -0.08177267266727 -1.94461331903190
 1  8.89990443204320  1.13058090959096  0.03126438493849
 1  8.51605433533353 -0.65346243324332  1.01396424932493
 1  10.04031089638964 -0.28468827052705 -1.63043376627663
 1  8.90757794539454 -2.75694435723572 -1.11607083258326
 1  10.63090995199520 -2.89245092149215 -1.09389513511351
 1  10.02107054885489 -2.65767764526453  0.62862934143414
 1  11.18622281238124  0.82082970677068  0.30335379797980
 1  11.25773334273427 -0.53971245674567  1.14100462216222
 1  12.70633714171417 -1.70812469146915 -0.41829527232723
 1  12.69509982658266 -0.35888316121612 -1.52134545304530
 1  13.71893292879288  1.11830222602260  0.33723889798980
 1  13.97937277277728 -0.38569152315232  1.31534111031103
 1  15.04029552695270  0.45215841564156 -1.56009265906591
 1  14.81355675067507 -2.13320160396040 -1.33455747624762
 1  16.58251498779878 -1.51553739323932 -1.21800319291929
 1  15.78909162676268 -1.87307692629263  0.33504620592059
 1  15.86870406200620  1.71304439313931  0.50672451605161
 1  16.35227154985499  0.04371818091809  1.23806580338034
 1  17.87262333963396 -0.17301578017802 -0.62804748944895
 1  17.39199192459246  1.19255221832183 -1.36105340994099
 1  17.95778748464847  2.53073180088009  0.41539803480348
 1  18.51915492969297  1.36973581038104  1.50509176477648
 1  20.34342257205721  0.44662539623962 -0.19975703860386
 1  19.78250094729473  3.53414554665467 -1.25288026222622
 1  21.24493301050105  2.46755235903590 -1.74324964836484
 1  19.25038327412741  2.11683171977198 -2.01638681988199
 1  20.93849886298630  1.99378892919292  1.99014294209421
 1  22.05589943164316  2.21400951755176  0.52118401820182
 1  20.52624028672868  3.42077174767477  1.19632223662366
 1 -7.00172395489549  1.74877914991499  0.49768302510251
 1 -7.61182254885489 -0.03248812441244 -0.35121844204420

