%nproc=4
%Mem=2GB
# td=(NStates=1) B3LYP/SVP 

TD

0 1
 6 -5.10407325782578 -1.88134794079408  0.30907953305331
 6 -4.78321447964796  2.77534776377638  1.23046972307231
 6 -9.48861810541054  3.32600879717972 -0.13383800000000
 6 -9.83256510761076 -1.41753334793479 -0.72612875827583
 7 -5.22635938393839  0.40607706880688  0.74377183518352
 6 -4.52400049764976 -0.63287227082708  0.68846493209321
 6 -3.07375912961296 -0.57895837933793  1.13046629602960
 6 -3.07028118051805  0.89140425802580  1.65472997839784
 6 -4.39891484958496  1.47016406180618  1.17218913031303
 6 -2.72982948084808  1.05366366736674  3.20163002100210
 6 -2.06947229002900 -0.71634664876488 -0.10395378767877
 6 -0.64783317141714 -0.61592044684468  0.29764752985299
 6  0.34738924482448 -0.92575949324932 -0.91062691989199
 8  0.13390312621262 -1.32438212811281 -1.99147160176018
 8  1.54746982218222 -0.61014743324332 -0.49736472847285
 7 -7.11825500650065  2.81554629652965  0.40668126212621
 6 -5.96395057605761  3.34071080358036  0.91242536793679
 6 -6.22876414891489  4.79747783158316  0.97191874357436
 6 -7.57438050255026  5.03740506350635  0.50736596669667
 6 -8.13774922532253  3.67251585048505  0.21026236253625
 6 -5.11360051645164  5.85808959135914  1.40823682758276
 6 -8.25383197139714  6.29347906560656  0.40881593589359
 6 -9.37132465526553  6.69273856445645 -0.40566918321832
 7 -9.27930132943294  0.93152162676268 -0.36838381378138
 6 -9.98388016541654  2.14565786748675 -0.45443425412541
 6 -11.37021325932593  1.79968360786079 -0.81403547484748
 6 -11.51054649514952  0.48308234963496 -0.86368643024302
 6 -10.11555826422642 -0.02408945834583 -0.65319880028003
 6 -12.39788398559856  2.89603217231723 -0.92447687678768
 6 -12.71659175657566 -0.34614371277128 -1.36999923492349
 6 -12.66266073567357 -0.68060270667067 -2.74770195459546
 7 -7.52199532523252 -1.25648996349635 -0.10846719181918
 6 -8.58901488698870 -1.94099071327133 -0.37216414481448
 6 -8.29387299449945 -3.39714431593159 -0.52437617611761
 6 -6.92563459165917 -3.35311119541954 -0.19377148244824
 6 -6.42626116571657 -2.03162496159616 -0.02822066796680
 6 -9.11397538263826 -4.64923832383238 -0.82016452325233
 6 -5.75504162566257 -4.28763399029903  0.01164383398340
 8 -5.65191704780478 -5.49942645134513 -0.07406048564856
 6 -4.38956456105611 -3.24830194289429  0.35678092769277
 6 -3.85424783958396 -3.78806250145015  1.65703758905891
 8 -4.09634224592459 -3.34975593149315  2.72409287328733
 8 -2.99791230693069 -4.78228851015102  1.41194693769377
 6 -2.24279781008101 -5.23730463576358  2.55450192049205
 6  2.75389543294329 -1.00593928452845 -1.40155436073607
 6  4.03200731053105 -0.76819144254425 -0.62958957215722
 6  5.02104440464046 -0.07857881028103 -1.23536894149415
 6  5.12159266946695  0.64531837353735 -2.45071761076108
 6  6.31029474157416 -0.05790316201620 -0.41073253635364
 6  7.49929415661566 -0.56905623872387 -1.03644099749975
 6  8.72974645164516 -0.50756596349635 -0.07359223912391
 6  10.10648250295030 -0.87831231383138 -0.79650062996300
 6  10.14419821322132 -2.39544471027103 -1.14435855055506
 6  11.35746642124212 -0.39603927452745  0.01744927692769
 6  12.73085166976698 -0.84131260966097 -0.51415929312931
 6  13.89646605380538 -0.29588229132913  0.36342270487049
 6  15.24489631073107 -0.26251928772877 -0.31435527132713
 6  15.75632295989599 -1.59576373827383 -0.79587932343234
 6  16.25825842304231  0.49653056425643  0.68367163156316
 6  17.70552739143914  0.89209494339434 -0.06652115991599
 6  18.62700255125512  1.69795841484148  0.94084277717772
 6  20.10965086098610  1.75266089138914  0.38823158355836
 6  20.18452938243825  2.20321975317532 -0.98552496149615
 6  20.85968643424343  2.57574131023102  1.39973637433743
 1 -3.96133430103010  3.47356374067407  1.28106034433443
 1 -9.96781436643664  4.27823726022602 -0.21090976487649
 1 -10.48937727762776 -2.35458146814681 -0.93089298319832
 1 -2.98140419191919 -1.12277264136414  1.88206000070007
 1 -2.24506507410741  1.42107205830583  1.23057255565557
 1 -1.67141465736574  0.74062148384839  3.48647537283728
 1 -2.93885718601860  2.18316295989599  3.55143424462446
 1 -3.36485706510651  0.57549825212521  3.74257310301030
 1 -2.50708016191619 -1.64675855355536 -0.38830568686869
 1 -2.51224716331633  0.03575104940494 -0.84160282098210
 1 -0.42736706010601  0.37081120702070  0.71674770527053
 1 -0.20790380328033 -1.48557773777378  0.83559067806781
 1 -4.33008766616662  5.67898603620362  0.63709684768477
 1 -5.44020523932393  6.83333845254525  1.05376097309731
 1 -5.07423920092009  5.86137598699870  2.51882294289429
 1 -7.95193529242924  7.26155318901890  1.00001130743074
 1 -9.97220261306130  6.16905489098910 -1.31464086008601
 1 -9.66629090829083  7.81831711701170 -0.30638034213421
 1 -12.39297384478448  3.58048854735474  0.13309091049105
 1 -12.28843776607661  3.68181314601460 -1.78707592509251
 1 -13.50124752475248  2.47293291149115 -1.07194024092409
 1 -12.83244807070707 -1.21607173347335 -0.75070964476448
 1 -13.69085982828283  0.28034769616962 -0.99476315361536
 1 -12.77635215021502  0.09250626572657 -3.34880372377238
 1 -11.65153136083608 -1.23644304070407 -3.11719251595159
 1 -13.54625269846985 -1.34457181528153 -2.99954381308131
 1 -9.95092263906391 -5.06281837373737 -0.20607641154115
 1 -9.50751266146615 -4.54072108560856 -1.84638515911591
 1 -8.47749945544555 -5.53341412131213 -0.83088774227423
 1 -3.79543527082708 -3.33162051335133 -0.56997005680568
 1 -1.61831869986999 -5.86919352305231  2.21775747974797
 1 -1.64451102280228 -4.47848758775878  2.98195264556456
 1 -2.82744379977998 -5.53197019701970  3.56914843504350
 1  2.46670846264626 -2.13172991409141 -1.90727786108611
 1  2.71928377127713 -0.49544098209821 -2.30574819411941
 1  4.13630506640664 -1.13971204170417  0.33950299469947
 1  5.91865713021302  1.57509520732073 -2.44576716411641
 1  5.39644660846085 -0.07383142794279 -3.29628269536954
 1  3.94085057025703  1.08932173807381 -2.72663802070207
 1  6.34910500760076  1.17662080598060 -0.33140834123412
 1  6.22166999279928 -0.45364094939494  0.45587528162816
 1  7.41665231833183 -1.69630367576758 -1.32250709680968
 1  7.72446219731973 -0.00105460086009 -1.94867372507251
 1  8.88138257985799  0.58762661416142  0.32341359985999
 1  8.51080381028103 -1.05795288228823  1.00830368326833
 1  9.88373523882388 -0.28083788548855 -1.67383810671067
 1  9.56075326292629 -2.59964862766277 -2.12839206470647
 1  11.06266312731273 -2.66227790419042 -1.42721846744675
 1  9.62474091589159 -2.94839671717172 -0.25215873737374
 1  11.28761295139514  0.76198382218222  0.21915537813781
 1  11.22917048644864 -1.07518600410041  0.94143466516652
 1  12.80617712571257 -1.98060193919392 -0.58803224602460
 1  12.77617793439344 -0.18411568446845 -1.52158547704771
 1  13.57992902840284  0.74758515431543  0.72685785988599
 1  13.94343917941794 -0.77241019501950  1.33163273947395
 1  15.13656515391539  0.48880208000800 -1.16040269006901
 1  15.11787718271827 -2.05525380918092 -1.48856287678768
 1  16.72037877417742 -1.42113795329533 -1.28651004360436
 1  15.83844656225623 -2.29363898249825  0.19709241054105
 1  15.68391558315832  1.32180526922692  1.09092293589359
 1  16.48619494219422 -0.10499669056906  1.65842783958396
 1  18.37442351965197 -0.20581906050605 -0.15775045974597
 1  17.34382710811081  1.30024298739874 -1.08507581218122
 1  18.40692239813982  2.81563029072907  1.04309080408041
 1  18.52947596179618  1.44780361716172  1.84132538813881
 1  20.57959618941894  0.63776451015102  0.29673261036104
 1  19.41162385958596  2.99675180728073 -1.54963993819382
 1  21.29820833803380  2.55118072187219 -1.24484980838084
 1  19.86420465626563  1.38229826642664 -1.65940112131213
 1  20.37781279437944  2.52596214651465  2.40348427622762
 1  22.00635447714771  2.31418953555356  1.41451335113511
 1  20.64191185388539  3.70858052855286  1.23482608700870
 1 -7.10003378587859  1.70322459445945  0.32227548434843
 1 -7.54844621122112 -0.20413528912891 -0.04598791899190

