%nproc=4
%Mem=2GB
# td=(NStates=1) B3LYP/SVP 

TD

0 1
 6 -5.20045289578958 -1.87066687268727  0.55695432053205
 6 -4.78711486968697  2.82926315531553  1.37750442654265
 6 -9.36247549114911  3.32514871117112 -0.21784640084008
 6 -9.89524137523752 -1.43316491109111 -0.86517266266627
 7 -5.19246599459946  0.50866732783278  0.87500495849585
 6 -4.52075017261726 -0.69769875347535  0.75934201980198
 6 -3.09598135183518 -0.52347283078308  1.17401065046505
 6 -3.00246439883988  0.92817793539354  1.65864036943694
 6 -4.42757771587159  1.50034708010801  1.37973988538854
 6 -2.73642013991399  1.01161946294629  3.19340919891989
 6 -2.03205854865487 -0.96983199729973  0.08068467616762
 6 -0.53334172227223 -1.04747360216022  0.57235500060006
 6  0.50797530343034 -1.26762367966797 -0.60211606880688
 8  0.19379911581158 -1.63401309120912 -1.77151960656066
 8  1.70550562576258 -1.02397881638164 -0.29089408140814
 7 -6.99630281128113  2.78212295419542  0.46259685368537
 6 -5.94879906090609  3.46799353185319  1.05168929432943
 6 -6.28210948344834  4.78963704750475  1.11492304400440
 6 -7.57241030553055  5.04256557955796  0.59965519561956
 6 -8.04283973437344  3.66904550345035  0.23214455075508
 6 -5.40066922332233  5.83893767616762  1.60874687858786
 6 -8.10548713691369  6.27076679437944  0.19137419171917
 6 -9.01339886268627  6.56689598019802 -0.77537615391539
 7 -9.24560796009601  0.85436391099110 -0.44698167356736
 6 -9.95141691909191  1.99899320102010 -0.44586339703970
 6 -11.29201543954395  1.87486112561256 -0.90133420472047
 6 -11.50743618411841  0.57822186358636 -1.09595965756576
 6 -10.21662837123712 -0.09769681908191 -0.80180366076608
 6 -12.29117331453145  3.01762433153315 -0.91541597069707
 6 -12.75687578497850 -0.12991208960896 -1.47487972297230
 6 -12.96458092769277 -0.43521816821682 -2.98989617401740
 7 -7.58081120682068 -1.14466878137814 -0.22072841794179
 6 -8.68842482798280 -1.99282589678968 -0.47697462586259
 6 -8.28804241144114 -3.42256685818582 -0.46589032753275
 6 -6.95942797099710 -3.27398328262826 -0.07715982128213
 6 -6.51437997759776 -1.89967176627663  0.01939409350935
 6 -9.12640662576258 -4.59136253625362 -0.85572807960796
 6 -5.75571169266927 -4.20188541544154 -0.02056938733873
 8 -5.71907376347635 -5.41738824752475 -0.03208628822882
 6 -4.53743934853485 -3.28962607530753  0.45337058665867
 6 -3.85916833163316 -3.69079277447745  1.67058894419442
 8 -4.18518112981298 -3.32050300620062  2.77904836883688
 8 -2.91799431513151 -4.69655993729373  1.39327507050705
 6 -2.43054658495850 -5.26100700600060  2.49711618191819
 6  2.69595963936394 -1.34983367396740 -1.25517972327233
 6  4.06185029482948 -1.02025664906491 -0.75355196839684
 6  4.95144744494449 -0.12933388578858 -1.18563396799680
 6  4.83492400260026  0.74251809350935 -2.33063560256026
 6  6.27072078417842 -0.09521689338934 -0.43358482158216
 6  7.58579280648065 -0.58796812991299 -1.17140449384939
 6  8.71434491149115 -0.48699390629063 -0.34034891479148
 6  10.08563041774177 -0.85519000160016 -1.13171415131513
 6  10.26993078647865 -2.31582674847485 -1.39920403510351
 6  11.25703637823782 -0.21473114371437 -0.29868233623362
 6  12.72587117171717 -0.51052953135314 -0.79776765396540
 6  13.77911431863186  0.02726002290229  0.18496485908591
 6  15.30401222232223 -0.04032706850685 -0.30225406120612
 6  15.69493682128213 -1.58438260016002 -0.54656439193919
 6  16.34653725092510  0.75105601680168  0.50015327972797
 6  17.73649048774877  0.82419815371537 -0.05414992279228
 6  18.51769162016202  1.66288490749075  0.81798049094909
 6  20.14649454535454  1.77624324962496  0.52934569496950
 6  20.48482941244125  2.26126555775578 -0.88351476047605
 6  20.86566703230323  2.49199293539354  1.62582898359836
 1 -4.07255542314231  3.50010639493949  1.73548578687869
 1 -9.94418200320032  4.25501493799380 -0.41703037693769
 1 -10.70780912081208 -2.08382439243924 -0.90947084098410
 1 -2.82325837733773 -1.02023238733873  2.10116191089109
 1 -2.18055862346235  1.43865381648165  0.88392789118912
 1 -1.76165368126813  0.36954437613761  3.42866959225923
 1 -2.37262056235624  2.07902254585459  3.58433753495350
 1 -3.62319289868987  0.66479718201820  3.93920276597660
 1 -2.31500095399540 -1.94533841154115 -0.20788764506451
 1 -2.12172811141114 -0.29599212491249 -0.67591625232523
 1  0.00412608920892 -0.15358123222322  1.15702173267327
 1 -0.54673768666867 -1.83549272927293  1.42985010401040
 1 -4.69014367176718  6.37182532013201  0.62504564256426
 1 -6.04732595139514  6.73384850355036  2.05040063706371
 1 -4.66740851785179  5.39629947934794  2.50603166376638
 1 -7.87323742264226  7.25134216791679  0.70661196749675
 1 -9.34739013181318  5.84540252575257 -1.44778417441744
 1 -9.16698097729773  7.67721300660066 -0.96496620072007
 1 -12.40034458185819  3.62913341184119  0.19102670407041
 1 -11.99969889218922  3.68946391109111 -1.85302251975198
 1 -13.36230363036304  2.55845146334633 -1.16686973387339
 1 -12.79941476737674 -1.22946307260726 -0.99666424022402
 1 -13.72017275957596  0.50112977437744 -1.29786346364636
 1 -12.61521603660366  0.49424643974397 -3.48204704810481
 1 -12.18703491119112 -1.19493889028903 -3.11696249294929
 1 -14.05639371257126 -0.64653201130113 -3.35718957765777
 1 -9.75696324312431 -4.86221831373137 -0.08967477137714
 1 -9.79461137133713 -3.96379339283928 -1.57655817641764
 1 -8.46211791729173 -5.50283106300630 -1.30782543604360
 1 -3.91730745804580 -3.32424977627763 -0.38029108890889
 1 -1.99448631663166 -6.25100170387039  2.01213691769177
 1 -1.68033460516052 -4.57666740574057  2.98978342864286
 1 -3.20502155755576 -5.72851985198520  3.04060558075808
 1  2.60830262206221 -2.38495523662366 -1.50027716101610
 1  2.38451029392939 -0.96862830083008 -2.18450606990699
 1  4.19525096099610 -1.44532260276028  0.23724276867687
 1  4.99900516501650  1.92751044884488 -1.95107769516952
 1  5.48348531233123  0.71533748894889 -3.44799786688669
 1  3.72938942414241  0.55882868876888 -2.72898825572557
 1  6.49697979507951  1.04454759865987 -0.32075727612761
 1  6.15267309310931 -0.34195978127813  0.49316901100110
 1  7.34565521862186 -1.71366541194119 -1.35130997709771
 1  7.63627337843784 -0.03034753015302 -2.21663052075208
 1  8.86426086768677  0.50977882938294 -0.36377511901190
 1  8.70054278417842 -1.02791987898790  0.65164801770177
 1  10.05165203050305 -0.49007880958096 -1.92308303120312
 1  9.39450663826383 -2.80722938573857 -1.83094231973197
 1  11.33458031903190 -2.18978065446545 -2.17196294189419
 1  10.64573301510151 -2.98006988448845 -0.36999052055205
 1  11.07533172327233  0.80267789158916 -0.08561509890989
 1  11.21153872327233 -0.40740922642264  0.81446196789679
 1  12.80283679167917 -1.53068694769477 -0.78663210601060
 1  12.87713803040304 -0.20146741964196 -1.94518783728373
 1  13.63377441294129  1.03138353415342  0.48290346444644
 1  13.75780061556156 -0.53100605460546  1.16716629282928
 1  15.30392188958896  0.46816001580158 -1.49923657345735
 1  14.92649804480448 -2.14121240504050 -1.12754677517752
 1  16.55882261856186 -1.78617445694569 -1.19691108370837
 1  15.86425914351435 -2.01902152075207  0.50157285858586
 1  16.15362255385539  1.77776086478648  0.39546338993899
 1  16.06114243694369  0.22250605970597  1.41949394619462
 1  18.05271134843484 -0.31973045164516 -0.05626031073107
 1  17.76579930533053  1.16742970607061 -1.16373367796780
 1  18.16274798069807  2.71954068176818  0.90915741074107
 1  18.48423143734373  1.27042587938794  1.83953520912091
 1  20.38083631343135  0.57816855055506  0.59243218031803
 1  20.38893159035904  3.38760089218922 -0.80364533873387
 1  21.47122563976398  2.27252285608561 -1.29335465886589
 1  19.73313154895489  1.71410144674467 -1.58469365056506
 1  20.77553256635664  1.80430998129813  2.46475040284028
 1  21.85257909960996  2.60248836543654  1.47372927272727
 1  20.33994165686569  3.46217588808881  1.87613021742174
 1 -7.06447022952295  1.77381165316532 -0.04952169536954
 1 -7.87151851845185 -0.24947982358236  0.09094577437744

