%nproc=4
%Mem=2GB
# td=(NStates=1) B3LYP/SVP 

TD

0 1
 6 -5.08249109960996 -2.02626243224322  0.49554817991799
 6 -4.82151831003100  2.73891412041204  1.60219689578958
 6 -9.24090333393339  3.42643884018402 -0.29762437863786
 6 -9.76207805890589 -1.35030662526253 -0.90719686508651
 7 -5.18095484348435  0.43817027812781  0.96439389738974
 6 -4.53622171977198 -0.72836181978198  0.85418150375038
 6 -3.12186394009401 -0.57051753525353  1.44843809320932
 6 -3.10098425082508  0.86596171377138  1.91178568396840
 6 -4.41355631373137  1.39164621002100  1.47386929832983
 6 -3.01925842374237  0.91501980298030  3.50934079207921
 6 -2.02970831363136 -0.87985299939994  0.26952356005601
 6 -0.51249963806381 -0.74065292009201  0.74320208530853
 6  0.29507401330133 -0.95172208950895 -0.49573543074307
 8 -0.07953821792179 -1.44850454035404 -1.46742919751975
 8  1.65870094529453 -0.73696011451145 -0.11808680068007
 7 -7.06180936193619  2.73228797069707  0.45655624962496
 6 -5.96336051705171  3.28351508400840  1.08309243464346
 6 -6.19839111161116  4.71586967076708  1.16765831753175
 6 -7.47693075757576  4.95354667766777  0.53673890399040
 6 -7.98091354175418  3.68767736663666  0.11481281758176
 6 -5.12683183958396  5.70517429982998  1.57413341724172
 6 -8.01468805700570  6.30643036073607  0.29626468076808
 6 -8.82330985378538  6.68050734133413 -0.74347296359636
 7 -9.20617401670167  0.94684315891589 -0.55287226262626
 6 -9.87081885928593  2.13403670537054 -0.61709051975198
 6 -11.26574281228123  1.92769640914091 -1.15362943424342
 6 -11.43316875737574  0.61824586598660 -1.28435849744974
 6 -10.10939764816482 -0.03713076247625 -0.84062754315432
 6 -12.28238243544354  2.97283985308531 -1.25066949604960
 6 -12.69243934133413 -0.08773787218722 -1.69660189518952
 6 -12.64563903350335 -0.49041368776878 -3.26182336673667
 7 -7.46847997369737 -1.21173548804880 -0.25166151125113
 6 -8.48628461396139 -1.91106772097210 -0.61418834723472
 6 -8.17589119631963 -3.33732833433343 -0.64403814231423
 6 -6.92283431163116 -3.40309619391939 -0.29630173547355
 6 -6.45549408900890 -2.04038583768377  0.01646380048005
 6 -9.20077406250625 -4.44023742374237 -1.02731523832383
 6 -5.87476359785979 -4.32556778367837  0.04646731633163
 8 -5.72846470257026 -5.49835634433443 -0.01320440004000
 6 -4.51998760336034 -3.43285039773977  0.50463571317132
 6 -3.90672308710871 -3.93170686588659  1.78722060736074
 8 -4.07093970567057 -3.45321627752775  2.86513697769777
 8 -3.21270378607861 -5.08469875117512  1.52498824182418
 6 -2.57172070237024 -5.76142704800480  2.61145761606161
 6  2.61605164856486 -1.04616330693069 -1.26940114541454
 6  3.88352246204620 -0.76306092949295 -0.60905751895190
 6  4.95312761296130 -0.06393734613461 -1.07417282188219
 6  4.86903741394139  0.42468631033103 -2.52798533753375
 6  6.24396810891089  0.07074970327033 -0.22010347344734
 6  7.51068529572957 -0.45527486058606 -1.04856220962096
 6  8.75115859285929 -0.23048825572557 -0.26037091699170
 6  10.11245310001000 -0.58764324692469 -0.91711269116912
 6  10.16864065746575 -2.05726089188919 -1.23501761646165
 6  11.23916459105911 -0.23387305790579 -0.01510397839784
 6  12.71625020962096 -0.44853333173317 -0.65279315651565
 6  13.79689609680968  0.05814311121112  0.14653101570157
 6  15.28113993509351 -0.09452248804880 -0.46290012581258
 6  15.60743807140714 -1.63366752865287 -0.45012474797480
 6  16.27202980018002  0.82369328052805  0.26376964136414
 6  17.68429526822682  0.75694142804280 -0.24034854265427
 6  18.62995284628463  1.59216783578358  0.60667936083608
 6  20.08334823072307  1.61020664596460  0.24694745514551
 6  20.27606853635364  2.24961439263926 -1.19061547054705
 6  21.01836230183018  2.31662539863986  1.27207360806081
 1 -4.14963313091309  3.35000138443844  2.24700693899390
 1 -10.02868045304530  4.25732516901690 -0.11566023992399
 1 -10.41111945184518 -2.07404341434143 -1.28615850975098
 1 -2.95604165566557 -1.15053541764176  2.18299009370937
 1 -2.23132369997000  1.41990194129413  1.66215571397140
 1 -2.04803231913191  0.90765818751875  3.96839356465646
 1 -3.50385368566857  1.97796243984398  3.79108821002100
 1 -3.54694527392739  0.04747544984498  3.86902574827483
 1 -2.29526898079808 -2.06577045474547 -0.07733458975897
 1 -2.17466340494049 -0.26051857755776 -0.63240190089009
 1 -0.33757808120812  0.25735986188619  1.08330436093609
 1 -0.60155316821682 -1.57692687268727  1.55834295329533
 1 -4.07730238763876  5.48736687428743  0.95254839283928
 1 -5.40513173197320  6.82612773147315  1.41812740974097
 1 -5.00867264426443  5.63027287668767  2.60325138573857
 1 -7.92567266616662  6.99727676137614  1.08955026132613
 1 -9.01765715851585  5.95757374287429 -1.56163555955596
 1 -9.05093937313731  7.81023630893089 -1.06774647874787
 1 -12.37952249964997  3.41196169466947 -0.42585498409841
 1 -12.09884880718072  3.59907487218722 -2.15564278177818
 1 -13.17677507750775  2.59295491369137 -1.66208925582558
 1 -12.96886171207121 -1.10385051135113 -1.17790236403640
 1 -13.57766850915092  0.47662732413241 -1.50333401070107
 1 -12.47891240624062  0.62476949204921 -3.86781562496250
 1 -11.72517872557256 -1.12280167656766 -3.56013681038104
 1 -13.49450752395240 -0.80906826492649 -3.55551941064107
 1 -10.20009755655566 -4.36607869976998 -0.50536634053405
 1 -9.21054296449645 -4.55052206570657 -2.28376889748975
 1 -8.78677038253825 -5.50294107400740 -0.42467712121212
 1 -3.70733646094609 -3.61480883218322 -0.37538059785979
 1 -1.60519738773877 -6.34317092079208  2.22273797779778
 1 -2.34035060676068 -4.90583032203220  3.36508095839584
 1 -3.45696675207521 -6.53521052105210  3.08747026722672
 1  2.30857264906491 -2.01208794989499 -1.48729586288629
 1  2.22064390729073 -0.21689312731273 -1.99714733403340
 1  3.94960639653965 -1.17640571107111  0.38843788818882
 1  5.54744000850085  1.40676837463746 -2.64142673007301
 1  5.21470843464346 -0.17409145394539 -3.49140220732073
 1  3.85904238943894  0.91068387428743 -2.72930828772877
 1  6.55327542464246  1.09114225812581 -0.11777697809781
 1  6.31398922472247 -0.50746633193319  0.71465115921592
 1  7.34502515561556 -1.53178722412241 -1.26305115121512
 1  7.51328107920792  0.10616612121212 -1.96507536523652
 1  8.77672211381138  0.99493734523452 -0.02776151765177
 1  8.74305703560356 -0.69347643464346  0.59584243714371
 1  10.20724759005900 -0.07995779747975 -1.86326704960496
 1  9.33206039363936 -2.44903356615662 -1.86248547404740
 1  10.95553241424142 -2.12380405680568 -2.13383912951295
 1  10.30837927972797 -2.73965584308431 -0.25797931943194
 1  11.28653284338434  0.86830445424542  0.14349781238124
 1  11.14338190759076 -0.75989447494749  0.86570709240924
 1  12.84845135313531 -1.45410928992899 -0.79006244904490
 1  12.68056837343734 -0.03854112701270 -1.66166948544854
 1  13.58930996649665  1.13430382618262  0.29012418651865
 1  13.93487832333233 -0.34343729772977  1.18547812401240
 1  15.20115161256126  0.21847504730473 -1.51833848364836
 1  14.60092548754876 -2.44654293809381 -0.52647666816682
 1  16.50452718901890 -1.84679051855185 -1.11490288288829
 1  16.08962167976798 -1.93430304890489  0.60359306060606
 1  15.66114330593059  1.92766585528553  0.21731557515752
 1  16.37276359905991  0.43058686778678  1.30564256105611
 1  18.00612668996900 -0.18877735633563 -0.06280096479648
 1  17.56144887028703  1.05202816591659 -1.46475377997800
 1  18.11174288018802  2.70252898059806  0.52581907690769
 1  18.66351936613662  1.37648648544855  1.71966322192219
 1  20.61343957375738  0.62563329702970  0.03114605170517
 1  19.78876157335734  3.16858899099910 -1.13857883208321
 1  21.31015953315331  2.34915051885189 -1.40948627202720
 1  19.92400063586359  1.64329436603660 -1.87860304150415
 1  20.77489250235024  2.16044559485949  2.26706063386339
 1  22.14498834053405  2.34731284788479  1.06414831463146
 1  20.63074073677368  3.27620729122912  1.47729033343334
 1 -7.28953273577358  1.75616988898890  0.51798505530553
 1 -7.53989535613561 -0.24131900750075  0.17487416721672

