%nproc=4
%Mem=2GB
# td=(NStates=1) B3LYP/SVP 

TD

0 1
 6 -5.11741459195920 -1.97963776977698  0.53145177027703
 6 -4.72521868006801  2.74122435143514  1.57760443654365
 6 -9.29751899549955  3.30032622892289 -0.21167578377838
 6 -9.82942479357936 -1.48369996459646 -0.96137228262826
 7 -5.23524027202720  0.54077053815382  0.89146660466047
 6 -4.48547664526453 -0.66770575417542  0.90997708330833
 6 -3.06576833053305 -0.56531701520152  1.32895614501450
 6 -3.02294644704470  0.83680879847985  1.84499900530053
 6 -4.41139609770977  1.43330037543754  1.43332524392439
 6 -2.96863336123612  0.75747404840484  3.52614247224722
 6 -2.08709405220522 -0.71431644574457  0.09048565626563
 6 -0.67718610671067 -0.89464831963196  0.53253101820182
 6  0.28687319321932 -0.92349926722672 -0.63072893009301
 8  0.07417715361536 -1.07984767466747 -1.92802525712571
 8  1.53394847004700 -0.80431685018502 -0.21702669466947
 7 -7.11563474447445  2.73856859875988  0.54326492049205
 6 -6.03728790979098  3.34919165166517  1.16786091149115
 6 -6.36413768626863  4.74422250605060  1.11217276897690
 6 -7.50304336883688  4.98839016201620  0.44155938603860
 6 -8.00844629502950  3.67727632653265  0.22100343664366
 6 -5.40640979737974  5.68005178757876  1.62635863976398
 6 -8.09651623982398  6.35198491619162  0.23966902120212
 6 -8.91169869266927  6.80445973657366 -0.65254387068707
 7 -9.24790819011901  0.85748422302230 -0.52410938633863
 6 -9.85033681108111  2.10167346904690 -0.56763557425743
 6 -11.26091232923292  1.86375001450145 -1.03408748004800
 6 -11.32355779627963  0.47108114951495 -1.22745280688069
 6 -10.01331804020402 -0.05303235263526 -0.85718919931993
 6 -12.19307350455045  2.96364893399340 -1.17346177527753
 6 -12.50015011241124 -0.30873997239724 -1.79735197019702
 6 -12.49478394799480 -0.51143578997900 -3.34200138453845
 7 -7.56668979467947 -1.35467978247825 -0.23770011511151
 6 -8.65166115161516 -2.15517213141314 -0.59074600300030
 6 -8.11440504770477 -3.46249085058506 -0.64306804530453
 6 -6.79364139233923 -3.39429531383138 -0.19496160146015
 6 -6.45615415501550 -2.13138493759376 -0.00578842474247
 6 -8.86418040314031 -4.68294169416942 -0.96659916671667
 6 -5.58161428292829 -4.21178640554055  0.04728739833983
 8 -5.59762161826183 -5.45242175087509 -0.08527160676068
 6 -4.46548215281528 -3.23023013571357  0.51173642324232
 6 -3.88294070887089 -3.77618131333133  1.78550043534353
 8 -4.15157776947695 -3.20065102100210  2.83170363436344
 8 -3.13830634633463 -4.87988827012701  1.60516625962596
 6 -2.46140967126713 -5.44186509180918  2.79293576387639
 6  2.63810385378538 -1.00459915051505 -1.21031523682368
 6  3.96755086488649 -0.75032965636564 -0.55437205040504
 6  4.89665196539654  0.07797684528453 -1.02508791339134
 6  4.80885139533953  0.88981282298230 -2.35992853185319
 6  6.15088880098010  0.23883651195120 -0.33874533763376
 6  7.44398862606261 -0.41340067316732 -1.09866722012201
 6  8.64612808980898 -0.30016522342234 -0.04305918581858
 6  9.97359921462146 -0.78889337193719 -0.74254523442344
 6  9.96676046944695 -2.22935810161016 -1.31343545824582
 6  11.24349502410241 -0.39146881748175  0.22430996299630
 6  12.59272785738574 -0.44385286368637 -0.65384326152615
 6  13.80313672087209  0.01126842374237  0.21737810041004
 6  15.19304112521252 -0.05875891169117 -0.40061389718972
 6  15.66477380498050 -1.59670383228323 -0.55495523102310
 6  16.23279587678768  0.62193310451045  0.43200646504650
 6  17.65696253495349  0.67826356025603 -0.06853136093609
 6  18.69655950695069  1.60305892489249  0.65754444734473
 6  20.11805170107011  1.53864949024903  0.16008876927693
 6  20.33423435293529  1.94389382058206 -1.37618402740274
 6  21.07561802740274  2.29726346244624  1.05324172487249
 1 -4.19766793439344  3.33348973327333  1.82073431173117
 1 -9.96361394639464  4.08606804330433 -0.33457213111311
 1 -10.75459379927993 -2.06522253225323 -1.19111900580058
 1 -2.74485053655366 -1.14553491759176  2.23585538023802
 1 -2.24375494309431  1.42786273737374  1.36552605100510
 1 -2.08400591649165  0.07517493919392  3.66912363766377
 1 -3.08940224052405  1.71805644924493  4.13992309350935
 1 -3.69196977637764  0.09064976727673  3.75915476117612
 1 -2.44547400130013 -1.43697757545755 -0.62384924122412
 1 -2.37321325992599  0.09389686398640 -0.56193485418542
 1 -0.08853317671767 -0.15072094619462  1.09260529102910
 1 -0.63355636853685 -2.16586576657666  1.07549466846685
 1 -4.48626328372837  6.09935807340734  1.00412355035504
 1 -5.75060627942794  6.85684080278028  1.75937153415342
 1 -5.06047782478248  5.43266311571157  2.69558061866187
 1 -7.96099619851985  7.09705673937394  1.04011531783178
 1 -9.48564395719572  5.97835582108211 -1.28856825282528
 1 -9.23519779897990  7.81921720702070 -0.67098680278028
 1 -12.44060860826083  3.52363286178618 -0.30478287688769
 1 -11.84052297459746  3.79613457815782 -1.92036925442544
 1 -13.16802420242024  2.45366098429843 -1.78413146004600
 1 -12.44665949184918 -1.24757488378838 -1.28819339313931
 1 -13.58678942124213  0.21156081748175 -1.31030470777078
 1 -12.60551506650665  0.60638765386539 -3.75402424582458
 1 -11.54196040374037 -0.78883828022802 -3.68135893259326
 1 -13.28375644884489 -1.15467282538254 -3.73464732343234
 1 -9.72896044284428 -4.84629672157216 -0.28399420332033
 1 -9.48469037923792 -4.88440545404540 -1.92414293489349
 1 -8.23284498999900 -5.67738851875188 -0.96650130363036
 1 -3.70403613091309 -3.33778112941294 -0.14369742954295
 1 -2.10550741874187 -6.35406200990099  2.37992369636964
 1 -1.87867443914391 -4.68314805380538  3.35832028232823
 1 -3.27755881128113 -5.70910791079108  3.62055357555756
 1  2.39295108690869 -2.00348708980898 -1.60094722802280
 1  2.38508035093509 -0.23016445444544 -2.09591721102110
 1  4.01263269916992 -1.04518258875888  0.42141118551855
 1  5.10585585008501  1.99637733553355 -2.02904549194920
 1  5.37973493729373  0.33710966616662 -3.23231629872987
 1  3.58245473067307  1.20803360926093 -2.55084044094409
 1  6.30933103020302  1.20103324722472 -0.19768496889689
 1  5.97398522432243 -0.32274786008601  0.57762745684568
 1  7.39997065016502 -1.54387843324332 -1.43884873097310
 1  7.78371812291229  0.10822632723272 -2.01741059875988
 1  8.81021546314631  0.72337018851885  0.48829008750875
 1  8.33825655555556 -0.93671075807581  0.92957581048105
 1  10.31068793409341 -0.00680048174818 -1.67248797169717
 1  9.11979916751675 -2.37805646844684 -2.11226045154515
 1  10.93713057405741 -2.54264594099410 -1.83038878447845
 1  9.78886732853285 -3.01911378887889 -0.48199172067207
 1  11.09252344244424  0.57148477227723  0.60712417501750
 1  11.40209777917792 -1.29761824732473  0.93848437013701
 1  12.84871137913791 -1.60088396739674 -1.01410485328533
 1  12.57875819241924  0.00279300640064 -1.63485680418042
 1  13.69271030653065  0.99674006980698  0.64719989408941
 1  13.82827766326633 -0.84195714971497  1.17016659285929
 1  15.27834933233323  0.42470567036704 -1.35919256905691
 1  15.09960535553555 -2.42997128092809 -1.35504952545255
 1  16.72506924322433 -1.72839867936794 -0.97429882248225
 1  15.30198291589159 -2.26784640324032  0.44330703200320
 1  15.89625681728173  1.63447653635364  0.64378822242224
 1  16.31391771447145  0.31843565266527  1.51006300310031
 1  18.06770284758476 -0.48284676327633  0.04751006630663
 1  17.66019874527453  1.05377834093409 -1.10006731133113
 1  18.18676038193820  2.69085781348135  0.50927742274227
 1  18.94234724892489  1.43551238803880  1.80045130073007
 1  20.61079930973098  0.54157489118912  0.08947188428843
 1  20.12920561776178  3.06503863596360 -1.46784175837584
 1  21.32015053225322  1.78903450725072 -1.79607493089309
 1  19.40513874967497  1.47245728232823 -1.89906508770877
 1  21.09754476757676  1.99804935523552  2.07777170497050
 1  22.05460930263026  2.35845396199620  0.67175907570757
 1  20.66984464716472  3.30784045454545  1.19059166356636
 1 -7.22957674017402  1.71700597259726  0.57371062786279
 1 -7.67542890949095 -0.30877575317532 -0.25686900710071

