%nproc=4
%Mem=2GB
# td=(NStates=1) B3LYP/SVP 

TD

0 1
 6 -5.14467731823182 -1.99663946994699  0.50201882698270
 6 -4.76762292049205  2.79937016601660  1.11089776587659
 6 -9.40166941054105  3.36202239853985 -0.10359497569757
 6 -9.81659351045104 -1.49005059965997 -0.91448759415942
 7 -5.17753450145015  0.35201166226623  0.79888734673467
 6 -4.50015811341134 -0.77441642524252  0.83258934453445
 6 -3.05582733643364 -0.56975745924592  1.29507275667567
 6 -3.05484963736374  0.97583270087009  1.66973147854785
 6 -4.39453441154115  1.37753479887989  1.03384529592959
 6 -3.07839433733373  1.17473577457746  3.18900875887589
 6 -2.05994133693369 -0.84274928902890  0.11769837753775
 6 -0.53085147324732 -0.69789864466447  0.54752251735174
 6  0.42760726662666 -0.94845176247625 -0.65079093629363
 8  0.20342007790779 -1.46098578847885 -1.72195465006501
 8  1.69411448664866 -0.62590900940094 -0.26929192119212
 7 -7.12398557955796  2.83450819271927  0.41597219121912
 6 -5.90810499149915  3.37183391589159  0.81157528292829
 6 -6.20432170467047  4.86001408520852  0.89121067276728
 6 -7.57090015451545  4.95908723172317  0.49631486158616
 6 -8.15445089548955  3.72631123002300  0.18845018131813
 6 -5.26961611801180  5.80164394679468  1.24368037193719
 6 -8.28941552975297  6.26860657835784  0.49335438973897
 6 -9.17890541334133  6.63389267986799 -0.52249086538654
 7 -9.31619501880188  0.85091356595660 -0.38952592799280
 6 -9.91874365176518  2.03413671537154 -0.45245405610561
 6 -11.27061329932993  1.81836547604760 -0.79432350365036
 6 -11.48395383588359  0.41291533293329 -0.97368743034303
 6 -10.12314902330233 -0.15679272867287 -0.64273775417542
 6 -12.34675887308731  2.90601317041704 -0.92238666776678
 6 -12.63265336273627 -0.28613771217122 -1.43675591059106
 6 -12.95650011961196 -0.46540118651865 -2.93774095849585
 7 -7.55609873557356 -1.23953826832683 -0.06665301040104
 6 -8.54424040954095 -2.10839745394539 -0.63532046044604
 6 -8.12858646584658 -3.44507910941094 -0.74871861036104
 6 -6.82377440564056 -3.42878876317632 -0.25372747804780
 6 -6.47627616721672 -2.04909670877088  0.11261341544154
 6 -8.90523450855085 -4.56108950895089 -1.24488699549955
 6 -5.71896801830183 -4.34562978987899  0.14287695729573
 8 -5.64293614971497 -5.59446595529553 -0.11461454105411
 6 -4.46109171377138 -3.36622373507351  0.41308655825583
 6 -3.79767218201820 -3.83651734693469  1.69377126242624
 8 -4.05350796249625 -3.30149110501050  2.71872233623362
 8 -2.90986350205021 -4.82700298159816  1.44115985898590
 6 -2.35484901520152 -5.26874778007801  2.59596606690669
 6  2.66399644304430 -0.87470616121612 -1.21828603390339
 6  3.99583369316932 -0.48561318471847 -0.57348396159616
 6  4.98560086028603  0.16721576917692 -1.13470887548755
 6  4.82472298249825  0.72315615731573 -2.54309684868487
 6  6.31465517761776  0.29381200950095 -0.45166662976298
 6  7.58303253045305 -0.42645197829783 -1.00940829422942
 6  8.90588406540654 -0.09816502340234 -0.16557143704370
 6  10.11457331203120 -0.66089057165717 -0.78880986088609
 6  10.00016380978098 -2.22714788058806 -0.90510462516252
 6  11.36089676427643 -0.44871454205421  0.14651218321832
 6  12.68532711731173 -0.66479495789579 -0.60179805700570
 6  13.77167357455746  0.01449874677468  0.20175653825383
 6  15.16176799789979 -0.20681371717172 -0.39230306610661
 6  15.64345167276728 -1.62411657355736 -0.68796853235324
 6  16.16315891309131  0.48886979817982  0.45780904530453
 6  17.61653849254925  0.66042177607761 -0.18290279807981
 6  18.69713956495649  1.34899351835183  0.81586027892789
 6  20.08230812671267  1.44694031933193  0.21818457885789
 6  20.13867479697970  2.39043847504750 -1.02803921292129
 6  20.94478494409441  2.03035677177718  1.38003440414041
 1 -3.88153632123212  3.24269065336534  1.50019225752575
 1 -10.22472005700570  4.19725916241624 -0.10752942684268
 1 -10.79294763466347 -1.99415542554255 -1.27821771567157
 1 -2.81292734423442 -1.22110247434744  2.19885167986799
 1 -2.20159072667267  1.83221317241724  1.39004850325032
 1 -2.02808032393239  0.82918033973397  3.54110083538354
 1 -2.96867016731673  2.26176081968197  3.36161526272627
 1 -4.02698327772777  0.70602130443044  3.64374322002200
 1 -2.12430188408841 -1.66610048774877 -0.37876473277328
 1 -2.12956889548955 -0.09962248794880 -0.79976863756376
 1 -0.21860618401840  0.32938706460646  0.81477750825083
 1 -0.16835984888489 -1.29386856685669  1.46189330833083
 1 -4.55226988438844  6.15946408400840  0.33206634463446
 1 -5.79537075587559  6.89411453015301  1.57665326232623
 1 -4.46564834183418  5.52560240964096  2.15574663526353
 1 -8.14702480138014  6.99072610631063  1.36945825212521
 1 -9.38207360016002  5.73361134663466 -1.38633802980298
 1 -9.69762404160416  7.61140642594259 -0.51992169626963
 1 -12.30937548494849  3.76768726722672  0.12284988638864
 1 -12.31428035033503  3.65688065276528 -1.56376359385939
 1 -13.40557795779578  2.59827544574457 -0.94036708360836
 1 -12.52712753865386 -1.29613974027403 -1.02853742754275
 1 -13.49963070537054  0.20707036843684 -0.78787246454646
 1 -13.16059057405741  0.40196721182118 -3.57475631903190
 1 -12.13504971267127 -1.06290568696870 -3.33606440314031
 1 -13.90840891409141 -0.89816717481748 -3.04367822652265
 1 -9.76473402020202 -4.63012510441044 -0.57044284818482
 1 -9.42635454565456 -4.32754976847685 -2.27077759835984
 1 -8.47043874937494 -5.59136991689169 -1.36145079857986
 1 -3.85976170347035 -3.61988934023402 -0.35775883568357
 1 -1.66945381338134 -6.11536814051405  2.38486419041904
 1 -1.84400097179718 -4.67653739273927  3.40978542884288
 1 -3.12638369376938 -5.77447444744474  3.34279579977998
 1  2.82789458125813 -2.09788652975298 -1.38153528682868
 1  2.46098794169417 -0.37993943194319 -2.23575119441944
 1  4.31344278017802 -0.95753382388239  0.48552759715972
 1  5.12729799429943  1.83545124292429 -2.71115370277028
 1  5.29653661746175 -0.08657270207021 -3.31181424852485
 1  3.82991947714771  0.75103790969097 -3.01621697859786
 1  6.60212030913091  1.50000314421442 -0.29397459785979
 1  6.00480830663066 -0.03472905820582  0.55522521662166
 1  7.38157881098110 -1.49903394879488 -1.18662350845085
 1  7.60643039413941 -0.12465696109611 -2.08284714241424
 1  9.14323876547655  1.01789964146415 -0.03464220572057
 1  8.62356508640864 -0.37865495249525  0.73034588748875
 1  10.25744260956096 -0.08245804750475 -1.56351707460746
 1  9.36080326792679 -2.47223588638864 -1.67267649314931
 1  10.95425228622862 -2.71061273767377 -1.23978972457246
 1  9.60927936973697 -2.69861173867387  0.11464794329433
 1  11.30785497559756  0.61234885868587  0.61237470007001
 1  11.27847541694169 -1.30484897039704  1.11110163186319
 1  12.88538504650465 -1.73491737073707 -0.74346778957896
 1  12.58082839943994 -0.06955422832283 -1.54381770027003
 1  13.71157219271927  1.02900329612961  0.36540171427143
 1  14.12814765026503 -0.45090804480448  1.25385496169617
 1  15.46123762116212  0.46424962476248 -1.36144279407941
 1  15.08484387938794 -2.35171345514551 -1.36246026652665
 1  16.61455819211921 -1.84068990849085 -1.30745213781378
 1  15.61197391499150 -2.19768938753875  0.28982168346835
 1  15.71447863946395  1.61528461716172  0.57853169676968
 1  16.26051237393740  0.13274708380838  1.49773176997700
 1  18.16882295959596 -0.44311278987899 -0.51108579327933
 1  17.73536626202620  1.28864182728273 -1.02451975657566
 1  18.39396110201020  2.39796852455246  0.95739223422342
 1  18.66271928612861  0.82891172797280  1.75726698229823
 1  20.32530075987599  0.21898263196320  0.07217015411541
 1  19.85978867606761  3.46017814991499 -0.49674464866487
 1  21.20424894209421  2.54925052885288 -1.39257458085809
 1  19.41500973677368  2.05530556715672 -1.89427460866087
 1  21.06931194429443  1.21244079437944  2.15307923572357
 1  21.95425926762676  2.21517963456346  1.07087898769877
 1  20.51254891759176  3.00006967746775  1.81778438283828
 1 -7.38413219571957  1.88995326732673  0.53358661546155
 1 -7.74802616921692 -0.23290816641664 -0.07721104130413

