%nproc=4
%Mem=2GB
# td=(NStates=1) B3LYP/SVP 

TD

0 1
 6 -5.07746059655966 -2.00093989999000  0.41814043914391
 6 -4.71328748694869  2.75837606660666  1.42784946104610
 6 -9.45705494909491  3.35770196649665 -0.13823844004400
 6 -9.86064791589159 -1.38003959855986 -0.89113525892589
 7 -5.16933368136814  0.47245370647065  0.82397985598560
 6 -4.44186228382838 -0.76262524612461  0.84039012461246
 6 -3.05588734243424 -0.60940142364236  1.32007525692569
 6 -3.06698085048505  0.83787890549055  1.81340584598460
 6 -4.38220317841784  1.42425947134713  1.34666657805781
 6 -3.03695019291929  0.81572987398740  3.37125698369837
 6 -2.11704704750475 -0.84079909400940  0.10047665536554
 6 -0.62336072417242 -0.88521737653765  0.52844060916092
 6  0.33887839373937 -1.01131804910491 -0.70277613481348
 8 -0.01581184528453 -1.27362705260526 -1.89665211981198
 8  1.66075115031503 -1.00869728822882 -0.28981397339734
 7 -7.03249643064306  2.75751049294929  0.43449404340434
 6 -5.88696287728773  3.40347708020802  0.90388451385139
 6 -6.09224049654965  4.77192527632763  0.84577612931293
 6 -7.42928599309931  4.89401072407241  0.32097732783278
 6 -8.01786723712371  3.60231883078308  0.14617595389539
 6 -5.11876103250325  5.80597437983798  1.30083608750875
 6 -7.94279086728673  6.33574329202920  0.10541559585959
 6 -9.28944646744674  6.58203749434943 -0.53101171747175
 7 -9.22759615891589  0.90349882448245 -0.44577155255526
 6 -9.93554533193319  2.12151545324532 -0.49423823452345
 6 -11.30475671367137  1.86008964846485 -0.86352042334233
 6 -11.42495793629363  0.56440048144815 -1.01061112271227
 6 -10.13977068546855 -0.01878892829283 -0.77541102150215
 6 -12.26771096829683  3.06347891699170 -1.02084651375138
 6 -12.78942904030403 -0.04645374377438 -1.38929116411641
 6 -12.82529699929993 -0.26419106550655 -2.97162434683468
 7 -7.49175230093009 -1.24874918941894 -0.15255160026003
 6 -8.58465445094509 -1.91657827202720 -0.66440336873687
 6 -8.30535414261426 -3.33336793829383 -0.69156289478948
 6 -6.81191321952195 -3.37750363466347 -0.30441254655466
 6 -6.49141768136814 -2.04730652975298  0.07119927402740
 6 -9.15680966606661 -4.50864426442644 -1.08099060586059
 6 -5.76581270277028 -4.42158738563856 -0.01367869826983
 8 -5.72409426552655 -5.55976248494849 -0.07313039263926
 6 -4.47890349494949 -3.37524463716372  0.43492874247425
 6 -3.90761317611761 -3.81227492269227  1.86429831513151
 8 -4.15387799949995 -3.42795375127513  2.90355081908191
 8 -3.04354687038704 -4.80607088838884  1.51200694369437
 6 -2.44054758505851 -5.52669357465747  2.65625209550955
 6  2.70339038243824 -1.15795448604860 -1.28808301360136
 6  3.97773188298830 -0.86143076647665 -0.60167678087809
 6  4.88613091329133 -0.07841879427943 -0.97687309190919
 6  4.92505301550155  0.86233007470747 -2.24732727172717
 6  6.27604131623162 -0.00380775247525 -0.21915337843784
 6  7.50539476667667 -0.53445277837784 -0.93454080748075
 6  8.76480995799580 -0.24139934683468 -0.25008988888889
 6  10.08032988768877 -0.65666014861486 -0.87761874177418
 6  10.12364615801580 -2.22623778957896 -1.24944905960596
 6  11.34070474507451 -0.26676634723472  0.14742227422742
 6  12.71701028562856 -0.47160563896390 -0.62293017021702
 6  13.90300670787079 -0.02129483258326  0.28166452905291
 6  15.30634245534553 -0.13324636043604 -0.42068590439044
 6  15.79760708830883 -1.55810997289729 -0.62164189968997
 6  16.31707430463047  0.65812672387239  0.47951121552155
 6  17.80694753345334  0.61046678057806 -0.10068457625763
 6  18.61219107010701  1.70341896089609  0.74964365726573
 6  20.06964686058606  1.68240386568657  0.30722348274827
 6  20.14767569706971  2.19669910111011 -1.21926833583358
 6  20.90038050365036  2.47981171727173  1.26726312701270
 1 -4.09364753235324  3.46636302060206  1.95723796209621
 1 -9.90137772277228  4.26100553705370 -0.35030370427043
 1 -10.66920526042604 -2.13026903690369 -1.27468736263626
 1 -2.83908996049605 -1.57613797789779  1.95352714741474
 1 -2.30739130673067  1.55154510561056  1.51773127152715
 1 -2.10113762966297  0.54025144684469  3.61154788008801
 1 -3.26645994629463  1.76158080168017  3.78852795399540
 1 -3.67267784718472  0.21289199149915  3.67613645934593
 1 -2.32228168206821 -1.75928980668067 -0.45534239053905
 1 -2.26070200880088  0.09157663196320 -0.57856651735174
 1 -0.37759208260826  0.09440356625663  1.05621165166517
 1 -0.47357036993699 -1.91674085408541  0.97613473247325
 1 -4.34266892429243  6.18687682528253  0.34566770477048
 1 -5.76610782958296  6.81020613931393  1.81766736373637
 1 -4.52265404240424  5.52636248564857  2.32276333693369
 1 -7.48517861676168  7.07032406610661  0.61021232753275
 1 -9.95268066086609  5.79149713521352 -0.98925832183218
 1 -9.74048832803280  7.59958524382438 -0.77897760186019
 1 -12.47089163656366  3.82180267876788 -0.39171156975698
 1 -11.84835375767577  3.64961992669267 -1.98877609510951
 1 -13.37972537253725  2.47484310251025 -1.19971301820182
 1 -12.65910073597360 -1.05946607290729 -1.06859143294329
 1 -13.69151989428943  0.37183684508451 -0.99319299659966
 1 -12.92839735473547  0.73719073417342 -3.48607745114511
 1 -12.03865007270727 -0.74820421682168 -3.47370816751675
 1 -13.84969304250425 -0.80271762986299 -3.14610846954695
 1 -10.18458600540054 -4.65052714461446 -0.51477728162816
 1 -9.44633654385438 -4.57065407890789 -2.22191271187119
 1 -8.33505521102110 -5.38222900280028 -0.86906155965597
 1 -3.64785051235123 -3.14996234753475 -0.34862792259226
 1 -2.28871573957396 -6.67011361506151  2.23530923492349
 1 -1.58756532823282 -5.05407514651465  3.11710616091609
 1 -3.21500255565557 -5.74413141314131  3.44857637783778
 1  2.65795758755876 -2.30334707580758 -1.58378551185118
 1  2.65643748664867 -0.43863530153015 -2.23034065336534
 1  4.38276971287129 -1.49418748924892  0.38802784718472
 1  5.48525378987899  1.84957265506551 -2.20767335473547
 1  5.21164812861286  0.29689564476448 -3.11485455255526
 1  3.77950443564356  1.23905671157116 -2.65623097999800
 1  6.35678577567757  1.09105224912491 -0.16417161756176
 1  6.08301612741274 -0.46456204150415  0.71609130323032
 1  7.53460411351135 -1.72674672007201 -1.10788563466347
 1  7.49504925602560  0.09228473307331 -1.87336619431943
 1  8.83463790539054  0.81358921042104 -0.00610935243524
 1  8.83184591449145 -0.71628871587159  0.75284813771377
 1  10.32904977027703 -0.23309311101110 -1.93674439733973
 1  9.39943713131313 -2.69846850965097 -1.96742596809681
 1  11.05485234623462 -2.37451912831283 -1.77423316891689
 1  10.07288573037304 -2.87592947044704 -0.28975249674968
 1  11.12238642874287  0.77153477727773  0.41455491809181
 1  11.14056162556256 -0.69846833233323  0.95367588928893
 1  13.00717722572257 -1.46599047804780 -0.75421886468647
 1  12.82334265086508  0.11424415151515 -1.52412573107311
 1  13.71357239273927  0.97991838763876  0.59195436953695
 1  13.75668050355036 -0.71325427942794  1.16444602080208
 1  15.21630312771277  0.49305250505051 -1.34738138793879
 1  14.92652804780478 -2.22919120292029 -1.11027504800480
 1  16.81760849714972 -1.31157699719972 -1.12410380298030
 1  15.81258397599760 -2.25294491309131  0.18349105040504
 1  16.05642283388339  1.66244933363336  0.76858070167017
 1  16.30412673537354  0.29727353645365  1.57869986678668
 1  18.22051812911291 -0.32680115871587  0.10494580988099
 1  17.62607533293329  0.85080804390439 -1.17945525012501
 1  18.16257796369637  2.63533226092609  0.52449894489449
 1  18.62804581878188  1.50362919971997  1.84314557015702
 1  20.37093532333233  0.80034076777678  0.35828876597660
 1  19.72428512571257  3.30739287138714 -1.32271724592459
 1  21.29113763096310  2.19688529232923 -1.74695001840184
 1  19.64247248304831  1.70258029462946 -1.95574075527553
 1  20.72252726582659  2.30786033633363  2.51569549734974
 1  21.94967880958096  2.43271138773877  1.16174807460746
 1  20.48982664536454  3.47887755825583  1.08823142754275
 1 -7.15721950445044  1.80646491849185  0.52464572137214
 1 -7.50496186278628 -0.16017089268927 -0.01995531573157

