%nproc=4
%Mem=2GB
# td=(NStates=1) B3LYP/SVP 

TD

0 1
 6 -5.18041089158916 -1.97577738373837  0.54282290739074
 6 -4.65105126332633  2.75508573757376  1.43560023612361
 6 -9.21659090269027  3.35184138043804 -0.25295991219122
 6 -9.84046589768977 -1.33941553615362 -1.00468661406141
 7 -5.12033878187819  0.46169263036304  0.86878433643364
 6 -4.56571466906691 -0.75213419701970  0.84114019961996
 6 -3.04586634033403 -0.71194167766777  1.38109135853585
 6 -3.07806195859586  0.74874999259926  2.01779628502850
 6 -4.37243220132013  1.34901194659466  1.35757766916692
 6 -3.08489498739874  0.65626392739274  3.51585144314431
 6 -2.12069741254125 -0.85509052315232  0.16849345704570
 6 -0.67131551965197 -0.75740459525953  0.47949571467147
 6  0.42653715961596 -0.90897781508151 -0.65406126332633
 8  0.10924065996600 -1.32754244414441 -1.70235268986899
 8  1.62704777997800 -0.63372979147915 -0.19017400940094
 7 -6.98831201220122  2.77473221512151  0.38147874187419
 6 -5.81824600560056  3.36318305080508  0.96568069346935
 6 -6.12916418891889  4.73615169896990  1.06278783048305
 6 -7.40605366986699  4.97527885088509  0.53364859495950
 6 -7.96502195259526  3.73226182508251  0.21823315961596
 6 -5.21401055745575  5.76441022342234  1.68379438333833
 6 -8.02772936113611  6.24448416611661  0.34277933223322
 6 -8.77977550035004  6.46786607720772 -0.67508612491249
 7 -9.06187958725873  0.92508098269827 -0.53037001240124
 6 -9.75368714611461  2.09655295699570 -0.60948975967597
 6 -11.05957219521952  1.90789442894289 -1.07191126242624
 6 -11.25358079857986  0.57618165956596 -1.25037509910991
 6 -10.02407911631163 -0.01279832923292 -0.91093457385739
 6 -12.06926112331233  3.10019258835884 -1.12572700180018
 6 -12.51331142854285 -0.15557465586559 -1.64228646364636
 6 -12.66009047864786 -0.60862550895090 -3.07363454785479
 7 -7.55128825452545 -1.28041235573557 -0.22040838593859
 6 -8.66644262976298 -1.98865547974797 -0.67349427782778
 6 -8.22089569676968 -3.48681328282828 -0.76701043954395
 6 -6.90342237043704 -3.48443432773277 -0.20194229952995
 6 -6.44511305090509 -2.16750854995500  0.09124127822782
 6 -9.18361234633463 -4.54247764776478 -1.19728223502350
 6 -5.73677979947995 -4.34593982088209  0.06579924952495
 8 -5.62124398049805 -5.57710421912191  0.01752867326733
 6 -4.50540614521452 -3.42868998169817  0.41135638523852
 6 -4.02993540834083 -3.88199189438944  1.80518240354035
 8 -4.36214882658266 -3.37429838573857  2.84653511751175
 8 -3.22383489918992 -4.89358964026403  1.56269201220122
 6 -2.72620615091509 -5.46088699399940  2.81016748704870
 6  2.65546558995900 -1.05869456005601 -1.09904410971097
 6  3.93162727252725 -0.67003162656266 -0.54585119831983
 6  4.83532583278328  0.08769781738174 -1.16578198279828
 6  4.56051656185619  0.66517035873587 -2.47903044204420
 6  6.24918863096310  0.34684731303130 -0.33982544564456
 6  7.41898612581258 -0.22814214731473 -1.11043839723972
 6  8.80836431343134  0.08843363646365 -0.29342422232223
 6  10.02081393609361 -0.62998748134813 -0.89510048994900
 6  10.00448424182418 -2.26015118091809 -0.84525864056406
 6  11.15630630523052 -0.19138880948095  0.00115764776478
 6  12.62036062066207 -0.52384086248625 -0.53019089628963
 6  13.80919732693269  0.11698899579958  0.26600296289629
 6  15.22901472257226 -0.14161719751975 -0.43128696449645
 6  15.59041636923692 -1.71063522542254 -0.38012774827483
 6  16.25205780298030  0.57948886008601  0.39803306770677
 6  17.62538937763776  0.62643837773777 -0.21256576437644
 6  18.74673452445244  1.43166178517852  0.63846253915392
 6  20.13060295619562  1.62273789908991  0.01570433083308
 6  20.17496842634263  2.44177360856086 -1.23850025902590
 6  21.07273773937394  2.20699443554355  1.13417981868187
 1 -3.82603077067707  3.35828221252125  1.85625786408641
 1 -9.89610719571957  4.05651508800880 -0.26756543044304
 1 -10.44164250415042 -2.11417742774277 -1.39688958285829
 1 -3.00333638513851 -1.16900726482648  2.30776257095710
 1 -2.27208777637764  1.23869382048205  1.42361185958596
 1 -2.19994751065107 -0.11083366166617  3.84574129942994
 1 -2.92091539183918  1.59374401800180  4.28091719291929
 1 -4.03634421382138  0.07347805010501  3.67569641534153
 1 -2.24915436933693 -1.93974785248525 -0.28015487178718
 1 -2.35046098469847 -0.18667119281928 -0.79593825452545
 1 -0.25417974137414  0.06199032493249  0.96190222072207
 1 -0.32597561046105 -1.23945312531253  1.32871999099910
 1 -4.12524718211821  5.81304944254425  1.27505064306431
 1 -5.61126234503450  6.80277539623962  1.41216681368137
 1 -5.19672144914492  5.75574542394239  2.85212627322732
 1 -7.72333243214321  6.94373140684068  1.15010631693169
 1 -9.04760015281528  5.84297228272827 -1.50778017401740
 1 -9.17756203540354  7.43539882518252 -0.66587629172917
 1 -12.33109765716572  3.42176267476748 -0.06901930053005
 1 -11.79849877217722  4.11985695039504 -1.47377459495950
 1 -13.06713411341134  2.73734935313531 -1.55351839873987
 1 -12.83305813171317 -1.01913203950395 -0.89181375517552
 1 -13.33693443574358  0.43636329772977 -1.50651432873287
 1 -12.93858837383738  0.04539155425543 -3.90259910331033
 1 -11.90238644634464 -1.19029842624262 -3.41010180688069
 1 -13.47385545874588 -1.37756511461146 -3.19979383808381
 1 -10.17197474427443 -4.84123621552155 -0.41018682258226
 1 -9.49758166836684 -4.21783879737974 -2.25512603320332
 1 -8.71658336383638 -5.65537631753175 -1.40540519401940
 1 -3.56711243854385 -3.39568691999200 -0.08956201600160
 1 -2.10586745474547 -6.34001060476048  2.43805950995100
 1 -2.12272884458446 -4.64400413941394  3.48774322462246
 1 -3.56447750315032 -5.74811181118112  3.42140366056606
 1  2.53877566936694 -2.18990573167317 -1.19394652795279
 1  2.33920576347635 -0.46410784878488 -2.12712033133313
 1  4.26259769566957 -1.19947801830183  0.30381942634263
 1  4.91986725122512  1.78152585038504 -2.46258884628463
 1  5.12966993079308  0.16002195739574 -3.21081414851485
 1  3.63077956315632  0.57551035693569 -2.74501985888589
 1  6.12901299839984  1.51453459735974 -0.29928512891289
 1  6.12547037283728  0.07872228692869  0.61294098819882
 1  7.20142079517952 -1.35962000740074 -1.08263310941094
 1  7.55988573967397  0.17739324392439 -2.15053391109111
 1  8.89326376797680  1.11293914541454 -0.31646038753875
 1  8.58373110301030 -0.22699978697870  0.74819767266727
 1  10.11244811011101 -0.39802960466047 -1.99718044094409
 1  9.06801398899890 -2.40222888568857 -1.61663088858886
 1  10.78422528352835 -2.77012868926893 -1.52348809440944
 1  9.96899534133413 -2.65530740824082  0.06891336983698
 1  11.10602479257926  0.92468009180918 -0.07432396979698
 1  10.99301687108711 -0.59039752525253  0.92567308900890
 1  12.88294480248025 -1.59899377837784 -0.74187763056306
 1  12.49537985458546  0.11534426152615 -1.49743306180618
 1  13.66558759425943  1.29146954275428  0.39060423452345
 1  13.73219805530553 -0.33167612161216  1.29372894909491
 1  15.12355385278528  0.27090028982898 -1.38866551635163
 1  14.76938233323332 -2.22542082588259 -0.87099111961196
 1  16.45014175047505 -2.08097393689369 -0.99230062266227
 1  15.61723444104410 -2.19582920152015  0.60551325262526
 1  15.75504269586959  1.54615770447045  0.34199804340434
 1  16.23572989568957  0.40209401850185  1.45803780058006
 1  18.16857293459346 -0.28933741234123 -0.37244192889289
 1  17.48079080448045  1.29713267636764 -1.16849415401540
 1  18.25118682458246  2.39666839453945  0.94635113011301
 1  18.77489050325033  0.95559439623962  1.47108836443644
 1  20.47648587838784  0.61149188288829 -0.24537160006001
 1  19.69368206540654  3.50545267736774 -1.27582255645565
 1  21.14242275947595  2.47904350815082 -1.68861418481848
 1  19.49804804060406  1.88360839743974 -1.91414659585959
 1  20.96521153425343  1.73798334863486  2.19708363616362
 1  22.12030587228723  2.27862597919792  0.92727462726273
 1  20.51407907060706  3.16673634413441  1.42997560196020
 1 -7.05447923042304  1.82817708970897  0.36537979477948
 1 -7.47339870647065 -0.34142901850185 -0.16277959815982

