%nproc=4
%Mem=2GB
# td=(NStates=1) B3LYP/SVP 

TD

0 1
 6 -5.19005185568557 -1.97821762776278  0.42626125122512
 6 -4.66230238843884  2.68316854585459  1.53237991409141
 6 -9.23253249684968  3.43986018231823 -0.16548116431643
 6 -9.83622547364736 -1.35563715831583 -0.95059120452045
 7 -5.14150089808981  0.38248470957096  0.81868932693269
 6 -4.56422452005201 -0.77953693729373  0.76405249084909
 6 -3.13358511221122 -0.71191167466747  1.23350660006001
 6 -3.09464361676168  0.74571968956896  1.90621512691269
 6 -4.38517347544754  1.33097014241424  1.38702061346135
 6 -2.97188368626863  0.74705300630063  3.45022488048805
 6 -2.07005234803480 -0.92901791589159  0.10527713541354
 6 -0.65703409150915 -0.84647350215022  0.56107387248725
 6  0.29681418731873 -1.30181709900990 -0.52823868106811
 8  0.07291702760276 -1.69138882878288 -1.63683613821382
 8  1.57144221942194 -0.93406982548255 -0.24250924292429
 7 -6.96833001400140  2.76649139103910  0.52353294729473
 6 -5.79316349734973  3.35171190369037  0.96178030343034
 6 -6.03457472997300  4.78884696849685  1.07601915361536
 6 -7.34915798029803  4.96165748874887  0.66715194529453
 6 -7.91245669606961  3.71883048194820  0.17833917021702
 6 -5.00467962436244  5.90104388678868  1.33961996589659
 6 -7.95503209140914  6.25820553825382  0.42575763006301
 6 -8.93014053685368  6.64677396799680 -0.42943155945595
 7 -9.11832523182318  1.00125860046005 -0.53924089948995
 6 -9.78803058045805  2.19731303300330 -0.58838764946495
 6 -11.17709394739474  2.01521516101610 -1.04617868916892
 6 -11.38394383488349  0.61809585098510 -1.20281034263426
 6 -10.04384109250925  0.06115906650665 -0.98565204560456
 6 -12.23041723892389  3.04625719481948 -1.23037746684668
 6 -12.55605570297030 -0.19934903330333 -1.67017925292529
 6 -12.54543901350135 -0.37195184158416 -3.20843802820282
 7 -7.53974710041004 -1.26232054655466 -0.33831017611761
 6 -8.61758774427443 -2.01235784998500 -0.63671059945995
 6 -8.33646725392539 -3.30578518001800 -0.65013875237524
 6 -6.98326035423542 -3.45153103740374 -0.30111221652165
 6 -6.54718325792579 -2.12079387848785 -0.10382822872287
 6 -9.10646463156316 -4.62045544554455 -0.89859236603660
 6 -5.92993911541154 -4.37157238413841  0.04515718531853
 8 -5.81061291739174 -5.55873238193819  0.13063998439844
 6 -4.59674527912791 -3.43706081878188  0.41453670327033
 6 -4.03844625942594 -3.89668336353635  1.78459034433443
 8 -4.24114672637264 -3.41657261316132  2.88330879487949
 8 -3.24880739643964 -4.91474175547555  1.52266800980098
 6 -2.50643417371737 -5.47262816811681  2.66232270257026
 6  2.63932397579758 -1.17536622722272 -1.12377658295830
 6  3.98569267906791 -0.77660228362836 -0.56861347454746
 6  5.06196849704970  0.07220626822682 -1.07316272087209
 6  4.81458196839684  0.69447328902890 -2.46947948694869
 6  6.17975168726873  0.20770339863986 -0.25754721782178
 6  7.50737496469647 -0.28357769086909 -1.02392974637464
 6  8.77618109510951  0.00602539563956 -0.27257213711371
 6  9.96759861456146 -0.54440892349235 -0.79186016591659
 6  10.02709650305031 -2.08222338813881 -1.00017413211321
 6  11.22903357795779 -0.02698236883688  0.06144367636764
 6  12.55593417801780 -0.29545802420242 -0.52036991419142
 6  13.69177558475847  0.27928522542254  0.30041640424042
 6  15.15450727182718 -0.10993402920292 -0.39974381018102
 6  15.57152448004801 -1.51995615751575 -0.52916265176518
 6  16.32428502570257  0.62816372757276  0.48271153555356
 6  17.58527536623662  0.74018975287529 -0.20130463826383
 6  18.62603245424542  1.59020763976398  0.58012670557056
 6  20.07744764066407  1.54794041934193  0.09961272167217
 6  20.27531846134614  2.23694312551255 -1.26307271627163
 6  21.06349681528153  2.18334207030703  1.09404580528053
 1 -3.90794896249625  3.34821120542054  1.99782202050205
 1 -9.93547113211321  4.28008744524452 -0.14821349524953
 1 -10.71893023292329 -1.92932894289429 -1.33719361326133
 1 -2.67437348884888 -1.60670103420342  1.92751454615462
 1 -2.28076864446445  1.26250620172017  1.34415391379138
 1 -1.93973148904891  0.41491891359136  3.80350707600760
 1 -2.95208850915092  1.71739638323832  3.88669777097710
 1 -3.74517509690969  0.18246894919492  3.76259510521052
 1 -2.35047450135013 -1.99984386208621 -0.15984284058406
 1 -2.26303224182418 -0.07478000370037 -0.65934459515952
 1 -0.33839816321632  0.06656078197820  0.84311034153415
 1 -0.33531654455446 -1.59343852385239  1.28253537253725
 1 -4.10590524792479  5.60036817441744  0.66198933693369
 1 -5.26030724952495  6.87751286998700  1.03849944694469
 1 -4.77187896489649  5.76679652905291  2.33880494109411
 1 -7.55039513841384  6.81644867856786  1.21287259355936
 1 -9.12739813261326  5.97490547604760 -1.26547594359436
 1 -9.42136641584158  7.56692197749775 -0.68112781688169
 1 -12.47292183958396  3.65969646814682 -0.41656405500550
 1 -11.86373529582958  3.71264622932293 -1.86374359185919
 1 -13.22844024402440  2.61137675587559 -1.58986203310331
 1 -12.46289111501150 -1.15901602790279 -1.23785835963596
 1 -13.63947468976898  0.26224588598860 -1.39520319761976
 1 -12.40168468346835  0.53710072517252 -3.75746458985899
 1 -11.68849505720572 -0.92592198859886 -3.49106990369037
 1 -13.35637371057106 -1.04649200730073 -3.60688454715472
 1 -9.95750329712971 -4.75002709460946 -0.02086789068907
 1 -9.46370828102810 -4.87310432393239 -2.00737125772577
 1 -8.33439514501450 -5.51535231513151 -0.58916356985699
 1 -3.76313204050405 -3.61352870417042 -0.20458351815182
 1 -1.77810467846785 -6.15614221792179  2.08002370637064
 1 -2.30321689338934 -4.52823256225622  3.29316376667667
 1 -3.36756781218122 -6.14723172317232  3.26323784398440
 1  2.66923871567157 -2.18624536563656 -1.24440157345735
 1  2.32027387028703 -0.77537897589759 -2.13635125442544
 1  3.90452188808881 -0.99304737523752  0.67014605900590
 1  5.04110937543754  1.74781247904790 -2.37826041344134
 1  5.47924488828883  0.29899585478548 -3.27299036613661
 1  3.86408289348935  0.66655946184619 -3.01930728762876
 1  6.38855895299530  1.43014615851585  0.01142594219422
 1  6.20502832863286 -0.25545113041304  0.74192388648865
 1  7.33717437053705 -1.43588763416342 -1.02641748784878
 1  7.73135288638864  0.36397190179018 -2.14537339503950
 1  8.95627006860686  1.08805665716572  0.20365162366237
 1  8.73174590449045 -0.57854494149415  0.79374222712271
 1  10.13114998029803 -0.22791259295930 -1.92825354825483
 1  9.40168735633563 -2.62374103690369 -1.67111633713371
 1  11.17613447444744 -2.44367604400440 -1.66200194579458
 1  9.87279572137214 -2.73546542404240 -0.11386490799080
 1  10.96522071217122  1.15909353315331  0.25349881248125
 1  11.09149671907191 -0.64681316681668  1.18824934663466
 1  12.85924243224322 -1.33320719971997 -0.48500194299430
 1  12.90608092469247  0.07202993009301 -1.56081940044004
 1  13.67525856135614  1.39234963076308  0.22077725182518
 1  13.69837467296730  0.10108715471547  1.39572914911491
 1  15.34566606400640  0.54525772557256 -1.43379002880288
 1  14.88606400140014 -2.24849313311331 -1.04854887538754
 1  16.67610434673468 -1.90282612211221 -0.68862025462546
 1  15.35102782038204 -1.93733335193519  0.41196389768977
 1  15.92286947854785  1.70846393509351  0.75961980558056
 1  16.23627995069507  0.17110091919192  1.44446644344434
 1  18.11495757305731 -0.14610308890889 -0.28656334103410
 1  17.76749947534753  1.21313427652765 -1.20893819841984
 1  18.26799850575058  2.68915764346435  0.74223071807181
 1  18.77318033223322  1.17814665146515  1.56385764136414
 1  20.31103933373338  0.50639137283728  0.12069500660066
 1  19.70002269946995  3.27287942004200 -1.54474944914491
 1  21.36377489468947  2.28951455525553 -1.71945726912691
 1  19.60112834863486  1.56713675027503 -1.97794297549755
 1  20.83385839893990  1.90632018231823  1.98459238703870
 1  22.24242808450845  2.24454257085709  0.93803570337034
 1  20.81723938663866  3.37819749024903  1.19938254265427
 1 -7.19834361686169  1.65888016001600  0.45729898669867
 1 -7.48833019961996 -0.21698657425743 -0.14880820102010

