%nproc=4
%Mem=2GB
# td=(NStates=1) B3LYP/SVP 

TD

0 1
 6 -5.06655950645065 -1.98093789978998  0.45026365146515
 6 -4.62849900810081  2.74629485848585  1.36719339543954
 6 -9.34342358595860  3.41507770407041 -0.20823543974397
 6 -9.84058590969097 -1.38288988358836 -1.00607675307531
 7 -5.24611135913591  0.44828128922892  0.93544100210021
 6 -4.51511960956096 -0.75357434103410  0.93015910151015
 6 -3.09477123082308 -0.62028251175118  1.34534778417842
 6 -3.10265441784178  0.78898401600160  1.97892239763976
 6 -4.36400135823582  1.36982402780278  1.40940285168517
 6 -3.20753725162516  0.77908620962096  3.54909476747675
 6 -2.07208255105511 -0.67016203030303  0.13597020472047
 6 -0.64148253635364 -0.79169802460246  0.74612237733773
 6  0.37926243214321 -1.16715363266327 -0.31333719091909
 8  0.17411714761476 -1.77848753865387 -1.39156161076108
 8  1.68043311851185 -0.77360377887789 -0.01318631063106
 7 -7.04897807880788  2.83783852575258  0.52607320132013
 6 -5.86756093709371  3.40581731423142  0.98054217961796
 6 -6.17952922542254  4.85297338113811  1.06309786148615
 6 -7.51773483798380  5.04518584158416  0.58097332743274
 6 -7.96281173157316  3.67208580748075  0.24466580288029
 6 -5.11014017041704  6.01126490889089  1.36040204410441
 6 -8.11584817301730  6.28033775147515  0.40590564486449
 6 -9.14161168396840  6.82674196479648 -0.42706132243224
 7 -9.17253065236524  0.88299677427743 -0.51592856825683
 6 -9.83993577097710  2.15723902560256 -0.63835264596460
 6 -11.24680091809181  1.87591123062306 -0.87153122442244
 6 -11.42054749524953  0.64751879327933 -1.22522258385839
 6 -10.04798150655066 -0.02620967036704 -0.95819930033003
 6 -12.17044124132413  3.07109967906791 -1.23682811191119
 6 -12.56429652705271 -0.10228932733273 -1.85841807680768
 6 -12.40938540814081 -0.24736938333833 -3.48120530493049
 7 -7.44233735943594 -1.17237155165517 -0.28822516761676
 6 -8.54762074757476 -2.02164877907791 -0.61718864726473
 6 -8.15788939613961 -3.37181178267827 -0.73578731723172
 6 -6.79199122732273 -3.39182506680668 -0.24754685998600
 6 -6.40142868246825 -2.05331713081308  0.02787494159416
 6 -8.96225021012101 -4.46199959996000 -0.96817932473247
 6 -5.68476459795980 -4.30427565446545 -0.04468179857986
 8 -5.68142999909991 -5.52361887058706 -0.17674075367537
 6 -4.45689129372937 -3.29079619231923  0.44983023262326
 6 -3.88405081988199 -3.94011770697070  1.68858074337434
 8 -4.13206581828183 -3.61139209510951  2.82480294429443
 8 -3.00254276997700 -4.82859314061406  1.38801454445445
 6 -2.46017954825483 -5.56845775107511  2.54866133643364
 6  2.58953899729973 -1.16255494609461 -0.98252245754575
 6  3.94994910471047 -0.78855347874787 -0.42892950615062
 6  4.89287158735874 -0.13876482888289 -0.99329473407341
 6  4.82555306550655  0.58959280098010 -2.37990052905291
 6  6.22488620072007  0.08296092439244 -0.22046350945095
 6  7.40741496869687 -0.51072040514051 -0.87602495589559
 6  8.77450092709271 -0.24806001290129 -0.15357023692369
 6  9.98708056275628 -0.84217870047005 -0.83179415931593
 6  10.00529432283228 -2.25635080088009 -1.25520963566357
 6  11.28833950855086 -0.43922359295930  0.05758329032903
 6  12.64032261686169 -0.56371484988499 -0.71702958015802
 6  13.83551995919592  0.05842313921392  0.12909927252725
 6  15.25202702380238 -0.23534657045705 -0.32517635343534
 6  15.60934826242624 -1.72723688558856 -0.26678641414141
 6  16.17054965216522  0.59884079527953  0.41006427082708
 6  17.57172401110111  0.65167090099010 -0.16929143694369
 6  18.48284813581358  1.67726634563456  0.55104379727973
 6  19.95000489638964  1.86442206750675  0.06733949434943
 6  19.95348627812781  2.22362179337934 -1.46310271927193
 6  20.83209367496750  2.84297803390339  0.89242564326433
 1 -3.88429659725973  3.41398778307831  1.85878811711171
 1 -10.11151873687369  4.29777921442144 -0.39596827072707
 1 -10.51479981988199 -1.93438944894489 -1.34934482838284
 1 -2.88293434493449 -1.64269463356336  2.08517031173117
 1 -2.13323389098910  1.43053300440044  1.60928042644264
 1 -2.16785430133013  0.40111753345335  3.78691541684168
 1 -3.46824012431243  1.68280292389239  3.94530363156316
 1 -3.93675425482548  0.13719442174217  3.86945579127913
 1 -2.18817827172717 -1.41741561926193 -0.60357721402140
 1 -2.25495143374337  0.16537401170117 -0.46459512021202
 1 -0.41749607300730  0.14220834673467  1.23032906340634
 1 -0.45319833273327 -1.54705388538854  1.50226734573457
 1 -4.19100375777578  5.64099223682368  0.44743788178818
 1 -5.47298851765177  7.02570768946895  1.13675927292729
 1 -4.81891366836684  5.83457330673067  2.37657871847185
 1 -7.51707180608061  6.96727376107611  1.04596590289029
 1 -9.46021141394139  5.99866785228523 -1.05131452745275
 1 -9.50923520272027  7.92902818811881 -0.62437214131413
 1 -12.13339788718872  3.82294279277928 -0.47880027862786
 1 -11.77169609190919  3.43747871257126 -2.43316053355335
 1 -13.24891229122912  2.72547816601660 -1.44588763566357
 1 -12.65495032093209 -1.09677980428043 -1.41904647844784
 1 -13.37940868316832  0.38903856525653 -1.59027270457046
 1 -12.17894240924092  0.80234724982498 -3.91143998739874
 1 -11.58654486218622 -1.12415181158116 -3.63242403910391
 1 -13.42520059325933 -0.46502386048605 -3.76352021072107
 1 -9.99029657645765 -4.61891398329833 -0.38120392429243
 1 -9.24158606880688 -4.54073108660866 -2.07493801440144
 1 -8.43710541604161 -5.47949872977298 -0.55603025652565
 1 -3.85253098039804 -3.25130248154816 -0.47661072087209
 1 -1.61406827482748 -6.19299590329033  2.37425312931293
 1 -1.98645521722172 -4.75008474747475  3.22866731703170
 1 -3.38626968236824 -6.06791379137914  3.13575509570957
 1  2.79224101590159 -2.26147288838884 -1.33846097939794
 1  2.39551139403940 -0.53282472047205 -1.88978659795980
 1  4.00504194009401 -1.31809988048805  0.54622366676668
 1  5.02798806330633  1.62297999579958 -1.99094168156816
 1  5.76795375917592  0.29921587678768 -3.07687075417542
 1  3.83649013421342  0.31329413531353 -2.81047640454045
 1  6.67199729682968  1.19231237513751 -0.19820502090209
 1  6.07431525732573 -0.60109569486949  0.64976467056706
 1  7.18953960706071 -1.54920896629663 -0.97236208230823
 1  7.63775352645265 -0.03046754215421 -1.85671452915292
 1  8.91019546114611  0.91892974447445 -0.01461020252025
 1  8.69154188408841 -0.44282136913691  0.96723957685769
 1  10.14687155245525 -0.21312111381138 -1.71955267816782
 1  9.22645983358336 -2.36993565636564 -1.87263648914892
 1  10.92672953395340 -2.55062673907391 -1.69795554115412
 1  9.71769021082108 -3.08846072357236 -0.46945046654665
 1  11.09477366746675  0.73080070387039  0.37429089168917
 1  11.41764933433343 -0.95706419191919  1.08913943564356
 1  12.82199870787079 -1.61371525052505 -0.87360080288029
 1  12.53088340494049 -0.33341061396140 -1.73998731723172
 1  13.60178121362136  1.32917331313131  0.17568274237424
 1  13.78223305880588 -0.36770972497250  1.06489606580658
 1  15.33510500790079  0.01576477627763 -1.49026567636764
 1  14.80635603060306 -2.46001428522852 -0.87009102960296
 1  16.59848658495850 -1.91396723622362 -0.47790918351835
 1  15.48729144674467 -2.08241786038604  0.86265896719672
 1  15.79243643524352  1.56677976667667  0.51481532513251
 1  16.33116943964396  0.18007181628163  1.26699869666967
 1  18.01132721002100 -0.26448492709271 -0.14624930963096
 1  17.60637336273627  1.01956491959196 -1.19072637723772
 1  18.23210491639164  2.73847257495750  0.40254674967497
 1  18.50534354855486  1.48825766256626  1.66567782338234
 1  20.55721395119512  0.90185091879188  0.25107804490449
 1  19.29034173137314  3.24378651075108 -1.67909288348835
 1  21.17610612781278  2.28471407520752 -1.83775909930993
 1  19.52957119291929  1.39144918151815 -2.09070425162516
 1  21.03035804890489  2.82938248854886  2.11849577737774
 1  21.76343018471847  2.77861597819782  0.25556745654566
 1  20.35125278797880  3.86684635513551  0.73573617801780
 1 -7.20752453495350  1.76994126612661  0.74742799959996
 1 -7.64037540414041 -0.18842371797180 -0.14671799199920

