%nproc=4
%Mem=2GB
# td=(NStates=1) B3LYP/SVP 

TD

0 1
 6 -5.13334618511851 -1.94650445644564  0.54718334343434
 6 -4.87817397559756  2.76448667766777  1.55268194429443
 6 -9.39490873447345  3.29022521882188 -0.22616723292329
 6 -9.85406725782578 -1.55244683928393 -1.02995914131413
 7 -5.21611835983598  0.47416387748775  0.78037549554956
 6 -4.47793589118912 -0.71684066766677  0.89650573617362
 6 -3.11335308900890 -0.50328081158116  1.34983823322332
 6 -3.16716086848685  0.93188830643064  1.87915242064206
 6 -4.46199115721572  1.42997004240424  1.33505541694169
 6 -3.02367886578658  1.06466476747675  3.48565842384238
 6 -2.05749109190919 -0.69897491159116  0.27886449414942
 6 -0.58411679977998 -0.69636849164917  0.75067283238324
 6  0.28562306820682 -0.96573349064906 -0.39051490869087
 8  0.00586032193219 -1.18675836573657 -1.57309976457646
 8  1.56810188538854 -0.81802822132213  0.02103711171117
 7 -7.12252543354335  2.71487622952295  0.50068066206621
 6 -5.98623280428043  3.37519425192519  1.01839596499650
 6 -6.33072434493449  4.77244532833283  1.04006555825583
 6 -7.66100916541654  4.95489681268127  0.66342157225723
 6 -8.13783923432343  3.66479507840784  0.23736507280728
 6 -5.32116127252725  5.75534931733173  1.50496650055005
 6 -8.36304289248925  6.24547426512651  0.49661471577158
 6 -9.21311883468347  6.55171446204620 -0.41184980128013
 7 -9.22237563686369  0.83231170577058 -0.58047502290229
 6 -9.82892466986699  1.97974127582758 -0.51216002670267
 6 -11.32690892889289  1.84642828232823 -1.04667873917392
 6 -11.55900134063406  0.55765980738074 -1.31711177277728
 6 -10.15369207760776 -0.16026307570757 -0.96372985338534
 6 -12.27672186938694  2.91483405250525 -1.18019244834483
 6 -12.66593669106911 -0.26862596099610 -1.87186942194219
 6 -12.71519598919892 -0.44942958935894 -3.37447463186319
 7 -7.44482760846085 -1.25180949544955 -0.38639498459846
 6 -8.58439442494249 -1.99994660886089 -0.76639356775678
 6 -8.21578518571857 -3.40806540804080 -0.66169990849085
 6 -6.88690071827183 -3.39377526182618 -0.15650775607561
 6 -6.48664720432043 -2.10494229332933  0.04675682978298
 6 -8.99498348344834 -4.58555195519552 -1.03105561236124
 6 -5.71206732823282 -4.26177140404040 -0.00988831923192
 8 -5.61757361346135 -5.46503301200120  0.00739766016602
 6 -4.55473107770777 -3.34071118381838  0.44718996859686
 6 -3.85569798459846 -3.76923061826183  1.69978186348635
 8 -4.04720733243324 -3.21198215411541  2.83019348334833
 8 -3.02397491319132 -4.77651793309331  1.49214495749575
 6 -2.40246377667767 -5.27016792209221  2.64125059535954
 6  2.54837488088809 -0.91617030763076 -1.08067227252725
 6  3.95643975377538 -0.70368499189919 -0.48562517571757
 6  5.03270557075708 -0.03874482688269 -1.04736014061406
 6  4.89250976117612  0.54121796349635 -2.41626416541654
 6  6.28261197329733  0.19027165546555 -0.32472393549355
 6  7.56320054725473 -0.43957329042904 -1.02912026542654
 6  8.86252972997300 -0.16887209410941 -0.22800768066807
 6  10.12381423612361 -0.66433091569157 -0.93738471837184
 6  10.06319011241124 -2.17134230003000 -1.23311742644264
 6  11.26743741834183 -0.41352102270227 -0.07173964196420
 6  12.69638822342234 -0.64003248164816 -0.69804768196820
 6  13.90285669286929 -0.06473917701770  0.08141450405041
 6  15.31286310741074 -0.21313434923492 -0.48047188298830
 6  15.69436676427643 -1.65469963186319 -0.61672140764076
 6  16.34807740494050  0.52534344554455  0.41057432183218
 6  17.78145498419842  0.64518025192519 -0.21485599339934
 6  18.75799565056505  1.56745536453645  0.69509820272027
 6  20.21263115901590  1.53717934323432  0.20658341874187
 6  20.36235716521652  2.08691812301230 -1.23806021502150
 6  21.08329879547955  2.36025976207621  1.24268066876688
 1 -3.91609977757776  3.23197958225823  1.84366660496050
 1 -10.21616920192019  4.06319575607561 -0.22159083298330
 1 -10.50485882578258 -2.15850186018602 -1.43458335223522
 1 -3.00605665716572 -1.23699406350635  2.17435923062306
 1 -2.39398996659666  1.58620857195720  1.25531502990299
 1 -1.90109762566257  0.82574999669967  3.75549227452745
 1 -3.33619691999200  2.02455709930993  3.98071717291729
 1 -3.79222980238024  0.37714841714171  3.97539638533853
 1 -2.11758121202120 -1.89582346004600 -0.10241709800980
 1 -2.17120305890589  0.10576805110511 -0.50469913061306
 1  0.03620929752975  0.34183830973097  0.98646467696770
 1 -0.32512552545254 -1.27689686968697  1.71843896289629
 1 -4.33600825822582  5.85263340094009  0.85769890789079
 1 -5.50434165296530  6.95557067576758  1.86527212421242
 1 -4.83471524852485  5.61272112151215  2.33748480908091
 1 -7.89013911281128  6.87972500620062  1.20070137643764
 1 -9.47635302810281  5.84686267176718 -1.30625002100210
 1 -9.64165844504450  7.62288757405741 -0.44848455255526
 1 -12.41521606900690  3.49134963346335 -0.23132553115312
 1 -11.84804372667267  3.73943890859086 -1.67198441594159
 1 -13.26350375037504  2.61432705090509 -1.80684373127313
 1 -12.81163598949895 -1.26330645694569 -1.40043461726173
 1 -13.48540928322832  0.22972263366337 -1.58091176847685
 1 -12.74459897489749  0.35769278437844 -3.99011785518552
 1 -11.98964517221722 -0.98476787318732 -3.69147994469447
 1 -13.54689276247625 -1.21132849094909 -3.57167102580258
 1 -10.00672821962196 -4.54651674357436 -0.27083288718872
 1 -9.22170408060806 -4.63049006250625 -2.00450097069707
 1 -8.56503820932093 -5.57324810471047 -0.89452410591059
 1 -3.84748047534753 -3.41131848314832 -0.31552461226123
 1 -1.74648151615161 -5.92102870657066  2.08156386038604
 1 -1.82931950365036 -4.47580731973197  3.17542199249925
 1 -2.89622067746775 -6.00854785478548  3.28729024922492
 1  2.51318311011101 -2.01210795189519 -1.34665179847985
 1  2.38954079697970 -0.38822026002600 -1.93012063136314
 1  4.13915535143514 -1.04456252675268  0.55486453085308
 1  5.10607587208721  1.55100279807981 -2.65526811421142
 1  5.69116608040804 -0.05984002880288 -3.15133820092009
 1  3.96861334653465  0.49468227412741 -2.92678803570357
 1  6.57837793489349  1.31571471537154 -0.37699289968997
 1  6.19075690149015 -0.03265885118512  0.78982867696770
 1  7.37942859595960 -1.55833987938794 -1.25036988308831
 1  7.54735448654866 -0.00812530793079 -2.07014587228723
 1  8.92941738333833  0.93380123162316 -0.31473021452145
 1  8.73855658555856 -0.56801388838884  0.64062691559156
 1  10.25091195649565 -0.30488028972897 -2.03257398029803
 1  9.39071625922592 -2.54254291709171 -1.87899712521252
 1  10.99782664366437 -2.56807848424843 -1.64141988758876
 1  9.90793923572357 -2.66685856335634 -0.27276079757976
 1  11.34003819391939  0.80306793059306  0.32155561816182
 1  11.05161273067307 -1.03544202970297  0.89695021672167
 1  12.75533204120412 -1.77754163316332 -1.04955839863986
 1  12.68881919851985  0.16129885698570 -1.55836915541554
 1  13.60938197369737  0.95726612241224  0.54375955005501
 1  13.75736057155716 -0.69794274827483  1.04129370557056
 1  15.45058655605561  0.15297849764977 -1.45733238303830
 1  15.04653004800480 -2.27825610941094 -1.17982200270027
 1  16.83899063536354 -1.70676651615162 -1.22992438503850
 1  15.77964068166817 -2.09980959955996  0.44097679897990
 1  15.94243143474347  1.49801288998900  0.81186503010301
 1  16.29863618631863  0.17365117421742  1.46089808660866
 1  18.36205228252825 -0.42972145074507 -0.03672835753575
 1  17.71480420582058  0.86282924602460 -1.11954925952595
 1  18.40501220712071  2.66828555625563  0.60131662666267
 1  18.78463147734774  1.25668450525052  1.78959021462146
 1  20.74828305810581  0.60690142384238  0.39625256235624
 1  19.99060175737574  3.30665279737974 -1.19628460266027
 1  21.33021153835383  2.30884648844884 -1.71065638903890
 1  19.67467570337034  1.55325536213621 -1.76548172937294
 1  21.45663067616762  1.81632118241824  2.13463739153915
 1  22.01678552025203  2.42831094769477  0.70586248604860
 1  20.94054171687169  3.48391806230623  1.37280988538854
 1 -7.14697848034803  1.65877014901490  0.24108736553655
 1 -7.58185955255526 -0.31510638623862 -0.32278559875988

