%nproc=4
%Mem=2GB
# td=(NStates=1) B3LYP/SVP 

TD

0 1
 6 -5.15943879437944 -1.94329413541354  0.45447407250725
 6 -4.86278243644364  2.65311554055406  1.56585326142614
 6 -9.37698694229423  3.31775797209721 -0.21667628382838
 6 -9.74157600870087 -1.39125071967197 -1.11172731813181
 7 -5.31835858385839  0.37977443854385  0.89581703970397
 6 -4.60574867246725 -0.74047303090309  0.84774085968597
 6 -3.13944569826983 -0.59425990949095  1.43209645904590
 6 -3.16201035343534  0.78921403900390  1.98578308370837
 6 -4.58097305540554  1.28416546194619  1.41060297169717
 6 -3.14766126402640  0.83502180318032  3.50692055005501
 6 -2.04223956675668 -0.72506752085209  0.25728233593359
 6 -0.66941532963296 -0.76676553135314  0.72907067216722
 6  0.33197770367037 -0.94328124542454 -0.46568242544254
 8  0.00159989588959 -1.14759444934493 -1.64216667126713
 8  1.57681275647565 -0.81278769726973 -0.01953694569457
 7 -7.17769095009501  2.77120186208621  0.68263885788579
 6 -6.04916909790979  3.34934166666667  1.09723384878488
 6 -6.31295256775678  4.73367145094509  1.13024457615762
 6 -7.56485955045505  4.92939426242624  0.64545977607761
 6 -8.15582103250325  3.68304690359036  0.22066340264026
 6 -5.30823998039804  5.78921270367037  1.66571257515752
 6 -8.19835642384238  6.23912363006301  0.39540459475948
 6 -8.99938746154615  6.60291958255826 -0.61427004330433
 7 -9.10668406770677  0.93613208780878 -0.55713268866887
 6 -9.84570634803480  2.11604490619062 -0.69155796649665
 6 -11.23423966196620  1.93001664116412 -1.11706577787779
 6 -11.39900534103410  0.53789783118312 -1.38646870847085
 6 -10.07322403080308  0.01265421602160 -1.05504898529853
 6 -12.22866706390639  2.96475904500450 -1.34132856195620
 6 -12.54677477487749 -0.19192829122912 -1.93631586658666
 6 -12.46532100170017 -0.23568821522152 -3.52122930733073
 7 -7.38861198689869 -1.25134944944494 -0.36933327842784
 6 -8.51885787128713 -1.92019863406341 -0.76035296369637
 6 -8.17803141034103 -3.39240384188419 -0.63596733523352
 6 -6.86215824402440 -3.50199608390839 -0.32542464776478
 6 -6.44924346394639 -2.12382418151815 -0.09354720062006
 6 -9.03792777787779 -4.53917731773177 -1.00898340514051
 6 -5.75873199469947 -4.33108833573357 -0.04617194759476
 8 -5.74821667776778 -5.48873538223822  0.00430735113511
 6 -4.61441704630463 -3.44796190889089  0.46967221682168
 6 -3.87283969876988 -3.79844353955396  1.88464034933493
 8 -4.14444705640564 -3.40583153905391  2.93635409940994
 8 -3.12041455715572 -4.86824710601060  1.55845158815882
 6 -2.60445397569757 -5.65118602390239  2.73993046334633
 6  2.62268231163116 -0.80823951455146 -1.06090029532953
 6  3.96780088988899 -0.63341796519652 -0.46231284448445
 6  4.99772207240724  0.05308435603560 -1.01248665326533
 6  4.96656716691669  0.77900174187419 -2.29941248024802
 6  6.39481319341934  0.20800342864286 -0.20670213331333
 6  7.49792401960196 -0.48728806190619 -0.79465681908191
 6  8.90276375337534 -0.18564377127713 -0.09587446734673
 6  10.13421527622762 -0.77434191679168 -0.64589556945695
 6  10.14114790819082 -2.31803696949695 -0.85341945664566
 6  11.31028170277028 -0.33142281288129  0.12150968296830
 6  12.73652223682368 -0.55727420582058 -0.55203308050805
 6  13.86430283748375  0.02645994289429  0.22276863946395
 6  15.31760358145815 -0.17582061786179 -0.44760859665967
 6  15.71564889248925 -1.74836899879988 -0.44623435893589
 6  16.28399099629963  0.64388529972997  0.37101036543654
 6  17.70866770547055  0.62305803970397 -0.36656116391639
 6  18.68805865686569  1.67967658665867  0.30056874977498
 6  20.18691858775878  1.57405303060306 -0.13041028062806
 6  20.27269819931993  2.13639307050705 -1.53347975697570
 6  21.01031149674968  2.48788252435244  0.80734713541354
 1 -4.11264943254325  3.28728511281128  2.07985022332233
 1 -10.06300388538854  4.14946438293829 -0.32182085598560
 1 -10.44064240414042 -2.18822483248325 -1.21996189008901
 1 -2.85763181468147 -1.52049241334133  2.05589738443844
 1 -2.17705827342734  1.29708966006601  1.63307280568057
 1 -1.99388690459046  0.53275069676968  4.02798952425243
 1 -3.35561886218622  1.61512615621562  3.91658075927593
 1 -3.86899747914791  0.14028473077308  3.92511135683568
 1 -2.30605005890589 -1.83086696439644 -0.41602845914591
 1 -2.21111705030503  0.48175564986499 -0.34829349004901
 1 -0.44188851225123  0.16193031893189  1.40901693219322
 1 -0.45261827472747 -1.68842802280228  1.35834295329533
 1 -4.18088274567457  5.41372951055105  1.32574571257126
 1 -5.60531174997500  6.86779189788979  1.40085568256826
 1 -5.22579435643564  5.60000985038504  2.83975503610361
 1 -8.01427152605260  7.04210124382438  1.21531283758376
 1 -8.98782417521752  6.06396438193819 -1.58811820782078
 1 -9.47286156535654  7.51131641694169 -0.49200890499050
 1 -12.21558610601060  3.69934043254325 -0.49656205480548
 1 -11.88539746204621  3.69370433513351 -2.10526774427443
 1 -13.25815321532153  2.63179879807981 -1.62692573947395
 1 -12.66787161306131 -1.35907603390339 -1.71001557535754
 1 -13.58443918621862  0.06533619501950 -1.60204388168817
 1 -12.33577809280928  0.72193920902090 -4.12748159155916
 1 -11.59617582528253 -0.88983838023802 -3.96067686438644
 1 -13.40018809200920 -0.56624398249825 -3.79177303600360
 1 -9.97550509730973 -4.74296638853885 -0.40888669256926
 1 -9.34250616081608 -4.53696070957096 -2.22203272387239
 1 -8.38542024752475 -5.46545732563256 -0.92964761826183
 1 -3.94526025332533 -3.42193954525453 -0.42710577037704
 1 -1.80681754975498 -6.35954255795580  2.28375407940794
 1 -2.09000557225723 -4.73185292429243  3.29568401870187
 1 -3.38607966336634 -6.05726272627263  3.31512303250325
 1  2.45312710451045 -1.74192093319332 -1.53224035733573
 1  2.25513735663566 -0.16200763876388 -1.83549116841684
 1  3.99692112801280 -0.95559362986299  0.60393943834383
 1  5.14268953345335  1.84815251305131 -2.16068865626563
 1  5.59217618141814  0.30103605880588 -3.15417848494849
 1  4.01725821102110  0.85215802170217 -2.74634999189919
 1  6.53562365946595  1.16564970887089  0.17209200880088
 1  6.17696552235224 -0.34906049134913  0.75989568366837
 1  7.67671832493249 -1.78856290169017 -0.87066191229123
 1  7.72594234533453 -0.12624712011201 -1.87361621932193
 1  8.94625906750675  0.98430628212821 -0.06994573607361
 1  8.78421115101510 -0.54354144114411  0.95976882978298
 1  10.24083094839484 -0.48268807050705 -1.67798852175218
 1  9.32082927052705 -2.70444910771077 -1.49624885038504
 1  10.98614547554756 -2.80829250565057 -1.18583432903290
 1  9.95430387218722 -2.69858173567357  0.16829330783078
 1  11.11757594769477  0.91508913271327  0.36095955855586
 1  11.41903947334733 -0.70256874237424  1.37680820252025
 1  12.91865837383738 -1.56325020402040 -0.61915535833583
 1  12.70127044364436 -0.09353662656266 -1.54343766226623
 1  13.83782481798180  1.15469586538654  0.22035720982098
 1  13.83187802330233 -0.49593254725473  1.34162373857386
 1  15.16874837223722 -0.00128692889289 -1.62238888868887
 1  15.07951334633463 -2.22443072687269 -1.14749877037704
 1  16.81555829212921 -1.93992983248325 -0.82811420402040
 1  15.78715143274327 -2.00282990159016  0.68837153845385
 1  15.81826901850185  1.67148023672367  0.40382422602260
 1  16.17174349704971  0.27095090419042  1.51065306210621
 1  18.07565364266427 -0.41615009360936 -0.16211089578958
 1  17.59044176957696  0.69837280038004 -1.55982328692869
 1  18.21351305720572  2.73538226592659  0.13396989198920
 1  18.70582359655966  1.54753359015902  1.38675993159316
 1  20.40484871467147  0.50278101180118 -0.09842690559056
 1  19.97169986718672  3.14888702080208 -1.66567154135413
 1  21.24950346754675  2.01701730553055 -1.90908623202320
 1  19.63185142094209  1.57141717831783 -2.41931711291129
 1  20.85183019611961  2.05810536083608  1.83217714551455
 1  22.14051789348935  2.55924404100410  0.73789568936894
 1  20.37415507820782  3.54916458695870  0.73863646804680
 1 -7.27876165866587  1.82929720172017  0.69267252405241
 1 -7.39515088168817 -0.20937581318132 -0.28612193239324

