%nproc=4
%Mem=2GB
# td=(NStates=1) B3LYP/SVP 

TD

0 1
 6 -5.06112896339634 -1.81109091509151  0.51394001910191
 6 -4.72375853405341  2.82768299729973  1.23567024312431
 6 -9.50276952055206  3.35510170647065 -0.25923053925393
 6 -9.92125397649765 -1.45898749334933 -0.87125327072707
 7 -5.15292204020402  0.53632009310931  0.73927138513851
 6 -4.44125222282228 -0.62525150875088  0.78683476907691
 6 -2.96272802650265 -0.51388187168717  1.18407165656566
 6 -3.03591774417442  0.95660077767777  1.73270777617762
 6 -4.33176813491349  1.48002504790479  1.25363727512751
 6 -2.94553105100510  1.05274357535754  3.25741559955996
 6 -1.93714905770577 -0.70502551665167  0.00717732543254
 6 -0.46346473457346 -0.82153100790079  0.62883064816482
 6  0.44645915181518 -1.26069298659866 -0.51588744594459
 8  0.08114785068507 -1.87137682758276 -1.51686414101410
 8  1.70152522772277 -0.90814723322332 -0.24301929392939
 7 -7.09652283328333  2.80707544944494  0.37220781478148
 6 -5.94354853585359  3.37664439693969  0.92727685308531
 6 -6.25555682818282  4.82748083188319  0.95058661036104
 6 -7.53143620812081  5.09489081208121  0.44380961106111
 6 -8.14809025942594  3.69214781368137  0.11161249754975
 6 -5.33569272567257  5.92975675807581  1.39764576847685
 6 -8.17278386658666  6.40007972567257  0.50339539383938
 6 -9.22724024682468  6.77762705330533 -0.45433404970497
 7 -9.28127152645265  0.98925740034003 -0.44564153955396
 6 -10.02863464086409  2.08268156985699 -0.47502631333133
 6 -11.36360259825983  1.92191583108311 -0.82203627492749
 6 -11.51095653615362  0.46806084748475 -0.97356741834183
 6 -10.21171788018802 -0.05967301670167 -0.64868834923492
 6 -12.39286348354836  2.99686225532553 -1.13037746684668
 6 -12.86478657605761 -0.29894899329933 -1.47787002200220
 6 -12.74940941054106 -0.58632327872787 -3.05411259565957
 7 -7.39119224492449 -1.19550386488649 -0.11278762386239
 6 -8.62208819431943 -1.97605421962196 -0.51462839123912
 6 -8.14767837503750 -3.32302690419042 -0.63436717521752
 6 -6.84413644184418 -3.35382126642664 -0.21302340764076
 6 -6.40673921352135 -2.03884568366837  0.13342549664967
 6 -8.93353733883388 -4.64896829682968 -1.04324683148315
 6 -5.62969909140914 -4.22589781668167 -0.01132846324632
 8 -5.49725158125813 -5.39432594129413 -0.41826490609061
 6 -4.44490009460946 -3.29885699839984  0.47657290689069
 6 -3.95773818861886 -3.80800449564956  1.75173705900590
 8 -4.23069568126813 -3.47309826572657  2.89699016301630
 8 -2.95608812451245 -4.74087436873687  1.37679342234223
 6 -2.28512204250425 -5.53557446274627  2.49584605490549
 6  2.75328537193719 -1.28877756835684 -1.19718392369237
 6  4.07259136893689 -0.84828945234523 -0.54360097329733
 6  4.99182148234823 -0.01727267966797 -1.09739514411441
 6  4.91768227842784  0.66589043074307 -2.33096563556356
 6  6.19651336343634  0.11366399469947 -0.30346180928093
 6  7.53016724392439 -0.45792512561256 -0.97471482488249
 6  8.78600207720772 -0.25777098399840 -0.18844372427243
 6  10.13141499619962 -0.76719120172017 -0.82961394129413
 6  9.93859765316532 -2.22445761156116 -1.19518363306331
 6  11.28712938753875 -0.39046871747175  0.04117164916492
 6  12.70078866346635 -0.51295977437744 -0.71214909210921
 6  13.82406881408141  0.11056835373537  0.16194255685569
 6  15.20829265036504 -0.20418345414541 -0.39860369616962
 6  15.50305763336334 -1.63883804570457 -0.48944868036804
 6  16.29616221342134  0.56921783298330  0.40372363676368
 6  17.71258809750975  0.68019375327533 -0.16743125092509
 6  18.73236308730873  1.38285690469047  0.84557325022502
 6  20.03320321622162  1.58563418871887  0.22713547394739
 6  20.08730966046605  2.49917934913491 -1.12636904590459
 6  20.93868433403340  2.35462919901990  1.31251765246525
 1 -4.15298346594660  3.65215159945995  1.64047628592859
 1 -10.10427801280128  4.22152158865887 -0.17277595149515
 1 -10.53377171707171 -2.25684169416942 -1.20423031693169
 1 -2.59911596309631 -1.31087145124513  2.11063285798580
 1 -2.27586815441544  1.58926887798780  1.39589908830883
 1 -1.76847436333633  0.69368679037904  3.38658538383838
 1 -2.83138643894389  1.99750439403940  3.74101320252025
 1 -3.70734131353135  0.26680738303830  3.81400024572457
 1 -1.88905835973597 -1.73488736643664 -0.36949380568057
 1 -2.06908284688469  0.06476395069507 -0.65638429912991
 1 -0.11764608800880  0.11149527542754  0.78092412291229
 1 -0.27045005790579 -1.48159733973397  1.37395451445145
 1 -4.53536819421942  5.97505564316432  0.84498763676368
 1 -5.88003922272227  6.91287640634063  1.37080267726773
 1 -4.84186596359636  5.85263511291129  2.48342940354035
 1 -7.99368946784679  7.12232926662666  1.15710701700170
 1 -9.55647103990399  6.09345733123312 -1.21260065606561
 1 -9.48210248944894  7.74001928722872 -0.61429113321332
 1 -12.59597414481448  3.48706920542054 -0.19830222882288
 1 -12.24219314161416  3.78868383308331 -1.94166138363836
 1 -13.22971037103710  2.44808042624262 -1.47304035093509
 1 -12.72777760366037 -1.21378150445045 -1.11668624242424
 1 -13.86613735603560  0.28396805820582 -1.36183986128613
 1 -12.66752126712671  0.43871088618862 -3.49587843124312
 1 -11.81226743444345 -1.09620901730173 -3.22200299699970
 1 -13.76319439263927 -0.99561691979198 -3.41989584828483
 1 -9.83438098489849 -4.73083517541754 -0.65660146404640
 1 -9.22411432163216 -4.63455046854686 -2.10735125572557
 1 -8.38554025952595 -5.55414619451945 -0.82550720422042
 1 -3.78722444974497 -3.43641099239924 -0.40285334513451
 1 -1.75773264126413 -6.26635323902390  2.04222992699270
 1 -1.85407197889789 -4.70801054005400  3.16568101840184
 1 -3.10437149254926 -6.01931893189319  3.12941446164616
 1  2.65050684248425 -2.40990773187319 -1.60341747504751
 1  2.76561840474047 -0.56497793579358 -2.06679429872987
 1  4.12969440534053 -1.39279735023502  0.38102714711471
 1  5.57188245274528  1.60783848164816 -2.53345593299330
 1  5.33761072487249  0.14781073627363 -3.20590365746575
 1  4.00830731593159  0.79584239013901 -2.78612396929693
 1  6.39979007610761  1.20083322722272 -0.02990819121912
 1  6.20216804260426 -0.39169475477548  0.74151384548455
 1  7.28175882898290 -1.48169221462146 -1.25034988108811
 1  7.67881763286329  0.10766627122712 -1.94736359405941
 1  8.70056449804980  0.72488033953395 -0.15975471697170
 1  8.40954368426843 -0.67683477047705  0.89702255515552
 1  10.22842970827083 -0.13666346804680 -1.70236095899590
 1  9.04791197879788 -2.31879054185418 -1.77308653415341
 1  10.92607946894690 -2.54461613801380 -1.52510825642564
 1  9.43582202400240 -2.68012989048905 -0.24157767926793
 1  11.05293948404840  0.73230085388539  0.40478394099410
 1  11.25957352675267 -0.88055654115412  0.83462398409841
 1  13.04054056205621 -1.59710358935894 -0.91533497629763
 1  12.46347666426643  0.01226395349535 -1.66458977747775
 1  13.67899893539354  1.29336973277328  0.29489466356636
 1  13.64595943144315 -0.13760671467147  1.25623519971997
 1  15.32501399879988  0.19642284208421 -1.51809845964596
 1  14.79287468246825 -2.15772405620562 -1.24370839133913
 1  16.57212394869487 -1.79121496099610 -0.89459085168517
 1  15.45142786038604 -2.14288390699070  0.43305600690069
 1  15.82922011361136  1.69178226692669  0.55874971857186
 1  16.40780710341034 -0.03653984488449  1.38740073687369
 1  18.10453653095309 -0.38709718831883 -0.41675636033603
 1  17.56341906730673  1.32469543264326 -1.06725403000300
 1  18.36783848974898  2.50050877857786  1.16482297729773
 1  18.92592560676068  0.69960879767977  1.73328458405841
 1  20.53702193199320  0.59819055275528 -0.07798486138614
 1  19.51862455965597  3.53613574567457 -1.11840681488149
 1  21.15087360456046  2.51844744854485 -1.20976630003000
 1  19.41010924672467  1.85651568816882 -1.86780196139614
 1  20.96962197529753  2.07308685898590  2.43269719751975
 1  21.99586342804280  2.51302941954195  0.87374927472747
 1  20.42964062676268  3.37356702720272  1.49956256065607
 1 -7.28292207470747  1.93503777577758  0.44187744454445
 1 -7.59982134873487 -0.19388426402640 -0.18077139733973

