%nproc=4
%Mem=2GB
# td=(NStates=1) B3LYP/SVP 

TD

0 1
 6 -5.21490434093409 -1.93263306930693  0.27938656375638
 6 -4.64059021722172  2.76463669266927  1.44405108120812
 6 -9.29225846944694  3.48736493279328 -0.23379799599960
 6 -9.82912476357636 -1.22644423902390 -0.98909505490549
 7 -5.17610435843584  0.46209267036704  0.58811626962696
 6 -4.52727082468247 -0.82232121572157  0.74525061066107
 6 -3.29347110081008 -0.75639612311231  1.39899314871487
 6 -3.15822997539754  0.83195831343134  1.86099060446045
 6 -4.33833879197920  1.35181222662266  1.22659457085709
 6 -3.15793229112911  0.82739104010401  3.47628748674867
 6 -1.99286462926293 -0.91311632573257  0.32676928462846
 6 -0.51899028712871 -1.07570642544254  0.93154091919192
 6  0.43068757465747 -1.44432134943494 -0.16474233143314
 8  0.16007574347435 -1.75545523542354 -1.37018947354735
 8  1.63269834503450 -1.10084650315031  0.10095510351035
 7 -6.95181836283628  2.83263800570057  0.33843443744374
 6 -5.83021720272027  3.37605433793379  0.99636376177618
 6 -6.05176644914491  4.78733681748175  1.00403195489549
 6 -7.34126719121912  5.02744406740674  0.72764799489949
 6 -7.89360481088109  3.77766636553655  0.14507584388439
 6 -4.97450660706071  5.79481326372637  1.27974397829783
 6 -7.91506809500950  6.28685840354035  0.57888294259426
 6 -8.98571609440944  6.68130742134213 -0.32664128042804
 7 -9.22453585288529  1.06460493509351 -0.61326830223022
 6 -9.81211298869887  2.21421472317232 -0.62364117481748
 6 -11.28214445244524  2.00389402890289 -1.12171624292429
 6 -11.36845228572857  0.65773981538154 -1.23922398399840
 6 -10.17673438183818  0.09113206380638 -0.89727320772077
 6 -12.33091728892889  3.06696926602660 -1.20849527862786
 6 -12.60270036743674  0.00673157475748 -1.84564679967997
 6 -12.62219668926893 -0.15378002440244 -3.43135031943194
 7 -7.58039116481648 -1.21455577007701 -0.43289963506351
 6 -8.64070005550555 -1.99213582778278 -0.75403233163316
 6 -8.27466107330733 -3.37576217771777 -0.68006174467447
 6 -6.95378740694069 -3.36116200050005 -0.44384648994900
 6 -6.49334787438744 -2.04805660476048 -0.16206405230523
 6 -9.17871185628563 -4.60335373537354 -0.98224073087309
 6 -5.92071819331933 -4.31302652955296 -0.05029235963596
 8 -5.90903275937594 -5.50357686638664 -0.05480856045605
 6 -4.74595019961996 -3.45920303300330  0.41072632223222
 6 -3.99400181498150 -3.96340003520352  1.76363824912491
 8 -4.20880349204921 -3.50161111701170  2.84064452845285
 8 -3.27832034773477 -5.03076335763576  1.42126786978698
 6 -2.57282081238124 -5.66968787408741  2.62646911721172
 6  2.75031507490749 -1.30820951155116 -0.86662086738674
 6  4.00872498229823 -0.90242486588659 -0.28359497269727
 6  4.97332963316332 -0.12057300970097 -0.89584498909891
 6  4.80037054725473  0.61898574027403 -2.13986652565257
 6  6.31691540364036  0.04694732303230 -0.16278774187419
 6  7.51227545474547 -0.42447178027803 -0.84618197159716
 6  8.78260173717372 -0.42262746964696  0.04331945204520
 6  10.20322217691769 -0.68179266186619 -0.62132311221122
 6  10.13984777817782 -2.10742590839084 -0.92567668236824
 6  11.37353802840284 -0.28424809540954  0.25335286728673
 6  12.67973655825583 -0.57500597899790 -0.41483936113611
 6  13.87395380258026  0.23074037093709  0.20522688528853
 6  15.24760658175818  0.03937090129013 -0.37816165196520
 6  15.43199052665267 -1.51743590549055 -0.52813254875488
 6  16.32662525972598  0.77287819901990  0.36834009840984
 6  17.69657649634964  0.94287002090209 -0.41211571937194
 6  18.64422427342734  1.74265288428843  0.35083377627763
 6  20.12561245714571  1.85447107240724 -0.31885912551255
 6  20.10553148264827  2.41246067726773 -1.56297270627063
 6  20.95289575517552  2.60208394449445  0.79562596329633
 1 -3.89640780838084  3.33786017031703  1.92604484278428
 1 -9.96354393939394  4.30029946644664 -0.14330300420042
 1 -10.74278261816182 -1.88021403140314 -1.34087398129813
 1 -2.97957400890089 -1.48072843694369  2.13622541724172
 1 -2.29029959755976  1.30317026812681  1.60546004440444
 1 -2.33257077297730  0.12414983668367  3.90428715401540
 1 -3.10000330063006  1.82414705830583  3.84986408760876
 1 -3.95829640904090  0.36865756805681  3.84953379907991
 1 -2.05819527342734 -1.90368424612461 -0.21624848114811
 1 -1.99398533713371 -0.29774229992999 -0.56243490419042
 1  0.06063173977398 -0.28172404650465  1.51488751925192
 1 -0.44749776267627 -1.90598977897790  1.55629274827483
 1 -4.13517817521752  5.72054019161916  0.46383952195220
 1 -5.35614683348335  6.70766588528853  1.20510610761076
 1 -4.38530030703070  5.89217906730673  2.33986504710471
 1 -7.49854995389539  7.16853388708871  1.09359066536654
 1 -9.19745513831383  6.08215620112011 -1.14109350535054
 1 -9.45042932213221  7.75923120842084 -0.12430213431343
 1 -12.57305185258526  3.52716321482148 -0.12302470107011
 1 -11.77667658995900  3.99986495119512 -1.82525974347435
 1 -13.21629902990299  2.83156877507751 -1.56575962286229
 1 -12.63129795569557 -1.09368949524953 -1.34125869966997
 1 -13.46646738903890  0.44567422882288 -1.43167684498450
 1 -12.13090760576057  0.86800381548155 -3.61950079347935
 1 -11.98338454615462 -1.03827322372237 -3.70803159985999
 1 -13.51648972217222 -0.43126048414841 -4.10729458815882
 1 -10.08078562536254 -4.59546163806381 -0.44106991089109
 1 -9.30168207840784 -4.56152316581658 -2.14418493909391
 1 -8.80670237573758 -5.51886266616662 -0.73641829532953
 1 -3.96660238753875 -3.64535188648865 -0.40674373417342
 1 -2.22540940894089 -6.57177378107811  2.24334003800380
 1 -1.94597116881688 -4.93647338633863  3.23489794009401
 1 -3.40039109450945 -5.92963996399640  3.39984150435044
 1  2.80969276107611 -2.34892163326333 -1.06032316561656
 1  2.61532337523752 -0.96853829182918 -1.94756237553755
 1  4.22579401530153 -1.47314538503850  0.65065410981098
 1  4.97975323982398  1.68661635943594 -2.33127571497150
 1  5.49114607840784  0.27279323452345 -3.03757682478248
 1  3.88482496769677  0.66107891379138 -2.54962031893189
 1  6.41675177227723  1.09562270617062  0.21674647424742
 1  6.21394922072207 -0.49705529082908  0.80113980808081
 1  7.33898455155516 -1.45305935133513 -1.41766661276128
 1  7.79999975107511  0.22938844344434 -1.81139999769977
 1  8.82482692429243  0.55733358485849  0.44922618111811
 1  8.61926465636564 -1.16870395739574  0.89586243914391
 1  9.99676654195419 -0.23473327502750 -1.52673339623962
 1  9.48373556115612 -2.41215987878788 -1.58263748924892
 1  11.22299916091609 -2.40465214161416 -1.23508925452545
 1  9.94067250905091 -2.73822570007001  0.01159763826383
 1  11.09817400750075  0.69350697449745  0.34268773137314
 1  11.24622219161916 -0.64826331183118  1.32623314501450
 1  12.72021852985299 -1.65388926792679 -0.40527397019702
 1  12.70452076867687 -0.15887316021602 -1.31869518801880
 1  13.72438347384738  1.36319671547155  0.20863603770377
 1  14.10565540104010  0.02884993099310  1.23373294949495
 1  14.98308980638064  0.31019421922192 -1.32583923372337
 1  14.78276367136714 -1.88711699549955 -1.34257827832783
 1  16.51850858715872 -1.59327516701670 -0.75015640824082
 1  15.28896161376138 -2.01168078667867  0.62785548684868
 1  15.79807699929993  1.81781487018702  0.52418626222622
 1  16.50492681538154  0.48207201630163  1.41107310411041
 1  18.23938001530153 -0.18245672427243 -0.47031171587159
 1  17.33011573697370  1.33112607570757 -1.29973727832783
 1  18.27636934283429  2.68262699039904  0.74119061406141
 1  18.55901891609161  1.27448628542854  1.24446570217022
 1  20.39453768356836  0.80394112781278 -0.28432549544955
 1  19.98043074027403  3.50075220732073 -1.59478445264526
 1  21.19903842104210  2.06426203000300 -2.11670699409941
 1  19.32239047484748  1.83253328992899 -2.27551273247325
 1  20.85541055415542  2.19367891819182  1.98670259805981
 1  22.13870771247124  2.58320643724372  0.43727562736274
 1  20.89217688038804  3.74524419491949  0.69712231663166
 1 -7.16390017251725  1.82517678967897  0.37707096389639
 1 -7.70697206380638 -0.26767164276428 -0.70178349854985

