%nproc=4
%Mem=2GB
# td=(NStates=1) B3LYP/SVP 

TD

0 1
 6 -5.14249710021002 -1.95142494849485  0.51568019311931
 6 -4.62952911111111  2.71132136113611  1.30417709380938
 6 -9.15907515111511  3.38761495779578 -0.30814543074307
 6 -9.93378522962296 -1.44216581118112 -0.86912305770577
 7 -5.14179092709271  0.38371483258326  0.91588904690469
 6 -4.59127722532253 -0.74786376997700  0.90311639723972
 6 -3.03198495219522 -0.66458694219422  1.39068231763176
 6 -3.01373552595260  0.87039215681568  1.84603910931093
 6 -4.30346530463046  1.37122416781678  1.27793970537054
 6 -2.87884438233823  0.87791609260926  3.34660451845185
 6 -2.07776311911191 -0.82518753285329  0.13546015371537
 6 -0.66275466356636 -0.83723257805781  0.60624838993899
 6  0.38902340824082 -1.09563648094809 -0.53898975617562
 8  0.01234096999700 -1.56657634753475 -1.60299275387539
 8  1.65210028522852 -0.98254467296730 -0.16179117111711
 7 -6.86956013701370  2.78090283218322  0.37698829282928
 6 -5.75752993399340  3.40593732623262  0.97410153555356
 6 -6.08783005550555  4.69719780358036  1.07370892259226
 6 -7.26653971847185  5.01813313631363  0.36322155225523
 6 -7.80312576297630  3.69748834773477  0.06530786708671
 6 -5.08626778317832  5.73743752615261  1.43063906780678
 6 -7.89838642684268  6.28608832653265  0.32038709300930
 6 -8.85942346514651  6.72263155375538 -0.56534515081508
 7 -9.16710010931093  0.90211868646865 -0.47824479987999
 6 -9.76713849124913  2.19059236093609 -0.65883469416942
 6 -11.21533777177718  2.00569420892089 -0.97021109240924
 6 -11.44057949844984  0.67070111151115 -1.07085714731473
 6 -10.19320602900290  0.01975492609261 -0.89916339673967
 6 -12.16815101230123  3.15850841994199 -1.12890731983198
 6 -12.68175827322732 -0.03573267166717 -1.53274550955096
 6 -12.66459092869287 -0.33152779917992 -2.99134631903190
 7 -7.63006613231323 -1.25426974147415 -0.24433077817782
 6 -8.69176516201620 -2.06359297349735 -0.62683961236124
 6 -8.26318992619262 -3.41239584108411 -0.70967470597060
 6 -6.94804683288329 -3.42793867816782 -0.24853695899590
 6 -6.52766130573057 -2.04547634673467  0.04025617971797
 6 -9.17020100520052 -4.58600200020002 -0.95466797359736
 6 -5.82132825432543 -4.35973120002000  0.02247491709171
 8 -5.71337319341934 -5.48450495919592 -0.00764384398440
 6 -4.67581318591859 -3.43197030973097  0.48035328492849
 6 -4.01130354515452 -3.92089578477848  1.77648953425343
 8 -4.38139075077508 -3.43714467036704  2.82801326532653
 8 -3.15244776047605 -4.91210149144915  1.49457520052005
 6 -2.52242577287729 -5.52027293259326  2.66311278157816
 6  2.57736778017802 -1.28498718931893 -1.16974117941794
 6  4.03051716151615 -1.10407503090309 -0.63918053125313
 6  4.90606290649065 -0.24394534693469 -1.09889529412941
 6  4.69042955315532  0.76551039273927 -2.27038957795780
 6  6.20096380848085 -0.01332870457046 -0.30682214531453
 6  7.47608183538354 -0.33338267136714 -1.10728808220822
 6  8.73973745074507 -0.19116432333233 -0.24873975387539
 6  10.08121997669767 -0.74336881948195 -0.94096507640764
 6  9.97832162556256 -2.20478564436444 -1.35634974967497
 6  11.31044171877188 -0.35432510311031 -0.09882235023502
 6  12.74922350695070 -0.51544002240224 -0.84653253045305
 6  13.82828923612361 -0.03311601470147  0.19447581018102
 6  15.31132295339534 -0.04472750855086 -0.39758359415942
 6  15.75114244184418 -1.42547670957096 -0.74954468996900
 6  16.24717731493149  0.65615652685269  0.58338160256026
 6  17.64697153585358  0.80641637553755  0.07567305950595
 6  18.61491134213421  1.69093771277128  0.86486517941794
 6  20.02739263516352  1.79579520482048  0.28354111451145
 6  19.97999892939294  2.44733416461646 -1.09357576657666
 6  20.92571303690369  2.64008774487449  1.23618001870187
 1 -3.81348951655165  3.25449183348335  1.83455569386939
 1 -9.98830641564156  4.22991242774278 -0.48886756065607
 1 -10.84418275817582 -2.02891890189019 -1.28854874877488
 1 -2.89859591109111 -1.36054641874187  2.23131492619262
 1 -2.12533310091009  1.31550150125013  1.39449894829483
 1 -2.03128064396440  0.44734215591559  3.65336206150615
 1 -2.95758905920592  2.03541818541854  3.70760986218622
 1 -3.54587516691669  0.16578728102810  3.87949679537954
 1 -2.34414386828683 -1.64144802250225 -0.37589444574457
 1 -2.35321125972597 -0.00447297299730 -0.56630529122912
 1 -0.41220554395440  0.21915604150415  1.05957198769877
 1 -0.58411142404240 -1.62760194019402  1.31024814381438
 1 -4.46523118051805  6.09403754135414  0.55767890589059
 1 -5.61840305910591  6.78973409210921  1.91421701870187
 1 -4.35256703370337  5.19880973037304  2.26870793139314
 1 -7.57649774867487  6.99076611031103  1.00248155445545
 1 -9.00120551335134  6.03185117061706 -1.53146254225422
 1 -9.07710198939894  7.66594187948795 -0.60995069916992
 1 -12.04785933333333  4.06244674317432 -0.27641003960396
 1 -11.87869679197920  3.64005897059706 -2.17774499199920
 1 -13.19073647364737  2.74150976917692 -1.08032107900790
 1 -12.79984481038104 -1.06241636793679 -1.06451102490249
 1 -13.37480822312231  0.67690735213521 -1.34345802310231
 1 -12.91423593859386  0.54545156025603 -3.60903974737474
 1 -11.59858606630663 -0.69084848124813 -3.24309510621062
 1 -13.38362643584358 -1.18786614471447 -3.30559441814181
 1 -9.62409995679568 -5.01033312521252  0.35354955105511
 1 -10.16788869906991 -4.41187820132013 -1.75687620822082
 1 -8.34310601610161 -5.46564734463446 -1.31456611011101
 1 -3.85745147244724 -3.54948229952995 -0.34321738153815
 1 -1.73847071507151 -6.13537014071407  2.15930163416342
 1 -2.24200077177718 -4.90327006600660  3.61624607490749
 1 -3.41594264966497 -6.06600360036003  3.15878739893989
 1  2.50876266806681 -2.35299204030403 -1.46359349264926
 1  2.24168601150115 -0.69219065706571 -2.03742136143614
 1  4.14152558845885 -1.75382345284528  0.44044308870887
 1  5.01517678217822  1.75583328112811 -1.96746933433343
 1  5.40772773657366  0.51467742294229 -2.95329839693969
 1  3.59730621582158  0.65511831773177 -2.68337369426943
 1  6.38035813291329  1.04782792669267 -0.00273547394740
 1  6.06267409320932 -0.78634421972197  0.71106080018002
 1  7.37831848494850 -1.50774481988199 -1.38065291139114
 1  7.56067581868187  0.19106461106111 -2.07346620432043
 1  8.93874831643164  1.08570642214221 -0.20079882138214
 1  8.47891062096210 -0.59698678567857  0.66985983888389
 1  10.40719758505850 -0.30205000670067 -2.00105082798280
 1  8.76804399199920 -2.28600726352635 -1.98708793429343
 1  10.76260312131213 -2.77310898729873 -1.72378812441244
 1  10.10681912371237 -2.78246012351235 -0.37998151965197
 1  11.33946813691369  0.74388201200120  0.28116157875788
 1  11.50687825722572 -0.86435492099210  0.89703022472247
 1  13.01152766076608 -1.39946382538254 -0.98040148294829
 1  12.68122843944394  0.19154188128813 -1.75368868736874
 1  13.76929796529653  0.92351274707471  0.42763793789379
 1  13.51448628412841 -0.62272522652265  1.17410698689869
 1  14.94215571297130  0.30733393319332 -1.33116976677668
 1  14.85476087108711 -2.00829911371137 -1.28138215871587
 1  16.72026876317632 -1.46331217071707 -1.25838723132313
 1  15.87069978757876 -2.00281990059006  0.18957165846585
 1  15.88254544614461  1.55399848854886  0.82439628322832
 1  16.00500682338234 -0.04852104300430  1.54960695749575
 1  17.98864494179418 -0.31356983558356  0.05404071937194
 1  17.67582030743074  1.00165312841284 -1.06169347394739
 1  18.18927063296330  2.79409813751375  1.08100459545955
 1  18.40811382558256  0.99495833263326  1.92222347794779
 1  20.64511274107411  0.83178391209121  0.18753169026903
 1  19.82834553175318  3.48514064616462 -1.23788876307631
 1  20.96910542774277  2.81651725552555 -1.63119844324432
 1  19.63746198199820  1.86122615921592 -1.85267044824483
 1  20.88435344844484  2.29523907420742  2.11502543034304
 1  22.04029787148715  2.82004012061206  0.98031993179318
 1  20.50922858555856  3.74200387088709  1.14781738613861
 1 -6.82461624412441  1.78130240224022  0.36243950075007
 1 -7.78352971957196 -0.30212508810881 -0.30441376157616

