%nproc=4
%Mem=2GB
# td=(NStates=1) B3LYP/SVP 

TD

0 1
 6 -5.12410526102610 -1.90081988798880  0.55073369846985
 6 -4.63139929812981  2.80534076307631  1.39116579267927
 6 -9.30780002360236  3.37339353565357 -0.20114473067307
 6 -9.76772862396240 -1.38366996159616 -0.94365051045105
 7 -5.19028577657766  0.52041850295030  0.95685314331433
 6 -4.58437653525353 -0.75710469406941  0.93287937353735
 6 -3.05592734643464 -0.62383286678668  1.24120737013701
 6 -3.13486763916392  0.76819193679368  1.88295280068007
 6 -4.35213017111711  1.44416146154615  1.35143705510551
 6 -3.06964346224622  0.85491379237924  3.40597045504550
 6 -2.09076441924192 -0.67593260736074  0.06360296799680
 6 -0.67252564066407 -0.86577543234323  0.52051981708171
 6  0.34726923282328 -1.12428934623462 -0.61489734693469
 8  0.04628436433643 -1.74869455935594 -1.68964141874187
 8  1.62740781598160 -0.94448086658666 -0.22653764576458
 7 -7.00984416541654  2.79154389628963  0.51284187818782
 6 -5.92664684568457  3.44011074357436  1.12090621602160
 6 -6.25710698319832  4.78081616541654  1.18886043774377
 6 -7.47383044754475  4.98664998799880  0.67024225432543
 6 -8.04963041344135  3.67064566346635  0.27066840314031
 6 -5.28031718811881  5.84436821922192  1.65287129102910
 6 -8.08313490169017  6.31337105480548  0.44242929722972
 6 -8.99581710451045  6.74471376197620 -0.42679129542954
 7 -9.20681408070807  0.92569104370437 -0.44806178157816
 6 -9.86005778317832  2.07204050575058 -0.49463827452745
 6 -11.28529476747675  1.92418605810581 -0.99715378667867
 6 -11.36402184268427  0.55824986638664 -1.27404746634663
 6 -10.09321603000300 -0.07457450685069 -0.97718119851985
 6 -12.32345654285429  2.97841041014101 -1.24278870797080
 6 -12.54472456985699 -0.17771687008701 -1.72803503850385
 6 -12.58481295089509 -0.55307995439544 -3.21255844024402
 7 -7.53700682638264 -1.20046436093609 -0.24159050415041
 6 -8.56271225672567 -1.99355596979698 -0.72285921432143
 6 -8.13220682788279 -3.37931253275328 -0.77836157465747
 6 -6.85873790199020 -3.38418430273027 -0.19660176547655
 6 -6.52084062366237 -2.01045284438444  0.09405155925593
 6 -9.01722570767077 -4.41820522052205 -1.09493200000000
 6 -5.72034815631563 -4.28209343624362 -0.05846317671767
 8 -5.67831968806881 -5.49445595429543 -0.08687176677668
 6 -4.54754035863586 -3.24695180788079  0.51424667426743
 6 -3.92240465526553 -3.74054774997500  1.69566145144514
 8 -4.16479909160916 -3.19768072397240  2.85302576657666
 8 -3.10556307200720 -4.76601688298830  1.57276301930193
 6 -2.66825035533553 -5.45853675897590  2.72169864016402
 6  2.69082912631263 -1.27758644924492 -1.11632583788379
 6  3.97178128792879 -0.96849147254725 -0.62686930013001
 6  4.90837313751375 -0.19303025542554 -1.25263066766677
 6  4.84905541574157  0.35924976667667 -2.64831737073707
 6  6.23092680478048  0.07699032733273 -0.45029649274928
 6  7.56236046324632 -0.47433676677668 -0.96578393179318
 6  8.73052652965297 -0.12789799669967 -0.13450833073307
 6  10.06551840654065 -0.81633611621162 -0.73296427632763
 6  10.05617941134114 -2.28654382018202 -0.87532164686469
 6  11.29891056565656 -0.24750442104210  0.04815234723472
 6  12.64670325492549 -0.49806828522852 -0.73605148234823
 6  13.83488989618962 -0.02225492859286  0.15997235983598
 6  15.23608542964296 -0.10322335813581 -0.50837467326733
 6  15.62737006460646 -1.56747090899090 -0.65805554105411
 6  16.33314591179118  0.63491440264026  0.39234249864987
 6  17.70091693039304  0.79333506740674 -0.20501500930093
 6  18.62112196319632  1.66758537753775  0.76493518641864
 6  20.08665856175617  1.82281790709071  0.24317707810781
 6  20.29763069256926  2.23461289248925 -1.30654706370637
 6  20.94030449604961  2.58862259835984  1.21994839553955
 1 -3.95658382598260  3.66919330363036  1.88132037033703
 1 -10.03577116211621  4.22993242974297 -0.19512818671867
 1 -10.62946128602860 -2.03477948794879 -1.21023091699170
 1 -2.63545959745975 -1.28529889398940  1.91777357205721
 1 -2.21489205680568  1.18555850695070  1.56283578197820
 1 -2.12850036593659  0.15355277697770  3.68833555885589
 1 -3.04907820812081  1.89052369596960  3.69620872207221
 1 -3.91496207560756  0.33920462276228  3.88767761346135
 1 -2.51820127402740 -1.71137501520152 -0.22246910321032
 1 -2.21878781738174  0.18164563886389 -0.55867452815282
 1 -0.44574889828983  0.11803592949295  0.96996302680268
 1 -0.60385339823982 -1.69412859285929  1.12840995999600
 1 -4.55305996339634  5.81101923952395  0.92216535453545
 1 -5.71626284508451  6.89298441714171  1.61568716571657
 1 -4.83107488448845  5.55970581998200  2.67225828642864
 1 -7.48315841474147  7.13252028572857  1.14358566486649
 1 -9.44117951075108  6.33438142364236 -1.22245164116412
 1 -8.98166244544454  7.97929321462146 -0.60486019011901
 1 -12.80359490689069  3.32004250275028 -0.11557395599560
 1 -11.77518644094410  3.60362532723272 -1.80646786428643
 1 -13.23923132313231  2.66388200640064 -1.69064211111111
 1 -12.68436326222622 -1.13690381668167 -1.17252182598260
 1 -13.47432817511751  0.28440810221022 -1.56295997329733
 1 -12.22012652765277  0.42131914701470 -3.94408325172517
 1 -11.94717092479248 -1.38410780718072 -3.35813661036104
 1 -13.64919299249925 -0.85625298339834 -3.60809466816682
 1 -9.71520906770677 -4.56976906880688 -0.28968477237724
 1 -9.39255116531653 -4.34156116961696 -2.10819133973397
 1 -8.35157686318632 -5.29224000390039 -1.21430608410841
 1 -3.54815054235423 -3.19117646894689 -0.19186224602460
 1 -2.18333520152015 -6.26233283698370  2.27403310731073
 1 -2.05509208090809 -4.92429216821682  3.21430588088809
 1 -3.44556561196120 -5.75344234423442  3.36950847104711
 1  2.54380617241724 -2.42823956505651 -1.24031116441644
 1  2.77636947984799 -0.76529796779678 -2.24258187748775
 1  4.15117655355536 -1.51427949844984  0.48358740314031
 1  4.85679094359436  1.52492018981898 -2.63341592899290
 1  5.80341730553055  0.02526848204821 -3.27735080218022
 1  3.78853533873387 -0.13373056715671 -2.99737509440944
 1  6.38616871397140  1.26271941584158 -0.19926512691269
 1  6.10005783158316 -0.12812839813981  0.58900859495950
 1  7.31330198329833 -1.58641268666867 -1.08621346744674
 1  7.70438018911891 -0.08277277267727 -2.09450830853085
 1  8.78008244984498  0.89280713221322 -0.04660340184018
 1  8.76711944184419 -0.25854294129413  0.95539839273927
 1  10.05608247354735 -0.31250105180518 -1.76552727562756
 1  9.29392658025803 -2.84666332913291 -1.41438066356636
 1  10.93385024602460 -2.78377005340534 -1.39460520612061
 1  9.99415785758576 -2.54153603110311  0.19824630313031
 1  11.09804399449945  0.82605022882288  0.11072453505351
 1  11.23630119951995 -0.72373085858586  1.14928545024502
 1  12.80272678067807 -1.60915479447945 -0.74423786658666
 1  12.68820913751375  0.00115284238424 -1.58536185468547
 1  13.74115515101510  0.94080447624763  0.67022219631963
 1  14.02242707820782 -0.79651260526053  1.11549112531253
 1  15.30996249364937  0.47315051485149 -1.39836648644865
 1  14.84133952895290 -1.99413769756976 -1.46157017751775
 1  16.67302403870387 -1.60984682418242 -1.00113150575057
 1  15.52478519611961 -2.25636525512551  0.43253595489549
 1  15.79710690229023  1.49094218291829  0.66392023562356
 1  16.49868619131913  0.10711452055205  1.34603660046005
 1  18.28184426172617 -0.25183366196620 -0.37144182888289
 1  17.70861358675868  1.35249821292129 -1.18844614921492
 1  18.31195290119012  2.71354008170817  0.82913940894089
 1  18.76519953415342  1.23645248204821  1.74569582518252
 1  20.47814604440444  0.73333406710671  0.41487442454246
 1  19.68165086228623  3.14208634073407 -1.18256323052305
 1  21.35214373157315  2.32632823662366 -1.46127145054505
 1  19.84213244904490  1.56108614521452 -2.02835801700170
 1  20.99238425152515  2.15382493279328  2.28789271707171
 1  22.02449629132913  2.58925704230423  0.91503340314031
 1  20.70553821652165  3.71256092659266  1.62700530493049
 1 -6.93676745924592  1.80468474047405  0.21879513631363
 1 -7.63645501210121 -0.15179005460546 -0.35156847704770

