%nproc=4
%Mem=2GB
# td=(NStates=1) B3LYP/SVP 

TD

0 1
 6 -5.06979983048305 -1.92212201820182  0.36334495959596
 6 -4.69706586478648  2.79855008400840  1.46651332743274
 6 -9.27988723232323  3.34333052935294 -0.19355397159716
 6 -9.84142599369937 -1.43415501010101 -0.85149129452945
 7 -5.10809755775578  0.47575403650365  0.84083154115412
 6 -4.48146624422442 -0.74077306090609  0.80706679227923
 6 -3.04688644234423 -0.57017750125013  1.32168541794179
 6 -3.09436358875888  0.86977209480948  1.93733823922392
 6 -4.35816077417742  1.41219826522652  1.40368227962796
 6 -2.89290578847885  0.91818011901190  3.49477933593359
 6 -2.14724006680668 -0.62461747584758  0.11049765746575
 6 -0.60467885598560 -0.74384323912391  0.54679244434443
 6  0.37165167106711 -1.10655757305731 -0.65630148734873
 8  0.06906664256426 -1.40693038293829 -1.75627808240824
 8  1.68895397059706 -0.93484990349035 -0.16229122112211
 7 -6.98408158915892  2.89670441234123  0.60049064306431
 6 -5.86355053605361  3.52666939943994  1.07549167456746
 6 -6.23628490099010  4.87133521732173  1.08916046774677
 6 -7.53222628712871  5.03810513351335  0.65688091819182
 6 -8.05285073547355  3.70575917481748  0.25901723802380
 6 -5.17288644504450  5.84641842424242  1.52271827572757
 6 -8.24549113731373  6.31509122682268  0.49017407170717
 6 -9.12432995579558  6.67396668726873 -0.43555217151715
 7 -9.26729012831283  0.86345482008201 -0.33921089648965
 6 -9.88360013741374  2.02131543324332 -0.51435024572457
 6 -11.27386362436244  1.95758939843984 -0.96372044334433
 6 -11.48769420992099  0.58133217461746 -1.08995905750575
 6 -10.17200390879088 -0.08747579697970 -0.71704518491849
 6 -12.30083428062806  2.91884445354535 -1.26076050515052
 6 -12.58394849224923 -0.23119221762176 -1.70686292129213
 6 -12.60188465806581 -0.38273291969197 -3.29686687108711
 7 -7.41963508920892 -1.23454776927693 -0.29032537763776
 6 -8.53812979847985 -2.02161877607761 -0.64202113051305
 6 -8.12365597279728 -3.47452205370537 -0.74065780428043
 6 -6.84883691189119 -3.39188507280728 -0.28667077237724
 6 -6.40904944454445 -1.96329812891289 -0.12804064996500
 6 -8.98518250335033 -4.61253465346535 -1.14022652945295
 6 -5.65215133663366 -4.33347857475748 -0.04919224962496
 8 -5.59607146324633 -5.48568507720772 -0.01449452905291
 6 -4.55952155675568 -3.35013212591259  0.41296654625463
 6 -3.96038845364536 -3.82007570277028  1.77214910021002
 8 -4.23094570627063 -3.25793674957496  2.81310177417742
 8 -3.11976449214921 -4.87294757605761  1.61479722272227
 6 -2.80547407770777 -5.47149805510551  2.77780425072507
 6  2.70977102050205 -1.36963565416542 -1.09477368266827
 6  4.03863797359736 -0.75838046144614 -0.65956256945695
 6  4.91937423762376 -0.00587153955396 -1.29358476307631
 6  4.72639314951495  0.40467430913091 -2.76472901190119
 6  6.24449816191619  0.27760038833883 -0.57047851095110
 6  7.51870609780978 -0.49739907300730 -1.19557691109111
 6  8.82173565056506 -0.14265947284728 -0.39219409930993
 6  10.15699755445545 -0.68653313591359 -0.89489046894689
 6  10.10337413081308 -2.31389655545555 -0.83823793849385
 6  11.32504317891789 -0.17296696729673 -0.11907437543754
 6  12.72262084668467 -0.59054753315331 -0.57068494569457
 6  13.89304571177118 -0.00997370047005  0.12524888748875
 6  15.25743756485648 -0.33179621542154 -0.40153398919892
 6  15.65445277287729 -1.87701186308631 -0.26709644514451
 6  16.26360895809581  0.53383429462946  0.49329259365937
 6  17.70296713541354  0.56474220812081 -0.01514602240224
 6  18.59079893089309  1.58992761176118  0.74911360426043
 6  20.04444434033403  1.78856448174817  0.14416717711771
 6  20.01211214071407  2.64840427162716 -1.15645205420542
 6  21.00794125972597  2.43254699079908  1.18105450615061
 1 -3.89392756035604  3.54966135043504  1.92625486378638
 1 -10.11293887888789  4.21934137063706 -0.29126780068007
 1 -10.75424376427643 -2.22767877787779 -0.83839373327333
 1 -2.51925797729773 -1.23548391249125  2.05166696139614
 1 -2.12911347894789  1.53080303140314  1.58785828422842
 1 -2.04979249514951  0.53913133483348  3.84417114241424
 1 -3.09795309560956  1.95836047964796  3.79120822202220
 1 -3.61572215161516  0.26027672997300  3.91298014371437
 1 -2.40222967686769 -1.42388626632663 -0.57447430373037
 1 -2.19495543414341  0.27288476277628 -0.50236889758976
 1 -0.27920224362436  0.02794692059206  1.05683171367137
 1 -0.32999601250125 -1.62402158215822  1.22361948094809
 1 -4.48253291069107  5.95840397799780  0.65102824082408
 1 -5.79567078587859  6.77663278197820  1.60869646664666
 1 -4.78303008000800  5.48033788318832  2.43996505710571
 1 -7.87014711361136  7.10567760146014  1.17761906820682
 1 -9.52036742954295  6.01179916541654 -1.24691408740874
 1 -9.73281756095610  7.76807209250925 -0.66074577867787
 1 -12.22941748914891  3.75546604510451 -0.43041544014401
 1 -11.97045596789679  3.39162412711271 -2.27233445094509
 1 -13.29912731273127  2.57880349854985 -1.39062210911091
 1 -12.53362818871887 -1.18202832913291 -1.27502207600760
 1 -13.62082282458246  0.03505316671667 -1.09940361766177
 1 -12.46439095409541  0.60456747184718 -3.74328317171717
 1 -11.77483369106911 -1.11492088848885 -3.61461225792579
 1 -13.61410948414842 -0.78550590869087 -3.57494135283528
 1 -9.74105165196520 -4.75996808870887 -0.47059286318632
 1 -9.53181509170917 -4.40058707220722 -2.07826834743474
 1 -8.21817352285229 -5.35907668756876 -1.13808846234623
 1 -3.61853758105811 -3.55250260156016 -0.25615867566757
 1 -2.34426129412941 -6.47503410711071  2.63387909190919
 1 -2.17488406010601 -4.92534227322732  3.43165761606161
 1 -3.60552160756076 -5.87868486848685  3.46963848404841
 1  2.80477226902690 -2.41547828892889 -1.08821595489549
 1  2.43485532843284 -1.05224666266627 -2.18597621692169
 1  4.13173460936094 -1.00955902640264  0.51368041244124
 1  5.22813807830783  1.41185888368837 -2.96739932733273
 1  4.82000896469647 -0.32233627842784 -3.86466953405341
 1  3.54047053225323  0.54541734763476 -2.93407876477648
 1  6.22492258935894  1.36270941484148 -0.26433163356336
 1  6.08945677147715 -0.03558914421442  0.46957665176518
 1  7.41222187528753 -1.60500454585459 -1.19706455255526
 1  7.58364811591159 -0.29466396179618 -2.10958981668167
 1  8.85367980958096  0.92011986348635 -0.47908665016502
 1  8.76763949384939 -0.48836592359236  0.66089894279428
 1  10.18534539983998 -0.34191399309931 -1.86016673957396
 1  9.42552974057406 -2.80506916971697 -1.61416064156416
 1  11.17194405540554 -2.51775345174517 -1.12720846644664
 1  9.81929037083708 -2.71347322482248  0.11192767126713
 1  10.94886907700770  0.96114373817382 -0.17149368676868
 1  11.22547011641164 -0.61892037753775  0.90989151085109
 1  12.84013052105210 -1.66726060506051 -0.43899734253425
 1  12.79362967956796 -0.28187546044604 -1.76416973547355
 1  13.76308734423442  1.03000339613961  0.23645881998200
 1  13.72931776727673 -0.34872782678268  1.15800537673767
 1  15.33355485288529 -0.13101990219022 -1.40841749154916
 1  14.89133452845285 -2.50364864866487 -0.72850687118712
 1  16.52568930523053 -2.08864470397040 -0.88847023962396
 1  15.64157687528753 -2.43356297489749  0.69688238953895
 1  15.79553674527453  1.56330941964196  0.47889173277328
 1  16.34485080778078  0.23450725982598  1.59669166596660
 1  17.94175025232523 -0.46415489408941  0.03251856715672
 1  17.79797252265227  0.69612257535754 -1.12735003960396
 1  18.17518922482248  2.50143887158716  0.68798529352935
 1  18.71071408560856  1.50674951175118  1.71644289988999
 1  20.47606583638364  0.75790652435244 -0.26406346924692
 1  19.71005370257026  3.69213134523452 -0.86592156635664
 1  20.95482399959996  2.71316692049205 -1.60172549594960
 1  19.18849708550855  2.18645868246825 -1.66820200140014
 1  21.06395140824083  1.98398794909491  2.15482941074107
 1  22.06941078277828  2.63577169376938  0.78292019181918
 1  20.47813547624763  3.30428009850985  1.37834043844384
 1 -6.92497628012801  1.89143341534153  0.24754801160116
 1 -7.45502686928693 -0.30145502110211 -0.06229955015502

