%nproc=4
%Mem=2GB
# td=(NStates=1) B3LYP/SVP 

TD

0 1
 6 -5.16054890539054 -1.88348815481548  0.36219484458446
 6 -4.79334549274927  2.69989021802180  1.34190086618662
 6 -9.43983322692269  3.26511270757076 -0.25179979617962
 6 -9.86340819191919 -1.49168076267627 -0.84110025542554
 7 -5.24516126412641  0.39113557465747  0.67648510651065
 6 -4.46575467306731 -0.77463644724472  0.79437552315232
 6 -3.11231298499850 -0.54843532703270  1.29803305270527
 6 -3.06381053345335  0.91899701730173  1.84857936333633
 6 -4.39145410351035  1.44594163956396  1.21751366276628
 6 -2.90413691159116  1.03025132613261  3.43557341534153
 6 -2.06930227302730 -0.88445345944594  0.23230983868387
 6 -0.63423181128113 -0.64578343314331  0.55566333143314
 6  0.40331483738374 -0.89613653095310 -0.53677953515352
 8  0.16202593849385 -1.27457714761476 -1.61086354095410
 8  1.63411848704870 -0.55007142564256 -0.09892488448845
 7 -7.09648282928293  2.78748349024902  0.45389598359836
 6 -6.05379956095610  3.32478921142114  1.03549767516752
 6 -6.30715198769877  4.79686777057706  0.99100065176518
 6 -7.61675473997400  5.00172149514952  0.50663589368937
 6 -8.10037548794880  3.61166976587659  0.14581591789179
 6 -5.33106226262626  5.80853463586359  1.43817982188219
 6 -8.30369695789579  6.20933065076508  0.40921597589759
 6 -9.17115463826383  6.62968225882588 -0.49433805010501
 7 -9.27980137943794  0.94148262286229 -0.54230120552055
 6 -9.99016079347935  2.02913621532153 -0.52936174687469
 6 -11.39030526852685  1.80100373987399 -0.81440551185119
 6 -11.55707114761476  0.38755279667967 -0.98007806940694
 6 -10.12611932033203 -0.10557760716072 -0.81199467986799
 6 -12.36479067626763  2.90389295839584 -1.13768819791979
 6 -12.80579067646765 -0.33631272967297 -1.56308854385439
 6 -12.76705117471747 -0.63496814321432 -3.11651883628363
 7 -7.47337046274628 -1.29184349884988 -0.18979532463246
 6 -8.68122410791079 -2.07953456765677 -0.54420134853485
 6 -8.12185579277928 -3.47070167166717 -0.61075481398140
 6 -6.76632866106611 -3.41564744904490 -0.16005811111111
 6 -6.48923746334633 -2.03084488358836  0.01674382848285
 6 -8.88763274837484 -4.66825022502250 -1.05068757555756
 6 -5.66692281378138 -4.27221244814481 -0.08265559595960
 8 -5.53234509060906 -5.47552406110611 -0.29221230083008
 6 -4.48905451005100 -3.28177529022902  0.38904415401540
 6 -3.83048546334633 -3.76275997119712  1.65968785408541
 8 -4.08856146784678 -3.33648460436044  2.75763622762276
 8 -3.00101261696170 -4.82135241654165  1.40808655165517
 6 -2.36829035933593 -5.33995490079008  2.44998146844684
 6  2.72489253265327 -0.84880357095710 -1.13124733003300
 6  3.98560267006701 -0.49563418681868 -0.48131474467447
 6  4.95053735393539  0.12724177177718 -1.18092349694970
 6  4.85660617081708  0.76138998069807 -2.50790332933293
 6  6.22580629272927  0.33360598889889 -0.35943740684068
 6  7.50653488068807 -0.26732606570657 -0.96095344874487
 6  8.75876935393539 -0.00393560046005 -0.14247912781278
 6  10.08433028772877 -0.62570705330533 -0.76736771667167
 6  10.01270506390639 -2.11532669846985 -0.80987510221022
 6  11.25218589318932 -0.11375104570457  0.07174470647065
 6  12.73893247784778 -0.53174165256526 -0.54360223742374
 6  13.86092249944994  0.12455975287529  0.27292365496550
 6  15.26151797289729 -0.18044107990799 -0.28198203400340
 6  15.51048837643764 -1.66316047794779 -0.53778351385139
 6  16.40921351855186  0.47184809600960  0.59398266266627
 6  17.72225906460646  0.54484021792179 -0.12876738453845
 6  18.72062191319132  1.40201882088209  0.68720741364136
 6  20.21314121002100  1.27678330363036  0.12017477787779
 6  20.24668559805981  1.94023345454545 -1.32647905690569
 6  21.27026749234923  1.96380011611161  1.00069647034703
 1 -4.04068223582358  3.50474685898590  1.48699093739374
 1 -9.98292587758776  4.09973941044104 -0.28000667456746
 1 -10.78275661556156 -2.19190520052005 -1.15403529742974
 1 -3.01868792029203 -1.16308667276728  2.18969076377638
 1 -2.02785335293529  1.26117606870687  1.26609610801080
 1 -2.02826034193419  0.68322574427443  3.80118684398440
 1 -3.04607790809081  2.00094473807381  3.66372547374737
 1 -3.65511609100910  0.35649635193519  3.80945979167917
 1 -2.27375682958296 -2.14428830653065 -0.00565742204220
 1 -2.27821375997600 -0.45116764246425 -0.89328798949895
 1 -0.39120344374437  0.39040316621662  0.83570960146015
 1 -0.14554756765677 -1.29827900790079  1.53937105610561
 1 -4.47860251765176  5.62783092069207  0.80018315631563
 1 -5.79978119691969  6.86087120582058  1.39403500050005
 1 -5.04104588158816  5.63500334973497  2.45953701430143
 1 -7.95395549444945  6.87963499719972  1.24424573087309
 1 -9.41291668446845  6.05989397489749 -1.38149754575458
 1 -9.45316959615961  7.77336262156216 -0.33690339443944
 1 -12.55736028342834  3.66385688418842 -0.33545594419442
 1 -11.91770069236924  3.36722168686869 -2.11301851935193
 1 -13.27578497849785  2.46816243444344 -1.52086513341334
 1 -12.70966579247925 -1.25988611491149 -1.02173674747475
 1 -13.80313105540554  0.21715137653765 -1.32943662096210
 1 -12.48935345034503  0.33766078117812 -3.74779362276228
 1 -11.88428463616362 -1.38361775817582 -3.27794859155916
 1 -13.82135020822082 -1.01147850595059 -3.44555841454145
 1 -9.75810335713571 -4.56265835773577 -0.30330613451345
 1 -9.14516642684268 -4.78891590509051 -2.09293981458146
 1 -8.45646735223522 -5.64534531443144 -0.80356501000100
 1 -3.90399612691269 -3.26503385468547 -0.53420648044805
 1 -1.78121498949895 -6.31770837453745  2.22478818281828
 1 -1.46214278597860 -4.56659639863986  2.84174862516252
 1 -3.13210426582658 -5.73370037003700  3.40618213841384
 1  2.78312010381038 -1.85907264836484 -1.41912904620462
 1  2.39400124302430 -0.11609304730473 -1.99616723602360
 1  4.18052948884889 -0.95356342684268  0.58706775117512
 1  5.32206747124713  1.77271496929693 -2.48565115251525
 1  5.56107307110711  0.40616657185719 -3.15968903600360
 1  3.73018950415041  0.85907871377138 -2.84407976487649
 1  6.38081817891789  1.47852099599960 -0.13275847624762
 1  5.97247507330733 -0.00835642094209  0.47598729282928
 1  7.29147980108011 -1.27237128252825 -0.86439128522852
 1  7.46463621472147  0.15780128472847 -1.91229008670867
 1  8.70650509210921  1.14842269376938 -0.02326106760676
 1  8.70463319321932 -0.47069415641564  0.98950180308031
 1  10.22275914121412 -0.20711051275128 -1.75539626252625
 1  9.16747393499350 -2.68263692649265 -1.28079730523052
 1  10.82217907890789 -2.60876255265526 -1.13313905950595
 1  9.77911635343534 -2.70569244674467  0.16268274677468
 1  11.20747493759376  0.98613623742374 -0.01991852925293
 1  11.22917048644864 -0.67014550005000  1.05987650935094
 1  12.58302481048105 -1.57891177017702 -0.49250269306931
 1  12.64093441004100 -0.21572884578458 -1.61763508200820
 1  13.77040807630763  1.28063845964596  0.40682585668567
 1  13.78909374487449 -0.36474942894289  1.32264184038404
 1  15.19083058045805  0.20778397819782 -1.51264791459146
 1  14.64712010701070 -2.21257954175418 -0.85758977947795
 1  16.37795453175318 -1.69087492699270 -1.19032042464246
 1  15.85809852745275 -2.35659527812781  0.42023472477248
 1  16.09796698829883  1.48999208790879  0.72976682028203
 1  16.41855817851785  0.02112592169217  1.41933393019302
 1  18.03173925122512 -0.50089856845685 -0.14654933963396
 1  17.69932265766577  0.90630359345935 -1.11679898449845
 1  18.21174288018802  2.44330305800580  0.71325782078208
 1  19.03030604480448  0.80517935473547  1.61024227982798
 1  20.45847407720772  0.20306103980398  0.01533447054706
 1  19.65034773197320  2.97368950105011 -1.29809478367837
 1  21.24657317451745  2.05698130193019 -1.74328965236524
 1  19.59189742554256  1.25059509610961 -1.85814099529953
 1  21.17666267936794  1.24289383968397  1.86675060286029
 1  22.23487732943294  2.05921403800380  0.44612651245125
 1  21.15327298999900  2.97791746224622  1.07147975237524
 1 -7.04867865036504  1.67333160516052  0.23239649644965
 1 -7.62882424902490 -0.26555143074307 -0.16540986118612

