%nproc=4
%Mem=2GB
# td=(NStates=1) B3LYP/SVP 

TD

0 1
 6 -5.11384423492349 -1.92630243624362  0.55102372747275
 6 -4.70629678787879  2.71840206920692  1.30266694279428
 6 -9.47072631623162  3.40516671297130 -0.11745636183618
 6 -9.88006985808581 -1.49244083868387 -0.87352349774977
 7 -5.15545229322932  0.41837829892989  0.60959841784178
 6 -4.43641173877388 -0.77549653325333  0.75281136673667
 6 -3.01705345904590 -0.59115959945995  1.18600184958496
 6 -3.08471262366237  0.88417353495350  1.72359686508651
 6 -4.38301325942594  1.40460750615062  1.18165007640764
 6 -2.81121761966197  1.10902920392039  3.20371022902290
 6 -2.01663700650065 -0.85789080318032  0.12507911561156
 6 -0.54476286438644 -0.69946880168017  0.52695046014601
 6  0.47370187608761 -1.01474839213921 -0.52357821502150
 8  0.14379411531153 -1.85601529142914 -1.52142459705971
 8  1.61996707190719 -0.53234965346535 -0.27876286828683
 7 -7.08910209120912  2.75046978887889  0.35205579957996
 6 -5.92974715571557  3.36890362286229  0.83719784518452
 6 -6.14319559205921  4.76548463226323  0.87264881658166
 6 -7.59872293679368  4.96098742174217  0.48526375647565
 6 -8.11596704710471  3.65929452835284  0.14167550385038
 6 -5.17230638703870  5.90340412281228  1.18876488038804
 6 -8.24135072327233  6.25133485118512  0.43123817811781
 6 -9.16233375617562  6.55349464006401 -0.53727234353435
 7 -9.30310370967097  0.86810528512851 -0.46703367876788
 6 -9.90120189758976  2.06402970467047 -0.43189199989999
 6 -11.35572181018102  1.84900854035404 -0.79758382968297
 6 -11.58076351685169  0.49207324872487 -0.94658472007201
 6 -10.17180388878888 -0.11940899029903 -0.90016349674967
 6 -12.42985718291829  2.91470403950395 -0.91512594169417
 6 -12.79409950735073 -0.29359845824582 -1.31206344134413
 6 -12.92021649124912 -0.79162380878088 -2.89023620802080
 7 -7.55441856755676 -1.17665197969797 -0.10925727082708
 6 -8.58081406690669 -2.03083969816982 -0.53366029442944
 6 -8.23562716991699 -3.33418802030203 -0.56169990849085
 6 -6.89757178537854 -3.36969285358536 -0.08556066136614
 6 -6.46167470707071 -2.08663046214621  0.08765091919192
 6 -9.11673565866587 -4.55471887188719 -0.75412791959196
 6 -5.84919104060406 -4.29026425332533  0.05400807040704
 8 -5.82040389648965 -5.49076558525853  0.10043696409641
 6 -4.56977258185819 -3.29409652235224  0.38196344594459
 6 -3.65884829962996 -3.77805150035003  1.62067395269527
 8 -3.94611722342234 -3.45613656955696  2.79500996499650
 8 -2.85015753145314 -4.84097437873787  1.24066980998100
 6 -2.20926445674567 -5.40637154245425  2.31912838313831
 6  2.81729177257726 -0.93285197579758 -1.18334253955396
 6  4.08993310311031 -0.46392101550155 -0.65413202640264
 6  4.92116441664166  0.37118616621662 -1.23922932753275
 6  4.82209271947195  1.17795163686369 -2.44895743474347
 6  6.30729444154415  0.51861448974897 -0.54775623872387
 6  7.46778100530053 -0.16288562166217 -1.24695204860486
 6  8.77968144514452 -0.13980918781878 -0.39630451035104
 6  9.99409126382638 -0.62039652225223 -0.99383036293629
 6  9.91432522592259 -2.07773293909391 -1.39321343604360
 6  11.28282895749575 -0.35690536113611 -0.02449491749175
 6  12.64766335093509 -0.58881736013601 -0.76327420462046
 6  13.83084949214921 -0.16734943804380  0.22071843444344
 6  15.25018683978398 -0.28129116491649 -0.34174801060106
 6  15.66589391699170 -1.72683684558456 -0.36775651115111
 6  16.25112770997100  0.54766567776778  0.49626289068907
 6  17.63643048174817  0.68249398329833 -0.04492900070007
 6  18.48425827682768  1.52403102210221  0.89258795169517
 6  20.05786568246825  1.41451707700770  0.54409717011701
 6  20.39824075357536  2.00880031123112 -0.93593000200020
 6  21.04700516611661  1.97359109520952  1.60524692539254
 1 -3.90355852345235  3.30908729302930  1.64116635493549
 1 -10.04095168016802  4.32588202470247 -0.44447312121212
 1 -10.65696403630363 -2.26231224122412 -0.92672256615662
 1 -3.01968802030203 -1.24572493659366  1.99880167486749
 1 -2.17481804940494  1.42671262236224  1.25037453585359
 1 -1.75930344624462  0.94528194989499  3.40062678797880
 1 -3.05331863216322  2.24847949154915  3.23424252545254
 1 -3.38514909430943  0.31789249154916  3.63262210791079
 1 -2.09106856075608 -1.87355123282328 -0.17596445274528
 1 -2.09688562716272 -0.10208273397340 -0.69382804350435
 1 -0.45383970737074  0.30607473337334  0.96963299379938
 1 -0.32146515941594 -1.41583076307631  1.32909002800280
 1 -4.37684234163416  5.80963910151015  0.64185732373237
 1 -5.63397461626163  6.90614573327333  1.02869846684669
 1 -4.83862563956396  5.66705655505551  2.33227428802880
 1 -7.67469756865687  7.20537757145715  0.92209351565157
 1 -9.34576996979698  5.84835282078208 -1.39622901890189
 1 -9.73834811401140  7.48514379967997 -0.61770147424742
 1 -12.29704425182518  3.64475497399740 -0.05521792039204
 1 -12.04807372967297  3.62582754745475 -1.79968718621862
 1 -13.37120452045205  2.31885750395040 -1.12839588648865
 1 -12.68329315521552 -1.35076520282028 -0.86690126392639
 1 -13.75213595589559  0.25186484788479 -1.07194087138714
 1 -12.82141665666567  0.28630564566457 -3.40430927432743
 1 -12.32728893659366 -1.56985638203820 -3.26507730443044
 1 -13.98824689788979 -0.97975533363336 -3.14913877257726
 1 -9.74149169596960 -4.85715780768077  0.09805400150015
 1 -9.97461937213721 -4.47206421992199 -1.56725724632463
 1 -8.28193989948995 -5.43536431633163 -0.79898455195520
 1 -4.08497422472247 -3.68371572287229 -0.61796485628563
 1 -1.55349221722172 -6.25528213191319  1.95638134213421
 1 -1.57755432713271 -4.61236097509751  3.10026447674767
 1 -2.79761081648165 -6.03424042404240  2.85365688588859
 1  2.66916870867087 -2.00842758385839 -1.41994912821282
 1  2.67160900380038 -0.48335977397740 -2.12690030933093
 1  4.18324976087609 -0.86306437693769  0.39751879627963
 1  5.09295455995600  2.20028772657266 -2.39499208660866
 1  5.14593155695569  0.68951490669067 -3.40047311441144
 1  3.72621910711071  1.24854766066607 -2.82503786068607
 1  6.61008110521052  1.58995213911391 -0.56726192659266
 1  6.25021284708471  0.11000541524152  0.48630832493249
 1  7.21493214631463 -1.16013005840584 -1.43502834893489
 1  7.64074382548255  0.39750525512551 -2.07249610731073
 1  8.99364380598060  1.03531138263826 -0.12402114361436
 1  8.60535326522652 -0.71899898689869  0.62363521642164
 1  10.29326619191919 -0.02438223992399 -2.00909163206321
 1  9.07492468006801 -2.32568123092309 -2.08704793029303
 1  10.74262112311231 -2.49865154155416 -1.82664841044104
 1  9.74094253605361 -2.63310518801880 -0.46501002250225
 1  11.20781497159716  0.84188181198120  0.19237269986999
 1  11.09827739713971 -0.93490197569757  0.91852237393739
 1  12.68391489948995 -1.71736561556156 -1.28079152195220
 1  12.63053336993699  0.03437616471647 -1.60499381788179
 1  13.61140217571757  0.88726912271227  0.53915909000900
 1  13.65816065156516 -0.96248920292029  1.17002657885789
 1  15.24716621402140  0.41700490029003 -1.46351300110011
 1  15.23072846784679 -2.60234851865187 -1.00552457295730
 1  16.85255199149915 -2.04704054355435 -0.85936732933293
 1  15.70514323192319 -2.26159577817782  0.68914161546155
 1  15.87478467006701  1.53575666436644  0.52393623722372
 1  15.94364068676868  0.00042385148515  1.57888988578858
 1  18.28811488878888 -0.28465694429443 -0.09865455015502
 1  17.71649437483748  1.04118708180818 -1.10119742434243
 1  18.26074778067807  2.71849057675768  0.64872136713671
 1  18.25721873607361  1.19495833263326  1.81793304890489
 1  20.16014424422442  0.40100083378338  0.54767770487049
 1  20.24958765596560  3.18114024612461 -1.03631860606061
 1  21.58039655685568  1.97697330113011 -1.14453977737774
 1  19.76526476227623  1.67100713731373 -1.66749193039304
 1  20.88344335743574  1.58299785008501  2.60553448124813
 1  22.06958079977998  1.77018513511351  1.22700460026003
 1  20.91366902960296  3.24892456295630  1.91408401280128
 1 -7.15072885538554  1.75683995599560  0.08856211301130
 1 -7.60113147974798 -0.17511238683868 -0.40507382758276

