%nproc=4
%Mem=2GB
# td=(NStates=1) B3LYP/SVP 

TD

0 1
 6 -5.01931478197820 -1.96030583658366  0.45358398349835
 6 -4.67390354855486  2.73301353035304  1.45142181828183
 6 -9.24334357795779  3.24991118741874 -0.20458507470747
 6 -9.85448729982998 -1.52681427602760 -0.88995514091409
 7 -5.20050679867987  0.38205466656666  0.94190164816482
 6 -4.45028312591259 -0.76949593319332  0.92429851545155
 6 -3.11030278397840 -0.60529101260126  1.26560981038104
 6 -3.15065921832183  0.82618773637364  1.87273177857786
 6 -4.44841980008001  1.37600464586459  1.36746865826583
 6 -3.04975147304730  0.84268256925693  3.41086094409441
 6 -2.02285762856286 -0.74792980708071  0.11051765946595
 6 -0.59227761586159 -0.54914376917692  0.43263102820282
 6  0.36148065396540 -0.88742565986599 -0.62031788898890
 8  0.15711544744474 -1.73302299219922 -1.50969342394239
 8  1.57472254745475 -0.26420283878388 -0.30698569056906
 7 -6.94439762076208  2.74556929882988  0.40012060606061
 6 -5.89370355135514  3.37633436593659  0.93435756115612
 6 -6.20483175567557  4.75067315111511  1.05172672437244
 6 -7.48351141564156  4.97478880188019  0.50468569866987
 6 -7.99510496089609  3.54694329322932  0.13884522082208
 6 -5.27621677807781  5.79609339173917  1.51533753765377
 6 -8.16600318851885  6.19163888158816  0.25976103040304
 6 -9.07461498429843  6.54862415301530 -0.73281189748975
 7 -9.18821222052205  0.82267074167417 -0.60024700010001
 6 -9.82018379577958  1.98320162186219 -0.56380519121912
 6 -11.20577681568157  1.77400103960396 -0.93031710301030
 6 -11.45062050255025  0.46287032843284 -1.05462552415242
 6 -10.12931964036404 -0.16090313971397 -0.94717819821982
 6 -12.31676587378738  2.87027959705971 -1.03719814891489
 6 -12.61868196559656 -0.23091218961896 -1.53486572157216
 6 -12.64215868546855 -0.66423106950695 -3.09974715911591
 7 -7.44984811051105 -1.28598291279128 -0.18107445254525
 6 -8.60827681318132 -2.14193080728073 -0.66340326872687
 6 -8.13872747994799 -3.48308290979098 -0.63661740024002
 6 -6.79143117131713 -3.47466335063506 -0.26227833313331
 6 -6.39526806640664 -2.09760155925593 -0.04473231913191
 6 -8.90547453255325 -4.64124752475248 -1.20082258905891
 6 -5.64563068456846 -4.27804303120312  0.00408307790779
 8 -5.54373622972297 -5.48960546924692 -0.11628470807081
 6 -4.51480708530853 -3.33437054975498  0.44182943254325
 6 -3.99167158195820 -3.85499919511951  1.80452233753375
 8 -4.19590220192019 -3.36733768966897  2.81640210421042
 8 -3.10181269696970 -4.88236851815182  1.54113985698570
 6 -2.39167269756976 -5.38179908520852  2.69296576687669
 6  2.66382642604260 -0.74735342594259 -1.24976918221822
 6  3.93045715551555 -0.28835345874587 -0.61575818901890
 6  4.83455575577558  0.55377442504250 -1.09338474307431
 6  4.78143865406541  1.36171001270127 -2.37592013101310
 6  6.19899361146115  0.71705433373337 -0.24764622772277
 6  7.40494472167217 -0.12602193529353 -0.94390174357436
 6  8.73393687068707 -0.02287749464947 -0.22196707660766
 6  10.01642349704971 -0.61896637923792 -0.73087406730673
 6  9.81409520292029 -2.15879104490449 -0.98561267596760
 6  11.25327600220022 -0.21681135173517  0.08562609460946
 6  12.60516910151015 -0.60178865726573 -0.55795367256726
 6  13.84162056925692 -0.09948265136514  0.33053941654165
 6  15.13870569166917 -0.17910094589459 -0.34396823262326
 6  15.47623495109511 -1.67573173507351 -0.69036877237724
 6  16.23531612881288  0.48232914411441  0.43292655705571
 6  17.63623046174617  0.37043277717772 -0.11903641144114
 6  18.56051590259026  1.36596521552155  0.53775246814681
 6  20.07977787368737  1.28085371067107  0.23387614801480
 6  20.39067999749975  1.71546097729773 -1.23263967296730
 6  21.01584204980498  2.12345608170817  1.06328272897290
 1 -4.10761892949295  3.29715609990999  2.14737697599760
 1 -10.07571515651565  4.04459389588959 -0.29230790469047
 1 -10.56483482338234 -2.27124313431343 -1.15823571747175
 1 -2.76255230673067 -1.14033439753975  2.11297309200920
 1 -2.44602517011701  1.65832578367837  1.57483698209821
 1 -2.09600711661166  0.46154357605761  3.77029375467547
 1 -3.06337963826383  1.97611225482548  3.86701580278028
 1 -3.60963154255426  0.11158186048605  3.81427027272727
 1 -2.21340079397940 -1.73904778247825 -0.41510836713671
 1 -2.23713965256526 -0.07099962566257 -0.62380104080408
 1 -0.40294461786179  0.36695082098210  1.02344837533753
 1 -0.27516052895290 -1.17028620862086  1.26579369836984
 1 -4.31135579297930  5.75276341394139  0.68270140814081
 1 -5.62549376817682  6.84257937663766  1.46171176817682
 1 -5.00599237623762  5.62934278367837  2.61200226082608
 1 -7.85001510041004  6.89524655835583  1.00152145844584
 1 -9.35757114991499  6.00795878137814 -1.48868826482648
 1 -9.45814009320932  7.53166845214521 -0.75780548464846
 1 -12.32490703810381  3.62020251875187 -0.08844124272427
 1 -11.90962988528853  3.63719868456846 -1.76894411191119
 1 -13.38497589758976  2.49911552975298 -1.31029407630763
 1 -12.85289011491149 -1.18033816011601 -0.98716329012901
 1 -13.47092783508351  0.29393905530553 -1.09820349764976
 1 -12.75720023502350  0.29545656075607 -3.75953479687969
 1 -11.83149935763577 -1.27798719511951 -3.29125992269227
 1 -13.77809588278828 -1.07492485058506 -3.28315217391739
 1 -9.87259480628063 -4.95688778067807 -0.47451325522552
 1 -9.51828373857386 -4.23832084558456 -2.02011253185319
 1 -8.34932663816382 -5.71450223012301 -1.24425907940794
 1 -3.62645837313731 -3.54546189748975 -0.28286134593459
 1 -1.81257812581258 -6.32158876257626  2.27027273127313
 1 -1.59064563626363 -4.66258599759976  3.36637108740874
 1 -3.16680773617362 -5.91160816081608  3.28036955715572
 1  2.70147193899390 -1.88093483458346 -1.17314444774477
 1  2.42446428932893 -0.34749618761876 -2.22670028932893
 1  4.04788622452245 -0.78350642114211  0.34292333673367
 1  5.07853311781178  2.33770146794680 -2.13013560096010
 1  5.46177314111411  1.03652960816082 -3.18030109720972
 1  3.79744622982298  1.22718552445245 -2.72798815571557
 1  6.58863896099610  1.57865100900090  0.11799659925993
 1  6.18456628242824  0.29522393709371  0.83905359945995
 1  6.88388904200420 -1.00312435783578 -1.01119596569657
 1  7.68765851695169  0.35095059965997 -1.86414527222722
 1  8.81580602220222  0.98704655615562  0.05487674617462
 1  8.52482521242124 -0.53782086908691  0.85261811471147
 1  9.98748561386139  0.02848304660466 -1.85886660956096
 1  8.83579076667667 -2.54771343414341 -1.59899912541254
 1  10.72632949394939 -2.45104678107811 -1.49460520612061
 1  9.95293373517352 -2.39098097559756  0.07800427892789
 1  11.28509269936993  0.98555617941794  0.15651911451145
 1  11.28213578297830 -0.68794728022802  0.99674019571957
 1  12.60518702670267 -1.78318219721972 -0.67340078287829
 1  12.62380269686969 -0.14397167006701 -1.56296961546155
 1  13.46046708220822  0.96175657145715  0.53403857795780
 1  13.79532436793679 -0.57535048904891  1.20861043724372
 1  14.89175067246725  0.44720792059206 -1.23948059785979
 1  14.53799919491949 -2.07323560736074 -1.07057107760776
 1  16.32816955325533 -1.83632947244724 -1.57350874347435
 1  15.64693741134113 -2.28504812341234  0.30008270957096
 1  16.08396558815882  1.55550863956396  0.56785062866287
 1  16.22804912761276  0.30193400250025  1.39035103190319
 1  17.98175425272527 -0.77355583418342 -0.05939062376238
 1  17.38878160356036  0.42642560566057 -1.26676398099810
 1  18.17699940584059  2.45303403110311  0.07581407640764
 1  18.51570458465847  1.22994183098310  1.73386464206421
 1  20.40015824562456  0.29277001070107  0.19676261336134
 1  20.17437013421342  2.66866899899990 -1.37957293149315
 1  21.57316583378338  1.69306491029103 -1.29823514691469
 1  20.05578381418142  1.00840087668767 -1.99523470467047
 1  20.68701371447145  1.97767731803180  2.17531145894589
 1  22.12155599729973  1.72784090069007  0.93538543834383
 1  20.86833449614961  3.36546621712171  0.90099270367037
 1 -6.97055083758376  1.64295856785679  0.55538879567957
 1 -7.49233059965997 -0.32434731033103 -0.25338865906591

