%nproc=4
%Mem=2GB
# td=(NStates=1) B3LYP/SVP 

TD

0 1
 6 -5.11955480598060 -2.01143094909491  0.49302792789279
 6 -4.64772093029303  2.70317054605461  1.54497117321732
 6 -9.21763100670067  3.51188738503850 -0.39212382858286
 6 -9.86206805790579 -1.38953054765477 -0.71402754815482
 7 -5.14449119711971  0.40700716181618  0.74658211621162
 6 -4.55527362496250 -0.79068805240524  0.95078116371637
 6 -3.10099185288529 -0.63015349884988  1.47166041544154
 6 -3.04867902030203  0.83486860446045  1.95656016141614
 6 -4.34203916201620  1.40022706810681  1.34332624402440
 6 -3.06377287518752  0.80424872587259  3.50217007500750
 6 -2.01082642544254 -0.90713572767277  0.27278388608861
 6 -0.60684907300730 -0.94988384318432  0.64318208330833
 6  0.38715322122212 -1.37416433373337 -0.45265112231223
 8 -0.04190445454545 -1.65724541444144 -1.61486394099410
 8  1.66452152735274 -1.12498891739174 -0.21255624762476
 7 -7.01024420542054  2.71603634553455  0.50706130013001
 6 -5.88806298729873  3.39072580508051  1.08160228562856
 6 -6.10369164166417  4.77457554135414  1.03269482118212
 6 -7.33243630813081  5.02175349834983  0.44368959905991
 6 -8.02789824022402  3.77054565346535  0.27504884118412
 6 -5.06063521992199  5.92733651605161  1.39108511241124
 6 -7.91655824402440  6.32296201390139  0.20705575987599
 6 -8.95108263106311  6.67834712531253 -0.65425404170417
 7 -9.23613701300130  0.98301677627763 -0.40814779017902
 6 -9.87373915131513  2.19098239993999 -0.51318012871287
 6 -11.25599183718372  2.05908954845485 -1.07775184648465
 6 -11.29004444494449  0.68126216761676 -1.21530159175918
 6 -10.06353306170617  0.02157510811081 -0.72046552695270
 6 -12.10827502470247  3.16318888798880 -1.30888531763176
 6 -12.62158225562556 -0.06498559695970 -1.79732196719672
 6 -12.56876134573457 -0.22574722112211 -3.30865805020502
 7 -7.53061618731873 -1.19003331783178 -0.07994433953395
 6 -8.68566455195520 -2.02047866206621 -0.44365129352935
 6 -8.19496310351035 -3.34838944044404 -0.62007574607461
 6 -6.88760078827883 -3.37580346464646 -0.24740684598460
 6 -6.44001254085409 -2.05817761686169  0.07904005810581
 6 -9.11358534363436 -4.48608200820082 -0.83185569236924
 6 -5.72549867136714 -4.33577880478048 -0.02617994839484
 8 -5.68863071917192 -5.51749825852585 -0.17169024862486
 6 -4.50093569816982 -3.32364947764776  0.41663691329133
 6 -3.89423183798380 -3.91963565876588  1.65105699099910
 8 -4.28718132983298 -3.50228118401840  2.76705716971697
 8 -3.12577509320932 -4.95491577287729  1.42744848784878
 6 -2.56000953125313 -5.66073697899790  2.62428889918992
 6  2.73755379877988 -1.37623631423142 -1.11313551885189
 6  4.04512862266227 -0.97648227162716 -0.64388100130013
 6  4.94230653085309 -0.11700265266527 -1.17524292889289
 6  4.86999750995099  0.57622146384638 -2.44967750675068
 6  6.22855656775678  0.11930455875588 -0.38743020612061
 6  7.52087631483148 -0.36562589568957 -1.02610996439644
 6  8.78082155915592 -0.03667887478748 -0.28521340124012
 6  10.01843369806981 -0.75791027362736 -0.84547552745275
 6  9.93094688808881 -2.27297246304630 -1.06438055275528
 6  11.29242991759176 -0.33481315191519  0.03361089308931
 6  12.65940452505250 -0.56640511891189 -0.61587946514651
 6  13.77218362556256 -0.06805950905091  0.24432079467947
 6  15.19698151925192 -0.07224025982598 -0.46678051385139
 6  15.67118444604460 -1.53185734763476 -0.83300303580358
 6  16.21400399759976  0.59997090829083  0.42625588998900
 6  17.60941778047805  0.77351308520852 -0.24809931773177
 6  18.54289414041404  1.67910652965297  0.68154684758476
 6  19.94551444734473  1.85092071737174  0.25172793319332
 6  20.02524345384538  2.52687211841184 -1.12652906190619
 6  20.75372583818382  2.66646038213821  1.28244464516452
 1 -3.98585675327533  3.28445482978298  1.84816705500550
 1 -9.88487607260726  4.27071650815081 -0.28817749164917
 1 -10.72635097499750 -2.10142615261526 -0.99980987488749
 1 -2.94889094059406 -1.36621698579858  2.37165896059606
 1 -2.24516508410841  1.46646659775978  1.83444294269427
 1 -1.91661917781778  0.59736715841584  3.70142686798680
 1 -3.26983028332833  1.59392403600360  3.96445554675468
 1 -3.74554513391339  0.21053175547555  4.03730257595760
 1 -2.44344379827983 -1.80157403510351 -0.08054491079108
 1 -2.15173111171117 -0.14588711441144 -0.40689935063506
 1 -0.28706302970297  0.06015014091409  1.11001703220322
 1 -0.52323533643364 -1.81382056205620  1.45459257825783
 1 -4.12285694309431  6.03541167876788  0.69243238123812
 1 -5.57148836763676  6.89859497819782  1.35528112511251
 1 -4.48145992299230  5.74130397979798  2.23134419501950
 1 -7.58897899679968  7.12998003170317  0.95161646794679
 1 -9.53337873067307  5.83376136163616 -1.42193158915892
 1 -9.45150943014301  7.60802608790879 -0.78179788388839
 1 -12.15057960536054  3.80855135363536 -0.50742314091409
 1 -11.70751967426743  3.81958692339234 -1.98937615511551
 1 -12.97299469946995  2.74985060326033 -1.50987403430343
 1 -12.85594041994199 -0.88682880918092 -1.22338691249125
 1 -13.47590833313331  0.50758041944194 -1.34555823312331
 1 -12.60128464346435  0.73411042614261 -3.90597944134413
 1 -11.78008421612161 -0.78643804020402 -3.50983177987799
 1 -13.47425549874988 -0.71305866396640 -3.59705356405641
 1 -9.97268481528153 -4.39410150205020 -0.27837364126413
 1 -9.18355026522652 -4.52520953445345 -1.92794331493149
 1 -8.56964867036704 -5.41280206010601 -0.53320797429743
 1 -3.78162388968897 -3.32543989528953 -0.34175723552355
 1 -1.75461232923292 -6.32409901360136  2.02132783678368
 1 -2.04054062576258 -4.93489322832283  3.29685413571357
 1 -3.45560661606161 -6.14957195719572  3.21338285848585
 1  2.64841663346335 -2.55132187328733 -1.38415554885489
 1  2.49952179507951 -0.75262670067007 -1.99056667596760
 1  4.24378581448145 -1.24010208070807  0.31061010541054
 1  5.19340460496050  1.57447514531453 -2.50416300370037
 1  5.34004096789679 -0.22874691949195 -3.23678674577458
 1  3.65323180838084  0.70862366826683 -2.67271262816282
 1  6.16800689778978  1.23789693359336 -0.23301850225023
 1  6.07296512231223 -0.38598418371837  0.63117281138114
 1  7.50549120222022 -1.31869591499150 -0.98622346844685
 1  7.69039879097910  0.12230773537354 -1.95709456715672
 1  9.00646508810881  0.97848570007001 -0.15316405790579
 1  8.67220995089509 -0.57083417041704  0.70396324922492
 1  10.25493235853585 -0.27388719041904 -1.81724244714471
 1  9.30157734533453 -2.58539720252025 -1.89640886638664
 1  10.98323518451845 -2.65113679007901 -1.72972871847185
 1  9.82949139093909 -2.85650752825283 -0.21756527802780
 1  11.14489867996800  0.71954957875788  0.38143160576058
 1  11.04276184558456 -0.95317380288029  1.10480100180018
 1  12.82600910891089 -1.59191307030703 -0.74448789158916
 1  12.59545986258626 -0.05670294319432 -1.45866918541854
 1  13.41757279277928  0.86712710851085  0.50842601670167
 1  13.86260109560956 -0.50545349934993  1.25546512271227
 1  15.32134363176318  0.71125432523252 -1.47315396519652
 1  15.07145254025403 -1.97349563336334 -1.58287230773077
 1  16.76849358565857 -1.54225006450645 -1.27676906950695
 1  15.77772048964897 -2.20499011761176  0.05970867216722
 1  15.81934912651265  1.61245433413341  0.83529737333733
 1  16.35043136583658  0.15122893199320  1.54605660246025
 1  18.36175225252525  0.00695221662166 -0.54564924962496
 1  17.36418914431443  1.23262622572257 -1.22139944454445
 1  18.10597230313032  2.72509123682368  0.85265176017602
 1  18.56649966416642  1.19422825962596  1.75410666626663
 1  20.22983121292129  0.82020275397540  0.20335327242724
 1  19.51390408760876  3.47580971307131 -0.96890186438644
 1  21.07946646384638  2.83708931273127 -1.48221354475448
 1  19.63248148394839  2.00186022262226 -1.84251943314331
 1  20.60081509460946  2.19574912521252  2.34242817061706
 1  21.96457029872987  2.69856797339734  1.00760266006601
 1  20.44162182488249  3.63792346284628  1.27704030843084
 1 -7.09614339683968  1.77292156415642  0.77712096889689
 1 -7.61571293789379 -0.24678955455546 -0.01758507870787

