%nproc=4
%Mem=2GB
# td=(NStates=1) B3LYP/SVP 

TD

0 1
 6 -5.19993284378438 -2.00822062806281  0.58581720682068
 6 -4.68939509770977  2.63924415341534  1.62190886698670
 6 -9.15005424902490  3.46028222452245 -0.30406502270227
 6 -9.88949080018002 -1.24449604420442 -0.94042018741874
 7 -5.11550829882988  0.29476593769377  0.80284774277428
 6 -4.57447554515452 -0.83188217181718  0.94618070367037
 6 -3.14160591429143 -0.79734021752175  1.49648289768977
 6 -3.08490264266427  0.70265538313831  2.04175868126813
 6 -4.33007796589659  1.29187623302330  1.44984689608961
 6 -2.99742624052405  0.68569687068707  3.53578343634363
 6 -2.08777412021202 -1.00805581968197  0.28760536823682
 6 -0.69287767586759 -0.94307316211621  0.67233499859986
 6  0.34951945784578 -1.23172008930893 -0.40634649184919
 8 -0.05585584968497 -1.54947463736374 -1.46511896649665
 8  1.63809888508851 -1.15354177267727  0.02171717971797
 7 -6.94269745074507  2.77671241314131  0.56602719671967
 6 -5.79867404840484  3.29356608910891  1.05563968936894
 6 -6.01979325182518  4.77020510431043  0.97714926662666
 6 -7.26404946944694  5.04515583858386  0.43925915601560
 6 -7.91612706310631  3.70588918781878  0.15556689298930
 6 -5.01950110651065  5.67614139653965  1.53556956085609
 6 -7.80751733993399  6.39289900760076  0.23998905320532
 6 -8.71341886468647  6.76139543014301 -0.60490910721072
 7 -9.18967236653665  1.08072654725473 -0.49804678007801
 6 -9.76407818521852  2.26541984368437 -0.65136394709471
 6 -11.17447368536854  2.19805344484448 -1.11321539283928
 6 -11.46165160566057  0.83676771817182 -1.26617667926793
 6 -10.15200190859086  0.17804075467547 -0.93741722212221
 6 -12.06611080828083  3.24471704080408 -1.39702413151315
 6 -12.60350044744474  0.10864176577658 -1.80029226422642
 6 -12.65370984058406 -0.30101474787479 -3.28421560596060
 7 -7.52177530323032 -1.22940725522552 -0.06845319041904
 6 -8.61696768226823 -1.84623123732373 -0.60669759815982
 6 -8.27246085328533 -3.28520312181218 -0.62572631113111
 6 -6.98791081928193 -3.37825370967097 -0.19532163746375
 6 -6.55157369696970 -2.08621042014201  0.07789994409441
 6 -9.21803578867887 -4.38069146914691 -1.12020452725273
 6 -5.82358848034804 -4.25919114601460  0.07694036363636
 8 -5.82605446154616 -5.47550405910591 -0.10953403300330
 6 -4.61716732133213 -3.41323843654365  0.50156540614061
 6 -3.98273068786879 -4.01268496369637  1.66003788908891
 8 -4.09918252995300 -3.52652360826083  2.79218968296830
 8 -3.37968048374838 -5.10068034933493  1.24366010901090
 6 -2.83104663496350 -5.98048895419542  2.34138060836084
 6  2.61649169256926 -1.45539423002300 -0.96562076737674
 6  3.95509961976198 -1.00959558295830 -0.46977359055906
 6  4.95476777697770 -0.24220517291729 -1.01567697229723
 6  4.82710322052205  0.29639348104811 -2.43939647864786
 6  6.18312202430243 -0.01695906760676 -0.30131159425943
 6  7.45368959615962 -0.63322265536554 -0.93008036143614
 6  8.81710518751875 -0.11349655655566 -0.23304818471847
 6  10.08639049374938 -0.76009049164916 -0.80479145904590
 6  10.02329612301230 -2.34179934573457 -0.65686980168017
 6  11.30534120872087 -0.13432310291029 -0.07855032303230
 6  12.70062864746475 -0.63573205160516 -0.64570244744474
 6  13.93762016921692  0.14178147504750  0.09651601420142
 6  15.21113293439344 -0.07079011481148 -0.41087492329233
 6  15.71732906050605 -1.54876903880388 -0.28955869136914
 6  16.19891248844885  0.89795070627063  0.33601686608661
 6  17.69803664236424  0.83037877177718 -0.18812332013201
 6  18.61156100710071  1.87177579657966  0.50820951385139
 6  20.14574447034703  2.06911253655366  0.07436019641964
 6  20.14541547104711  2.52343177437744 -1.44221063006301
 6  20.87827829342934  3.01771550765076  0.89813621432143
 1 -3.95641380898090  3.36315269956996  1.78399063736374
 1 -9.95173275827583  4.28624806130613 -0.31896056995700
 1 -10.83947228712871 -1.76907291729173 -1.22308220212021
 1 -2.65761181268127 -1.57083744784479  2.25691748644864
 1 -2.23447401500150  1.30052000310031  1.60725022342234
 1 -2.02294981088109  0.08136555825583  3.90679740504050
 1 -2.97402070237024  1.79319396299630  3.82221132233223
 1 -3.98808938833883  0.48102880518052  4.23807265296530
 1 -2.31354080798080 -2.00605448314831 -0.21220807710771
 1 -2.37553349194920 -0.38291081678168 -0.57415607630763
 1 -0.35974029742974  0.02124625052505  1.13548957945795
 1 -0.37226023892389 -1.50451963196320  1.69549666866687
 1 -3.93326798419842  5.77267540514051  0.88524166216622
 1 -5.34527574637464  6.87992311101110  1.47976357335734
 1 -4.71132290929093  5.44215406480648  2.67186824742474
 1 -7.40975107400740  7.41484851855185  0.80369167546755
 1 -9.34107950075007  6.09990797629763 -1.20696009200920
 1 -8.88696297549755  7.76225151045104 -0.64903460756076
 1 -12.10087463486349  3.88389888838884 -0.30126252485249
 1 -11.73833275557556  4.01851681638164 -2.20453767126713
 1 -13.14091149114912  2.86683230143014 -1.91424447134713
 1 -12.72492731863186 -0.85080520682068 -1.20760533433343
 1 -13.54011475377538  0.52809247064706 -1.63643732103210
 1 -12.71485600060006  0.60002701780178 -3.99035787918792
 1 -11.77925413311331 -0.95572496889689 -3.60704150085008
 1 -13.60868894209421 -0.83555091319132 -3.54920877957796
 1 -10.11191873867387 -4.22772486438644 -0.57038284218422
 1 -9.35621753195320 -4.14603161666167 -2.26899742034203
 1 -8.56429813531353 -5.30897167706771 -0.88094274777478
 1 -4.00677640494049 -3.37644499579958 -0.59183224302430
 1 -2.37574444244424 -6.66537314101410  1.95445114911491
 1 -1.98293486518652 -5.32060179917992  2.93437788808881
 1 -3.67422847824783 -6.31272827282728  3.17432895309531
 1  2.45612740454045 -2.54080082118212 -1.18884601790179
 1  2.33655549844985 -0.88437987598760 -1.87295491479148
 1  4.37331876777678 -1.40671874237424  0.42126117051705
 1  4.48790405490549  1.52398009580958 -2.14528711611161
 1  5.80755771957196  0.06116207140714 -3.18555162226223
 1  3.88615510071007 -0.18083527762776 -3.05150050695069
 1  6.44311440854085  1.06584972887289 -0.31710691109111
 1  6.09994782058206 -0.26448203350335  0.73913360746075
 1  7.31412206530653 -1.77904194959496 -0.91763660976098
 1  7.68584833593359 -0.14527902330233 -2.03410226792679
 1  8.80222466406641  0.98197604910491 -0.15149389088909
 1  8.65355808570857 -0.50163725072507  0.48796164906491
 1  10.18490535583558 -0.45482528422842 -1.80894161706171
 1  9.07652484008401 -2.70079874267427 -1.09205843134313
 1  10.92773963496350 -2.79373104950495 -1.15597134273427
 1  9.91454989678968 -2.78272014951495  0.32676915541554
 1  11.34498868896890  1.04284190799080 -0.30167670507051
 1  11.21060863026303 -0.09386787228723  1.08860938263826
 1  12.97320382838284 -1.65136901590159 -0.64786822962296
 1  12.67151746834683 -0.54516178907891 -1.84539785828583
 1  13.70682171767177  1.20829122492249 -0.03743856975698
 1  13.74153898939894 -0.22009496349635  1.17968754495449
 1  15.33904540194019  0.21326452625263 -1.51511816161616
 1  15.12013740874088 -2.36666495029503 -0.57974199469947
 1  16.54412114841484 -1.89357519701970 -0.82959435203520
 1  15.83481619921992 -1.79438905750575  0.70341304260426
 1  15.72885007660766  1.93905699439944  0.33026687028703
 1  16.33181950465046  0.53983779287929  1.35040703750375
 1  17.98279435673567 -0.31169964856486  0.08296361166117
 1  17.69904262966297  0.92579554265426 -1.50079738433843
 1  17.87008871477148  2.84212293999400  0.24732122712271
 1  18.58568158235824  1.46908574537454  1.57187844344435
 1  20.59728795859586  0.97329806350635  0.30977391449145
 1  19.43136583378338  3.70936306840684 -1.61544651885188
 1  21.11165968316832  2.52642824662466 -1.96122144554455
 1  19.64610284608461  1.85281531813181 -2.13950913211321
 1  20.82782779587959  2.77921747204720  2.07209113691369
 1  22.09596343804380  2.97477559415942  0.49315121492149
 1  20.66994465716572  4.10773044354436  0.76021862626263
 1 -7.13559734223422  1.82255652765277  0.62917617441744
 1 -7.60543190979098 -0.28403327892789 -0.20591391159116

