%nproc=4
%Mem=2GB
# td=(NStates=1) B3LYP/SVP 

TD

0 1
 6 -5.17269011951195 -2.04587439343934  0.35166379147915
 6 -4.67129328752875  2.68991922092209  1.41527820392039
 6 -9.16663590719072  3.46078227452745 -0.27754237043704
 6 -9.83728557965797 -1.42126372097210 -0.94336048144814
 7 -5.13157990599060  0.41807826892689  0.76550400840084
 6 -4.45107320492049 -0.80530951455146  0.65581166676668
 6 -3.06948870257026 -0.75155563906391  1.20691394079408
 6 -2.99935408780878  0.69600471807181  1.76097060246025
 6 -4.35033999209921  1.34320136553655  1.26437834923492
 6 -2.96964346224622  0.94702300330033  3.28850870887089
 6 -2.02854819761976 -0.93321833593359  0.12648925662566
 6 -0.57416580468047 -0.85988484328433  0.59277704280428
 6  0.39894440034003 -1.22189910721072 -0.43158901610161
 8  0.28523825972597 -1.74282397229723 -1.52956541114111
 8  1.68645372057206 -0.99608602710271 -0.09083407540754
 7 -6.90940412141214  2.81746648854885  0.46746734073407
 6 -5.84288846984698  3.34927165966597  1.08927305270527
 6 -6.06517779027903  4.82328041184118  1.11344289598960
 6 -7.35140820532053  5.08454977797780  0.65842107220722
 6 -7.89403485388539  3.75160375927593  0.22993432973297
 6 -5.06727588398840  5.79744352675267  1.59062506640664
 6 -7.93214980318032  6.39589930763076  0.41966702100210
 6 -8.93377089988999  6.76187547814781 -0.38007662396240
 7 -9.17354075337534  0.94604307890789 -0.43329030443044
 6 -9.83283506090609  2.20150345204520 -0.45591440214021
 6 -11.21222746074607  2.15883952345234 -0.81910598189819
 6 -11.42589803030303  0.78343238463846 -1.01823188478848
 6 -10.14850155855586  0.06124907550755 -0.73319680008001
 6 -12.21678587578758  3.16115868496850 -1.07551198029803
 6 -12.70493059045905  0.01473237483748 -1.64657689268927
 6 -12.62109657925793 -0.24861950835083 -3.27454463886389
 7 -7.45365849154916 -1.23097741224122 -0.22256860196020
 6 -8.59813579907991 -1.97006362056206 -0.75341226962696
 6 -8.26246985418542 -3.36989159065907 -0.81196493499350
 6 -6.87355938413841 -3.39021490579058 -0.33117522282228
 6 -6.41450999059906 -2.06669846894689 -0.10463830973097
 6 -9.19052303740374 -4.45383878387839 -1.20341284808481
 6 -5.84578069956996 -4.35356058295830 -0.09434676507651
 8 -5.90242209830983 -5.57991450015002 -0.30445352495250
 6 -4.53497910251025 -3.42002911561156  0.33065831543154
 6 -3.98591100590059 -3.87164085928593  1.60153203850385
 8 -4.15450806250625 -3.37781873777378  2.70995145914591
 8 -3.20568308400840 -4.95628590989099  1.41597734073407
 6 -2.55681921222122 -5.49902080738074  2.56743321362136
 6  2.66033607700770 -1.38183687428743 -0.90823502880288
 6  3.96719082888289 -0.85177980138014 -0.39386599979998
 6  5.00597289748975 -0.13509446184618 -1.03005841044104
 6  4.87383789398940  0.26592043374337 -2.46215875487549
 6  6.36112982508251  0.11882451075108 -0.36727819091909
 6  7.45718994619462 -0.68348768186819 -0.93497085048505
 6  8.66362983998400 -0.23335854275428 -0.09709458935894
 6  10.08582043674367 -0.98696317891789 -0.63439441934193
 6  9.97036082948295 -2.40217538333833 -0.57635174987499
 6  11.32131280588059 -0.30132980358036  0.17970550255026
 6  12.63786237083708 -0.69111759015902 -0.38189606680668
 6  13.76429283648365 -0.06294899799980  0.50997736033603
 6  15.18917073817382 -0.17159019481948 -0.15987982378238
 6  15.58356568416842 -1.71208537043704 -0.14158389388939
 6  16.13105570277028  0.75954686588659  0.53288655305531
 6  17.54639147784778  0.88412414631463 -0.20074458225823
 6  18.53056290729073  2.07173579257926  0.36254494739474
 6  19.95868576447645  2.04540016531653 -0.10550779037904
 6  19.96026695619562  2.22099153035304 -1.73186959595960
 6  20.78539900550055  3.24294803090309  0.68208460916092
 1 -3.90087825542554  3.32438882318232  1.64212645094509
 1 -9.81537912291229  4.39594903140314 -0.18824749864986
 1 -10.54685302520252 -2.17380339033903 -1.36344623852385
 1 -2.89589564106411 -1.27000736483648  2.27382917761776
 1 -2.16238680628063  1.33456340744074  1.39733923232323
 1 -2.01813932983298  0.33290071177118  3.49769649494949
 1 -3.04828812911291  1.88637328092809  3.73730283148315
 1 -3.67869844924492  0.28789949224922  3.77993683938394
 1 -2.07983743764376 -1.87059093679368 -0.19890674697470
 1 -2.16862280088009 -0.20857338303830 -0.73131179187919
 1 -0.31913623702370  0.14072819871987  0.94780081058106
 1 -0.42956596949695 -1.41693087308731  1.39426654565457
 1 -3.98601325872587  5.48192633023302  1.00954409240924
 1 -5.26392761156116  6.80331545024502  1.18820441744174
 1 -4.96932870987099  5.96450630003000  2.72870393099310
 1 -7.34678477737774  7.24868190189019  0.62207351365137
 1 -9.32797819061906  5.88998698419842 -1.10428982498250
 1 -9.11853613281328  7.76484176947695 -0.23779348344834
 1 -12.64946949434943  3.61865236373637 -0.04290668926893
 1 -11.70114903720372  4.23339830453045 -1.57537475497550
 1 -13.17468486848685  2.59764538273827 -1.49519256615662
 1 -13.16065089098910 -0.84955508180818 -1.24941951575158
 1 -13.52954369666967  0.57144680608061 -1.60580425772577
 1 -12.60133464846485  0.83818083318332 -3.73612245564556
 1 -11.79801600930093 -0.89009840624062 -3.51620241694169
 1 -13.53246131933193 -0.68611596969697 -3.79362322102210
 1 -9.99138668546855 -4.40232232413241 -0.43249905380538
 1 -9.62668457865786 -4.39611662516252 -2.18507902850285
 1 -8.68036974247425 -5.48543932383238 -1.12901755525553
 1 -3.76165189248925 -3.43931128242824 -0.45391845164516
 1 -2.02199906790679 -6.35747235093509  2.23544924892489
 1 -2.04941151285129 -4.69926966596660  3.26640109040904
 1 -3.31736279167917 -5.87345434543454  3.22066358655866
 1  2.77545933773377 -2.68123486458646 -1.01487862116212
 1  2.43278512141214 -1.15432687068707 -1.96915453475348
 1  4.10762219811981 -0.85777384788479  0.69142818721872
 1  4.90330559505951  1.21591928972897 -2.64450703810381
 1  5.72960992479248 -0.21156520132013 -3.09245231233123
 1  3.88958544374437  0.01622442834283 -3.14189954685469
 1  6.56287638473847  1.22844598849885 -0.32425762616262
 1  6.16422424822482 -0.42932851815182  0.71054074817482
 1  7.41922257535754 -1.73523756915692 -0.97035188128813
 1  7.51270102120212 -0.23685818121812 -2.02337119481948
 1  8.79444388598860  0.82866071757176 -0.16785552705270
 1  8.41604433433344 -0.39503659065907  1.10012286518652
 1  10.03833069836984 -0.41041084278428 -1.72232295519552
 1  8.97140432803280 -2.91802046484648 -1.09199842534253
 1  10.85390225122512 -2.96537821422142 -0.97288303390339
 1  10.04070251205120 -2.82695457295730  0.48968544704471
 1  11.10755494559456  0.69752737653765  0.04537800040004
 1  11.24679224862486 -0.44906339183918  1.28491901360136
 1  12.86748325632563 -1.73887776677668 -0.42368581138114
 1  12.73773409000900 -0.45705297819782 -1.46816013451345
 1  13.67483851935194  0.97435783158316  0.68217339143914
 1  13.64937977347735 -0.53197615161516  1.44939451565157
 1  15.00441193859386  0.03707690749075 -1.24243089288929
 1  14.83649904490449 -2.51689997379738 -0.64342836333633
 1  16.52662939923993 -1.93044888438844 -0.67411880448045
 1  15.76274899249925 -1.93888350695070  0.98050075137514
 1  15.80235742734273  1.83909699839984  0.50088393199320
 1  16.25125144784479  0.29732354145415  1.45044704150415
 1  18.25490156745674  0.00261178257826 -0.43517820252025
 1  17.31123384878488  1.25995895899590 -1.29127643224322
 1  18.09943164906491  3.06650537823782  0.12600909590959
 1  18.54340735493549  2.08437727452745  1.45528678427843
 1  20.52798102790279  1.13569430313031  0.25178811591159
 1  19.54647734493449  3.08885101720172 -2.18001297549755
 1  21.03400191739174  2.12641824562456 -2.31031635503550
 1  19.33982221802180  1.17263730033003 -2.06599178037804
 1  20.74559957305731  3.22243179347935  1.89133306110611
 1  21.77072091379138  3.18615673227323  0.33941584138414
 1  20.40208787148715  4.17618728922892  0.32077468186819
 1 -7.14820860336034  1.72386665866587  0.50497375417542
 1 -7.51030239683968 -0.23401827742774 -0.10708402860286

