%nproc=4
%Mem=2GB
# td=(NStates=1) B3LYP/SVP 

TD

0 1
 6 -5.08861171167117 -1.92815262126213  0.56093471857186
 6 -4.75729188738874  2.90229045804580  1.40519719581958
 6 -9.37280652425243  3.27500369666967 -0.18852346854685
 6 -9.82679453055306 -1.51322291689169 -0.96161230663066
 7 -5.16945369336934  0.41635809690969  0.96940439843984
 6 -4.48708680628063 -0.77868685228523  0.87557364296430
 6 -3.03835558925893 -0.48383886738674  1.42700594999500
 6 -3.03753790619062  0.92729784738474  1.92131663706371
 6 -4.45175013311331  1.41153819921992  1.38520043144314
 6 -2.93074957285729  1.01894019501950  3.35116497449745
 6 -2.09630497329733 -0.76809182328233  0.29470607830783
 6 -0.50334872297230 -0.68794764956496  0.68899666476648
 6  0.41559606550655 -0.86543346064606 -0.46636249344934
 8  0.07394713061306 -1.30317000690069 -1.56318877347735
 8  1.68565364056406 -0.63340975947595 -0.09202419441944
 7 -7.03259644064406  2.75646038793879  0.57949854385439
 6 -5.95545972697270  3.42890962346235  1.12979710511051
 6 -6.27064833733373  4.88552663646365  1.12170372207221
 6 -7.58937200170017  4.98236955995600  0.46350158025803
 6 -8.03461891229123  3.52827142604260  0.19982131843184
 6 -5.36936609300930  5.87062084448445  1.54584058795880
 6 -8.22728931713171  6.13092280998100  0.19822487678768
 6 -9.08821634443444  6.53780307090709 -0.77113572987299
 7 -9.28351175047505  0.77722619721972 -0.53876085148515
 6 -9.91999377677768  1.90573387508751 -0.57502631333133
 6 -11.30074631263126  1.74575821532153 -1.02768683998400
 6 -11.45845128562856  0.44534857625763 -1.31495155675568
 6 -10.23498020642064 -0.11582863226323 -1.00486396679668
 6 -12.20274447164716  2.92567513661366 -1.31670609970997
 6 -12.66343644104411 -0.30249934833483 -1.73260549554956
 6 -12.57096156575658 -0.50874552095210 -3.23959114351435
 7 -7.45922904860486 -1.19791410591059 -0.32312865796580
 6 -8.58182416791679 -2.03480009420942 -0.68596552495250
 6 -8.15497910511051 -3.35412001350135 -0.61978571707171
 6 -6.78479050725073 -3.35171105540554 -0.28698080338034
 6 -6.47111565116512 -1.89194099319932  0.00946310041004
 6 -8.87846183128313 -4.56112951295129 -1.09036154295430
 6 -5.65040116161616 -4.28009323622362  0.05165783538354
 8 -5.56792864896490 -5.52008851755176 -0.02688576817682
 6 -4.46186179077908 -3.24054116681668  0.50249549914991
 6 -3.93417583238324 -3.86898059325933  1.83631551685168
 8 -4.22756536823682 -3.48065902180218  2.93323378737874
 8 -3.13137565326533 -4.85771605290529  1.52571831483148
 6 -2.60525405570557 -5.64795570087009  2.66914338463846
 6  2.76816686008601 -0.87977666826683 -1.09126333163316
 6  4.06481059085909 -0.69689431283128 -0.45438205140514
 6  4.93962626282628  0.34071311891189 -0.88656406100610
 6  4.95135564576458  1.07269111081108 -2.24875741474147
 6  6.29826353845385  0.35117774607461 -0.20791225432543
 6  7.47145137233723 -0.42314164726473 -0.92946029942994
 6  8.80161363836384 -0.23344855175518 -0.16235111501150
 6  10.10668252295230 -0.71379586218622 -0.89487046694669
 6  9.99180297369737 -2.15930109590959 -1.30196431113111
 6  11.34325500010001 -0.44318398899890 -0.01707417541754
 6  12.71021960656066 -0.58085656405641 -0.65789366656666
 6  13.81642805000500 -0.09927263036304  0.23077944054405
 6  15.18250007110711 -0.19076211201120 -0.47477131293129
 6  15.61842917051705 -1.61858602050205 -0.91048078357836
 6  16.28591118831883  0.41211212241224  0.37343060746075
 6  17.74129096779678  0.52761849574957 -0.21712622042204
 6  18.52033188418842  1.40807942694269  0.61936062896290
 6  19.97263715961596  1.55366099139914  0.12844560496050
 6  20.15145607510751  2.13810324152415 -1.26933334233423
 6  20.88748921452145  2.21565530163016  1.27838423912391
 1 -3.81613978157816  3.51217760206021  1.76627886618662
 1 -9.93570115511551  4.23561299779978 -0.17968664256426
 1 -10.63042138203821 -2.05522153215322 -1.01085097899790
 1 -2.65787183868387 -1.16560692479248  2.26463825852585
 1 -2.09754032163216  1.28981893299330  1.31532103050305
 1 -1.86283379927993  0.76647406910691  3.73529025432543
 1 -3.02407570787079  1.93579822342234  3.89146824802480
 1 -3.61586216561656  0.34428513081308  3.64748359405941
 1 -2.28619807370737 -1.75960983868387 -0.27176403270327
 1 -2.14469040764076 -0.03925645134513 -0.56549521022102
 1 -0.31679600300030  0.19301342724272  1.23764979547955
 1 -0.28082109500950 -1.68877805780578  1.37258437743774
 1 -4.35182984038404  5.78550668826883  1.04880801880188
 1 -5.74807602640264  6.92941806050605  1.57001259825983
 1 -4.96164794179418  5.72914276367637  2.55724678527853
 1 -8.11493159205921  7.02544957865786  0.96818812511251
 1 -9.33218861166117  6.14295228072807 -1.46091548754875
 1 -9.59367364656466  7.56255154045405 -0.69771947604760
 1 -12.30136468386839  3.56064656315632 -0.38286068466847
 1 -11.59466838913892  3.56806177087709 -2.04351156865687
 1 -13.26067346734673  2.71352697089709 -1.77972101900190
 1 -12.74508933483348 -1.26309643594359 -1.39630420422042
 1 -13.60547128942894  0.38379804120412 -1.72897657495750
 1 -12.66878139313931  0.48435545064506 -3.68002684608461
 1 -11.66273248094810 -1.13042243864387 -3.51848264496450
 1 -13.42983105630563 -1.04374173227323 -3.77774163286329
 1 -9.79998754555456 -4.99375146704670 -0.24407021092109
 1 -9.39194110431043 -4.65826283978398 -2.24754527512751
 1 -7.99803150865087 -5.30443122302230 -0.83351800530053
 1 -3.73845957325733 -3.34201155245525 -0.23964702450245
 1 -1.87559442744274 -6.17382398609861  2.25522122612261
 1 -2.03809038073807 -4.94452419141914  3.14021847214722
 1 -3.57219827522752 -6.02114911491149  3.21002252245225
 1  2.61514330613061 -1.92937967906791 -1.34725185848585
 1  2.60116195909591 -0.38608004600460 -2.04889250855086
 1  4.11123255915592 -1.09089716021602  0.74829387378738
 1  4.96079134363436  2.22270996879688 -1.85952854025403
 1  5.68594555835584  0.61822777797780 -3.10181324842484
 1  3.94574105930593  1.17231003690369 -2.49768512541254
 1  6.61318141524152  1.30462360626063 -0.24140934133413
 1  6.19650747654766 -0.00077566286629  0.78148784288429
 1  7.24733538663866 -1.43345739113911 -1.27672251835184
 1  7.38415816691669  0.07972347694770 -1.96282514021402
 1  9.01559600120012  0.84903275477548  0.00662192069207
 1  8.57409013891389 -0.82433952095210  0.84899775267527
 1  10.33038990429043 -0.01460126182618 -1.87319804270427
 1  9.21606879447945 -2.38606726952695 -2.22315154065407
 1  10.89663652465247 -2.42622429882988 -1.55962170777078
 1  9.65777421922192 -2.81523340084008 -0.44960848234823
 1  11.22697688778878  0.65434305810581  0.58721218381838
 1  11.18652622202220 -0.88051653715372  0.98105862756276
 1  12.81003751175117 -1.61941582058206 -1.28117155995600
 1  12.74866518311831 -0.10193746664666 -1.61569488798880
 1  13.81235227072707  1.00981137693769  0.56489166326633
 1  13.88767360286029 -0.78633158715872  1.29148872507251
 1  15.05257675507551  0.30618381818182 -1.58168481828183
 1  14.95046044104411 -1.96010429422942 -1.74841886238624
 1  16.71566830313031 -1.37418325782578 -1.53476486908691
 1  15.64734745234523 -2.42829244784478 -0.11850914961496
 1  15.86943413501350  1.40301339003900  0.65801964556456
 1  16.20784710741074 -0.06860305120512  1.40315231203120
 1  18.04223030033003 -0.40885936453645 -0.19734441914191
 1  17.53575630103010  0.75135809890989 -1.37406471107111
 1  17.91897360326033  2.46361508920892  0.71581807680768
 1  18.44911792599260  1.01872070887089  1.70669192479248
 1  20.56055428522852  0.68521925562556 -0.05643270617062
 1  19.51976467366737  3.10605273737374 -1.16585155935594
 1  21.38741725892589  2.26298190199020 -1.29838516191619
 1  19.63362159795980  1.63076311291129 -2.18634381558156
 1  20.72174718781878  1.44634418471847  2.15735966376638
 1  21.75422926462646  2.42259037563756  0.77671957175718
 1  20.35682334503451  3.30838050855085  1.54679728412841
 1 -7.07008079057906  1.70666493849385  0.62950620742074
 1 -7.78338970557056 -0.17224209980998 -0.37824114431443

