%nproc=4
%Mem=2GB
# td=(NStates=1) B3LYP/SVP 

TD

0 1
 6 -5.16892974347435 -1.94591439743974  0.43239186428643
 6 -4.57790394859486  2.68988921792179  1.37901457755776
 6 -9.14226346994699  3.33351954825483 -0.18860347654765
 6 -9.92900475157516 -1.30753234783478 -0.88518466386639
 7 -5.09862661066107  0.43872033313331  0.81998945694569
 6 -4.46816491409141 -0.78644762836284  0.79016510211021
 6 -3.00253200690069 -0.60715119861986  1.13781703110311
 6 -2.86843099549955  0.82127724532453  1.73312781818182
 6 -4.25608056615662  1.34785183058306  1.20805271667167
 6 -2.85277177507751  0.77653595459546  3.30126998499850
 6 -1.99624496729673 -0.79484449854985 -0.01456484878488
 6 -0.55616400450045 -0.76820567536754  0.41319908500850
 6  0.41318582448245 -1.15473239053905 -0.70121597879788
 8  0.10608034393439 -1.65460515041504 -1.76390884548455
 8  1.71006608180818 -0.96928334683468 -0.36604159615962
 7 -6.83593677467747  2.86600134203420  0.55833642764276
 6 -5.73871805280528  3.48865559805981  1.06959108450845
 6 -6.09532080458046  4.87789587338734  1.10672222392239
 6 -7.38248131263126  5.07025834883488  0.51426665676568
 6 -7.90247569796980  3.65360395929593  0.20110144644464
 6 -5.06028518491849  5.89146292869287  1.43218922282228
 6 -8.02931952015201  6.32940265796580  0.46055110941094
 6 -8.93798132093209  6.66215550615062 -0.55206382268227
 7 -9.15351875117512  0.93307178177818 -0.57024399979998
 6 -9.76420819821982  2.10117341904190 -0.48380719141914
 6 -11.21473771177118  2.01732537203720 -0.92425649694969
 6 -11.38206364686469  0.71888592999300 -1.07026708830883
 6 -10.13777048544855  0.02244519511951 -0.81067454785479
 6 -12.13447764496450  3.22388495759576 -1.05360979007901
 6 -12.71942203960396 -0.00055915431543 -1.47079931493149
 6 -12.82225669526953 -0.55888053445345 -2.86877406180618
 7 -7.60778390409041 -1.26341065556556 -0.08687503260326
 6 -8.70814680018002 -2.03995060926093 -0.62920984938494
 6 -8.21971557875788 -3.40832543404340 -0.70386412491249
 6 -6.92200422862286 -3.29192507680768 -0.36312841814181
 6 -6.55450398999900 -2.07378917801780  0.08342049614961
 6 -9.14772875797580 -4.57288068806881 -1.09324183098310
 6 -5.86805292679268 -4.20371559845985 -0.03009033943394
 8 -5.87071892799280 -5.42252876157616 -0.02925600520052
 6 -4.59511511611161 -3.31505861856186  0.28935418501850
 6 -4.01711412621262 -3.84110780598060  1.66019790509051
 8 -4.29707231893189 -3.38639959585959  2.70250071407141
 8 -3.18868138383838 -4.86309659095910  1.50509625262526
 6 -2.61314484478448 -5.44692559785979  2.70960743104310
 6  2.69191923532353 -1.43611230183018 -1.22897710301030
 6  3.93562767256726 -1.10858548194819 -0.64716132933293
 6  4.92849514971497 -0.20937188958896 -1.04011941654165
 6  4.86513702390239  0.63606744844484 -2.26400893989399
 6  6.29236294839484 -0.10955832753275 -0.26332779587959
 6  7.43840806800680 -0.65527486058606 -1.01611896529653
 6  8.73694717171717 -0.39302450935094 -0.17512239213921
 6  10.05581743644365 -0.99733421602160 -0.81585256515652
 6  10.07839163256326 -2.50297546334633 -0.86537065176518
 6  11.26707738233823 -0.33386305690569 -0.04119658765877
 6  12.65445403000300 -0.68286676507651 -0.62116999419942
 6  13.80264667186719  0.00986828372837  0.25458182078208
 6  15.30546236733673 -0.08782181798180 -0.29853368916892
 6  15.71278860646065 -1.56013017491749 -0.43157289278928
 6  16.17920051725173  0.89001991319132  0.44333759815982
 6  17.57425426412641  0.99695542944294 -0.18406291409141
 6  18.50984083508351  1.92671129012901  0.65046373927393
 6  19.96031592749275  1.98319394469447  0.20152291269127
 6  20.11967289678968  2.45054448564856 -1.24482089108911
 6  20.76921738733873  2.82227596369637  1.24994139483948
 1 -3.64193236083608  3.40403678797880  1.78840107840784
 1 -9.88230581558156  4.06810624712471 -0.06231490539054
 1 -10.86119445934593 -2.05843185318532 -1.12158205210521
 1 -2.70412646414641 -1.25287565166517  1.96560835553555
 1 -2.10282084968497  1.25282523362336  1.34074357275728
 1 -1.89134665056506  0.22650007170717  3.70188691399140
 1 -2.65594889518952  1.73825846944694  3.86584568576858
 1 -3.87888846824682  0.29390009230923  3.50257910361036
 1 -1.83629308320832 -1.93471734943494 -0.38126498279828
 1 -2.30061600020002 -0.04188671437144 -0.94048270897090
 1 -0.23861818521852  0.13539766566657  0.78977500800080
 1 -0.53804681758176 -1.24396357635764  1.37993511251125
 1 -4.44360901830183  6.06836497409741  0.55085822382238
 1 -5.66177739653965  6.80747586628663  1.70482607960796
 1 -4.42373415041504  5.35974582398240  2.26457751835184
 1 -7.87237733663366  7.07200423412341  1.19674098039804
 1 -9.20205559835984  5.84443242874287 -1.35413480948095
 1 -9.71817609680968  7.56794207950795 -0.34282398649865
 1 -12.34347889528953  3.52565306380638  0.03860146154615
 1 -11.86587550985099  4.02317728242824 -1.77882510001000
 1 -13.04790219021902  3.03481910011001 -1.54755780268027
 1 -12.90685551145114 -0.89437956425643 -0.82660723452345
 1 -13.70042078437844  0.59020868226823 -1.37085076237624
 1 -12.68609312431243  0.18133514861486 -3.83567241064106
 1 -12.12489869756976 -1.26729612601260 -3.27642843954395
 1 -13.83993206640664 -0.96133349144914 -2.92969682838284
 1 -10.25936348314831 -4.77146923882388 -0.57006281018102
 1 -9.32847475767577 -4.63424043754376 -2.12865338593859
 1 -8.57923962946295 -5.57621840174017 -0.77956260976098
 1 -3.81777750505051 -3.74679203050305 -0.46338939873988
 1 -2.29950681868187 -6.59440604430443  2.43812951695170
 1 -1.79893646534653 -4.86891663066307  3.11839628992899
 1 -3.50962201760176 -5.25615261526153  3.62579409960996
 1  2.49242103390339 -2.51699844094409 -1.17856498979898
 1  2.63931577447745 -1.06353779177918 -2.50314793409341
 1  4.10379181508151 -1.64289235973597  0.24476352075208
 1  4.84787005150515  1.75088278607861 -1.91303389078908
 1  5.90021698549855  0.66378233343334 -2.91975504260426
 1  3.88872535773577  0.37189999589959 -2.89498485538554
 1  6.45885598269827  0.89259240314031  0.00547534713471
 1  6.01084891069107 -0.60163574887489  0.75534522862286
 1  7.38810946404640 -1.64013805920592 -1.25708055415542
 1  7.58366811791179 -0.19505400080008 -2.05169402710271
 1  8.70529497109711  0.42594044554455  0.11949320782078
 1  8.86704943484349 -0.84082116911691  0.85322817571757
 1  10.10623748904890 -0.79998980068007 -1.88115883878388
 1  9.23310049764977 -2.97785644844484 -1.53430265576558
 1  11.00697755875588 -2.87221889828983 -1.36470221582158
 1  9.82100054185419 -3.00966284378438  0.16422290079008
 1  11.04429861996200  0.69870749454945  0.18944240684068
 1  11.29276684608461 -0.75801428692869  1.03564408610861
 1  12.93430993899390 -1.80320419941994 -0.65619906270627
 1  12.52745306190619 -0.23478075097510 -1.66292961146115
 1  13.59135017051705  0.99719011481148  0.34279945404540
 1  13.75763059855986 -0.39110206420642  1.33666324252425
 1  15.25331682908291  0.21565476527653 -1.22392904270427
 1  14.87550294529453 -2.16733501730173 -0.88714273477348
 1  16.64352108840884 -1.60783662316232 -1.10760215281528
 1  16.07121983958396 -1.86999661826183  0.55705840714071
 1  15.52758995059506  1.79639272797280  0.47437128072807
 1  16.31506782948295  0.56142995209521  1.55413741054105
 1  17.89853593089309 -0.00839931853185 -0.16655133983398
 1  17.42353507890789  1.06866983008301 -1.19738704330433
 1  18.03151485738574  2.88467719541954  0.62125862086209
 1  18.43453646784679  1.85827466426643  1.76848810441044
 1  20.16032426222623  0.91767250095010  0.21846478357836
 1  20.02978567576758  3.66989912201220 -1.24778975317532
 1  21.03333185038504  2.34205980978098 -1.82582790619062
 1  19.40583881968197  1.75836587318732 -1.82268744994499
 1  20.54307932103210  2.36773632393239  2.36394032183218
 1  21.83981782348235  2.94723283988399  1.06413831363136
 1  20.04923258595860  3.79129880038004  1.28156076047605
 1 -7.01226500900090  1.89788406040604  0.17262051885189
 1 -7.75042640924092 -0.37584245984598  0.09947662746275

