%nproc=4
%Mem=2GB
# td=(NStates=1) B3LYP/SVP 

TD

0 1
 6 -5.25825867636764 -1.88242804880488  0.38627725282528
 6 -4.68184434263426  2.78809903890389  1.26777345344534
 6 -9.26019526312631  3.41522771907191 -0.25401001720172
 6 -9.90009186028603 -1.41805339993999 -0.95389153455346
 7 -5.11422817081708  0.46264272537254  0.77943540154015
 6 -4.55021311891189 -0.71113009660966  0.80581666726673
 6 -3.09039079277928 -0.66902738623862  1.20377362676268
 6 -3.13413756615662  0.78944406200620  1.75775028042804
 6 -4.28977393549355  1.38377542294229  1.35022693409341
 6 -2.95527202510251  0.89006730773077  3.37775763376338
 6 -2.12105744854485 -0.91436645074507  0.10367697539754
 6 -0.62319070717072 -0.93786264106411  0.44585235033503
 6  0.33327783368337 -1.06596351365136 -0.67647350455046
 8  0.02940267616762 -1.23258294819482 -1.86280873547355
 8  1.55732080728073 -0.97826424492449 -0.20298529052905
 7 -7.01161434243424  2.82064680658066  0.36285687968797
 6 -5.80307448844885  3.38897563006301  0.83591771717172
 6 -6.09685095759576  4.88283636743674  0.96675822752275
 6 -7.43134619911991  5.05982730573057  0.57070230033003
 6 -7.96027147754776  3.77376597549755  0.18194953125313
 6 -5.16485564196420  5.77812159455946  1.38795479937994
 6 -8.09540612881288  6.36050576827683  0.36057111141114
 6 -9.20333785658566  6.59139843044304 -0.42629124542454
 7 -9.26491989128913  0.89254772937294 -0.50052702810281
 6 -9.78518029542954  2.16299960166017 -0.45277408810881
 6 -11.28840507850785  1.94950859035904 -0.83087715901590
 6 -11.41004644514451  0.62226626802680 -1.01350141174117
 6 -10.13885059345935 -0.03370041944194 -0.87472095249525
 6 -12.44164836203620  2.99128169726973 -0.78633306240624
 6 -12.61028112551255 -0.13744284268427 -1.44890712571257
 6 -12.68025249484949 -0.65412005840584 -2.90556774117412
 7 -7.61318444414441 -1.19899421392139 -0.18024436953695
 6 -8.72631861736174 -2.03086970117012 -0.64488141654165
 6 -8.27181078827883 -3.35833043454345 -0.67356109460946
 6 -6.98267029522952 -3.30911679597960 -0.25623772907291
 6 -6.62083062266227 -1.97401920102010  0.02740489458946
 6 -9.16363034813481 -4.53750715071507 -0.95310781758176
 6 -5.79728585008501 -4.27160238713871 -0.00713804420442
 8 -5.67800965706571 -5.42095860456046 -0.28032111171117
 6 -4.60797640224022 -3.25926303900390  0.46429167876788
 6 -3.98421083588359 -3.78943263846385  1.71439332463246
 8 -4.07049966166617 -3.39105006090609  2.83684414841484
 8 -3.07681019671967 -4.74826510781078  1.36011175417542
 6 -2.46335986628663 -5.47185809110911  2.48452492279228
 6  2.76582662606261 -1.08639733033303 -1.19377358265827
 6  4.04401851165117 -0.72340696409641 -0.53454006720672
 6  5.00377267746775 -0.09156010841084 -1.07126253085309
 6  5.07914842504250  0.47161100280028 -2.54524706370637
 6  6.34912862496250  0.10771339963996 -0.30466192929293
 6  7.58450267746775 -0.59928926202620 -0.89475682908291
 6  8.80113359035904 -0.31955716261626 -0.07270215011501
 6  10.11257311201120 -1.05396987958796 -0.73412439233923
 6  10.11984577797780 -2.55741090689069 -0.77031114581458
 6  11.35049572417242 -0.43880355095510 -0.03563603160316
 6  12.70191877647765 -0.71811028942894 -0.51789966716672
 6  13.88951535873587  0.10345764266427  0.16198256085609
 6  15.30254207530753 -0.20499353515352 -0.38920275607561
 6  15.76891421902190 -1.69560372227223 -0.53026276177618
 6  16.22912550975098  0.63498440964096  0.44891815621562
 6  17.70665750445044  0.87457319121912 -0.23277778557856
 6  18.48975882688269  1.82515113411341  0.70678937183718
 6  20.02677257315732  1.96141176647665  0.25399816021602
 6  20.23869479897990  2.37409684088409 -1.22723913291329
 6  20.90420088568857  2.74989872597260  1.25082148284829
 1 -4.03145131273127  3.45749213351335  1.74114635293529
 1 -9.96397398239824  4.25124456095610 -0.26220489438944
 1 -10.76057439733973 -2.08611462146215 -1.16896679057906
 1 -2.86323237473747 -1.50276064016402  2.17428922362236
 1 -2.52625319291929  1.46932688378838  1.23008250665067
 1 -2.12801031693169  0.21135855755576  3.65181190649065
 1 -2.69899319961996  1.92603724732473  3.73284238543854
 1 -3.86586716611661  0.41899260156016  3.74506335203520
 1 -2.29434888878888 -1.64558843654365 -0.52179903620362
 1 -2.21464740334033 -0.25458798449845 -0.74605326602660
 1 -0.26074039743974 -0.10253612771277  1.12023805430543
 1 -0.51585459835984 -2.00774995499550  0.91892901190119
 1 -3.79721437883788  5.25229336693669  1.08246138413841
 1 -5.24973619241924  6.89056417511751  0.67420301730173
 1 -5.32854463146315  6.22981283068307  2.84327538813881
 1 -7.73122322122212  7.24164119781978  0.97462876917692
 1 -9.72076746954695  5.78099608510851 -1.05784518051805
 1 -9.68515279447945  7.55818110341034 -0.71146085018502
 1 -12.70992553995399  3.27879837833783  0.35789339073907
 1 -12.20029895219522  3.96759172387239 -1.34828204570457
 1 -13.36867426742674  2.65909152735273 -1.20146319321932
 1 -12.55758058395840 -0.94583470977098 -0.63525809960996
 1 -13.48637938023802  0.49902956435643 -1.55433911121112
 1 -12.69393390839084  0.26683369846985 -3.47696654005400
 1 -11.72056826452645 -1.28409780618062 -3.20391118781878
 1 -13.49539761296130 -1.34175153325333 -2.97549140784079
 1 -10.19601714851485 -4.49992208410841 -0.48323412731273
 1 -9.48705061526153 -4.58735574907491 -2.04343486408641
 1 -8.67175888138814 -5.53404418431843 -0.78686333983398
 1 -3.93228895619562 -3.63054040534053 -0.42724578437844
 1 -1.71753862186219 -6.14043064676468  2.08314401840184
 1 -2.17797436913691 -4.62021176017602  3.09181363166317
 1 -3.08630968636864 -6.23914091409141  3.12943446364636
 1  2.80546233803380 -2.14686142724272 -1.57401453475348
 1  2.54822666556656 -0.51363280128013 -2.18756637593759
 1  4.33400483638364 -1.02131020152015  0.44321336573657
 1  5.54997026152615  1.58878657645765 -2.66074866226623
 1  5.50679764356436 -0.33428747354735 -3.31710477757776
 1  4.09252573777378  0.53310611651165 -2.79153451035104
 1  6.57611770887089  1.11069421332133 -0.14174937533753
 1  6.23340116591659 -0.54049963526353  0.61694138823882
 1  7.43521417451745 -1.65527957335734 -1.04918976507651
 1  7.62336208730873 -0.12548704410441 -1.89694855255526
 1  9.23347778937894  0.72419027052705  0.13250450895090
 1  8.52067479737974 -0.93858094509451  0.89748260116012
 1  10.15379224452445 -0.68965876757676 -1.79175989888989
 1  9.17636482408241 -2.95233389618962 -1.17413663916392
 1  11.11237809880988 -2.88761043744374 -1.10391613721372
 1  10.04351279307931 -2.70797267476748  0.34200067856786
 1  11.25673986408641  0.75604322812281 -0.18030456785679
 1  11.20328789818982 -0.71931041654165  1.11382190389039
 1  12.96623313131313 -1.78008188718872 -0.56133957675768
 1  12.73723404000400 -0.51028830173017 -1.46085940444044
 1  13.64514555005501  1.06791718751875  0.04346952105211
 1  13.81833666916692 -0.15950890489049  1.20270984718472
 1  15.22628412581258  0.11773497329733 -1.40323697349735
 1  15.02726812181218 -2.43338162196220 -1.14319834033403
 1  16.70746748304830 -1.99670551005101 -1.07772916551655
 1  15.50154287188719 -2.14246386498650  0.66029873117312
 1  15.79677686928693  1.72166525522552  0.52605644924492
 1  16.24096041874187 -0.00515670657066  1.50597259405941
 1  18.13375945324533 -0.08185666426643 -0.20099478417842
 1  17.57863058845885  1.12457542064206 -1.23928123272327
 1  18.03798550445045  2.87430615831583  0.76006250125013
 1  18.38767178137814  1.43766260306031  1.57301855745575
 1  20.36360459025903  0.81258199189919  0.30707364446445
 1  19.81849454665467  3.59633176527653 -1.37234220842084
 1  21.40267878507851  2.29485508930893 -1.54094941834183
 1  19.57104534033403  1.88905894249425 -2.16274145534554
 1  20.82428744184418  2.25015456575658  2.25299922772277
 1  21.88367220892089  2.80990910751075  0.93901580138014
 1  20.52564022672267  3.79577924842484  1.28304090849085
 1 -7.08022180468047  1.78111238323832  0.15333859065907
 1 -7.60432179877988 -0.12840771637164 -0.18560188038804

