%nproc=4
%Mem=2GB
# td=(NStates=1) B3LYP/SVP 

TD

0 1
 6 -5.10478332883288 -1.97180698669867  0.41029965506551
 6 -4.61643780198020  2.70044027302730  1.27532420852085
 6 -9.16388563216322  3.44721091739174 -0.20133474967497
 6 -9.96435828692869 -1.34493608820882 -0.64224036943694
 7 -5.14624137213721  0.45345180628063  0.73595105310531
 6 -4.45321341894189 -0.74879386298630  0.80468655425543
 6 -3.00988274197420 -0.63046352985299  1.23866711611161
 6 -3.06125027742774  0.85017013461346  1.66728123352335
 6 -4.34503946204620  1.34484152955296  1.18128003940394
 6 -2.90912741064106  1.06598489948995  3.20962082008201
 6 -2.04114945774577 -0.97824283838384  0.03148975667567
 6 -0.60936932503250 -0.99901875667567  0.43193095819582
 6  0.39468397429743 -1.31423834113411 -0.67902375957596
 8  0.13214295019502 -1.66682637253725 -1.81176363096310
 8  1.69842491769177 -1.03972039053905 -0.27495248724873
 7 -6.91803498449845  2.81312605450545  0.47051764576458
 6 -5.73267744874487  3.46786351885188  0.98390251565157
 6 -6.12305357785779  4.82998108190819  0.98039959165917
 6 -7.34424748924893  5.08273959695970  0.37705293539354
 6 -7.86824227462746  3.75444404330433  0.15572690899090
 6 -5.05219437583758  5.78121190359036  1.55615161906191
 6 -7.91791838003800  6.36290600830083  0.33486854115412
 6 -9.01417894069407  6.72394168476848 -0.42914153045305
 7 -9.27968136743674  0.96856533113311 -0.31020799619962
 6 -9.82745452285229  2.24597789948995 -0.43307211791179
 6 -11.26415265326533  2.03804744424442 -0.94261833313331
 6 -11.47746318681868  0.69655369676968 -1.02020208180818
 6 -10.16135284368437  0.08527147774777 -0.69669314971497
 6 -12.13138733593359  3.18385095419542 -1.30851528062806
 6 -12.70658075547555 -0.00444954335434 -1.53662589758976
 6 -12.65872034163416 -0.46297094349435 -2.99134631903190
 7 -7.53493661936194 -1.26651096559656 -0.16061240634063
 6 -8.70398638413841 -1.97902451665167 -0.47578450685068
 6 -8.29254286148615 -3.44127872937294 -0.50778451695170
 6 -6.88908093629363 -3.42928881318132 -0.22984508980898
 6 -6.50114865446545 -2.08568036713671  0.09423157725773
 6 -9.20672465756576 -4.56643004300430 -0.82351485828583
 6 -5.81245736723672 -4.31660688758876  0.00412308190819
 8 -5.68908076417642 -5.47462397109711 -0.00500357995800
 6 -4.54034963956396 -3.48401551425142  0.42042729232923
 6 -3.91166358115812 -3.86623031823182  1.71992387768777
 8 -4.29988259996000 -3.59703065896590  2.81505196919692
 8 -3.04827734343434 -4.86205648694870  1.43387913091309
 6 -2.57451098139814 -5.56831773707371  2.51130760106011
 6  2.68190823422342 -1.41192988358836 -1.23379758505851
 6  4.00226433623362 -1.02971759515952 -0.64837145034503
 6  5.00841314151415 -0.16928788118812 -1.10591599619962
 6  4.71500201040104  0.80827466916692 -2.21073361236124
 6  6.30914462656266 -0.01684905660566 -0.40589205230523
 6  7.57263149034903 -0.50539987308731 -1.04647200060006
 6  8.76960043704370 -0.32455766266627 -0.28245312521252
 6  10.06353820852085 -0.85654013661366 -0.92820380028003
 6  10.06388018141814 -2.26032119791979 -1.24478859355936
 6  11.25420609520952 -0.26706637723772 -0.08206067406741
 6  12.58862744734473 -0.52712119051905 -0.56968484568457
 6  13.72275868306831 -0.02259496259626  0.25049141174117
 6  15.16495831693169 -0.13577661346135 -0.32717655345535
 6  15.60310763836384 -1.68647280918092 -0.36790652615262
 6  16.16141873907391  0.63816472767277  0.47817108150815
 6  17.60427726642664  0.83051878577858 -0.08715322312231
 6  18.52674252525252  1.78712733173317  0.65721441434143
 6  20.01474137003700  1.92004763006301  0.32104486488649
 6  20.14480541004101  2.56372580378038 -1.10471688068807
 6  20.82093255885589  2.83033676977698  1.35146154685469
 1 -3.72253042064206  3.21711809610961  1.77087932623262
 1 -9.83283086808681  4.33095253175318 -0.22397107100710
 1 -10.85909424932493 -1.93621963196320 -1.16657655155516
 1 -3.02841889338934 -1.24047441154115  2.39912170687069
 1 -2.32223279087909  1.42816276737674  1.08414791319132
 1 -2.02704021992199  0.55889331103110  3.53534025932593
 1 -2.82380568086809  2.18081272487249  3.48144724592459
 1 -3.88357893729373  0.72520322262226  3.61146999269927
 1 -2.28710816471647 -1.84481835953595 -0.61979883618362
 1 -2.02324826342634 -0.16002852855286 -0.57358601930193
 1 -0.41394571797180 -0.13966984108411  0.74828085858586
 1 -0.35794880778078 -1.83775295529553  1.30218733773377
 1 -4.15262992039204  6.03508164576458  0.86298943694369
 1 -5.64499571837184  6.67237235593559  1.83735933293329
 1 -4.73704548154816  5.50961081048105  2.57771883248325
 1 -7.59482958185819  7.16963399709971  0.83652495879588
 1 -9.44873026582658  6.23515150065006 -1.39316871287129
 1 -9.45939021822182  7.66165145044504 -0.34067377147715
 1 -12.47036158355836  4.00724122262226 -0.42271467006701
 1 -11.57191611391139  3.93208817351735 -2.03414063156316
 1 -13.15390279027903  3.11188680688069 -1.79757280418042
 1 -12.95340016591659 -0.96193631993199 -1.01569614341434
 1 -13.83502424472447  0.40175983738374 -1.26582025932593
 1 -12.38269278427843  0.41136815191519 -3.68913775717572
 1 -11.84810101780178 -1.26022541894189 -3.28462925962596
 1 -13.59133720692069 -1.00281763986399 -3.29876373507351
 1 -9.93887143394340 -4.67360945284528 -0.10606641054105
 1 -9.75522743294329 -4.44012102560256 -1.88725924652465
 1 -8.43226493199320 -5.36458723862386 -1.02180683418342
 1 -3.83185891319132 -3.51301865316532 -0.33202626242624
 1 -1.81903877187719 -6.31011761546155  2.04868057205721
 1 -1.94084065576558 -5.05148488748875  3.31058550885089
 1 -3.25263631903190 -6.07752475247525  3.04302582278228
 1  2.81110290209021 -2.48844558565857 -1.50358749204920
 1  2.59950179307931 -0.92914435243524 -2.11627924722472
 1  4.27886932283228 -1.58706677717772  0.29415846024602
 1  4.94117938243824  1.79530722852285 -1.89986257365737
 1  5.44536149994999  0.72071802700270 -3.08107117421742
 1  3.66487297249725  0.88160096599660 -2.47111246814681
 1  6.31430152725272  1.12052519641964 -0.23447864826483
 1  6.04034185998600 -0.51326691199120  0.62211190529053
 1  7.30866151925193 -1.52019606500650 -1.49679452555256
 1  7.73728347944795  0.02273777837784 -1.94856371407141
 1  8.76263070467047  0.82476032753275  0.28290954945495
 1  8.65108783868387 -0.98775586258626  0.58188104100410
 1  10.22587945324532 -0.05709551125113 -1.84562528542854
 1  9.21434862246225 -2.71517017981798 -1.97444667016702
 1  10.85358221922192 -2.80599227562756 -1.72760850645065
 1  9.87540598239824 -2.94865674317432 -0.26877039853985
 1  10.96575076517652  0.71625924972497 -0.15815235263526
 1  11.27546511591159 -0.69935842134213  1.06567708940894
 1  12.71593810181018 -1.57727160616062 -0.74562800560056
 1  12.58244856145614 -0.22627990089009 -1.73240655915592
 1  13.35022605810581  1.10991138693869  0.58307348144814
 1  13.85295013051305 -0.35501845584558  1.31835141134113
 1  15.37288878627863  0.26863006280628 -1.56374302410241
 1  15.03923931893189 -2.36249453325333 -1.15976999749975
 1  16.57108384468447 -1.60932677217722 -0.71723311591159
 1  15.55344806240624 -1.99636925552555  0.64827752905291
 1  15.98232542414241  1.61028411711171  0.57183102670267
 1  16.28688501120112  0.23644745384538  1.52561455825583
 1  18.05912198949895 -0.20836931553155 -0.24940962566257
 1  17.70402312771277  1.06843980708071 -1.35138244284428
 1  17.82539424532454  2.73955268296830  0.70978747374737
 1  18.41023403760376  1.52655149194919  1.61743299889989
 1  20.54841307110711  1.01908264196420  0.65565850295030
 1  19.92149484668467  3.63568570067007 -1.12823779797980
 1  21.15272378957896  2.58075367916792 -1.59585490889089
 1  19.72082031783178  1.80969100570057 -1.99882506370637
 1  20.81798681178118  2.42837238753875  2.38882281008101
 1  21.85690953265327  2.65924404100410  1.13696559635964
 1  20.34528219091909  3.68167783828383  1.39206181058106
 1 -7.31007478997900  1.78984325632563  0.22738599539954
 1 -7.39621098769877 -0.25055993159316 -0.11734505470547

