%nproc=4
%Mem=2GB
# td=(NStates=1) B3LYP/SVP 

TD

0 1
 6 -5.10436328682868 -1.93564337033703  0.41733035813581
 6 -4.74675083328333  2.72488271727173  1.41372804890489
 6 -9.30488973257326  3.29049524582458 -0.23589820602060
 6 -9.87553940504050 -1.51549314391439 -0.84652079747975
 7 -5.19229597759776  0.44650111121112  0.88458591659166
 6 -4.55708380598060 -0.69073805740574  0.78063414901490
 6 -3.06577833153315 -0.58176866036604  1.25341859125913
 6 -3.04595874827483  0.90322544014401  1.94422892829283
 6 -4.46952191029103  1.39108615401540  1.39177108850885
 6 -3.14117061496150  0.76666496749675  3.51199105710571
 6 -1.99907525032503 -0.67048206230623  0.02538914661466
 6 -0.53332172027203 -0.67829668446845  0.54328209330933
 6  0.48377288318832 -0.83930084738474 -0.64607046424643
 8  0.15935567146715 -1.20228991889189 -1.71478393299330
 8  1.67159223442344 -0.70606702520252 -0.20414540654065
 7 -7.02030521152115  2.75202994489449  0.50688128212821
 6 -5.89389357035704  3.35366209870987  1.04227835323532
 6 -6.20699197169717  4.80285836963696  1.06338789048905
 6 -7.50071313581358  4.89577090009001  0.53928915901590
 6 -8.08403385378538  3.65689428832883  0.20739207550755
 6 -5.25059421582158  5.83291707410741  1.49619562346235
 6 -8.27841442964296  6.17428714641464  0.26588164246425
 6 -9.11827935073507  6.49524881548155 -0.67927654395440
 7 -9.24124752405240  0.73960243484348 -0.42744972037204
 6 -9.91597337473747  1.93377667936794 -0.56588539923992
 6 -11.23917015501550  1.85995963546355 -0.94495856715672
 6 -11.45306074657466  0.52638668006801 -1.20648070967097
 6 -10.12441915031503 -0.17481453085309 -0.76274975537554
 6 -12.25402960016002  3.06012858195820 -1.10739516861686
 6 -12.64419451685169 -0.17549664806481 -1.60016225122512
 6 -12.61708617821782 -0.43815846224622 -3.11847903230323
 7 -7.49515264096410 -1.24887920242024 -0.28952529762976
 6 -8.60413639913991 -2.00919753395340 -0.58382531093109
 6 -8.11331493869387 -3.44843944544454 -0.53960769926993
 6 -6.84408643684368 -3.44267015131513 -0.26121822712271
 6 -6.45036357595760 -2.12861466056606  0.01299345344534
 6 -8.93309729482948 -4.59504290429043 -0.78354086088609
 6 -5.68484460596060 -4.38512373927393  0.00498316791679
 8 -5.63638549464947 -5.59758626732673 -0.00298337793779
 6 -4.46971257585759 -3.31313842654265  0.35764101370137
 6 -3.92160457525753 -3.78652234743474  1.57844973027303
 8 -3.98023063476348 -3.35225618151815  2.77605806980698
 8 -3.01342385808581 -4.84239452075208  1.35418116111611
 6 -2.47040057035704 -5.43298420372037  2.62122859315932
 6  2.70544058745875 -1.02885157575758 -1.29366357165717
 6  4.04498860866087 -0.54212883628363 -0.71403801700170
 6  4.91919421962196  0.30203925152515 -1.12669807440744
 6  4.78126863706371  1.15505934763476 -2.41439397839784
 6  6.24398811091109  0.50692332063206 -0.35422688578858
 6  7.46345057225723 -0.27463679677968 -0.96503385678568
 6  8.73737721472147 -0.15735094199420 -0.24678955885589
 6  10.05885774047405 -0.56419090169017 -0.81603258315832
 6  10.00546433983398 -2.07321248704871 -1.02779689438944
 6  11.19401007560756 -0.21899156975698  0.06923445544554
 6  12.64821340594060 -0.53921239963996 -0.46552442964296
 6  13.89870627782778 -0.00156285938594  0.36509287188719
 6  15.21171299239924 -0.30877391319132 -0.30123395919592
 6  15.57947527512751 -1.81170533243324 -0.17382711821182
 6  16.28358095529553  0.43540445164516  0.34737800220022
 6  17.65545238393839  0.44701043494349 -0.16284079187919
 6  18.55289514051405  1.43407202620262  0.53615230813081
 6  20.06612650855086  1.45908153345335  0.11162392279228
 6  20.05944687418742  1.90924035523552 -1.34048045704570
 6  20.97446791239124  2.33495723182318  1.07787418811881
 1 -3.96790495809581  3.28670505480548  2.09857209550955
 1 -10.02024960996100  4.16944638113811 -0.36751542544254
 1 -10.66471481138114 -2.29612562256226 -1.28940883478348
 1 -2.64045009650965 -1.26441680578058  1.85486728142814
 1 -1.99084965256526  1.46257620872087  1.73218271667167
 1 -2.12515003090309  0.23199062076208  3.86865359065907
 1 -3.20813411371137  1.54396904050405  4.07444654585458
 1 -4.02570314971497  0.27295799809981  3.76336518221822
 1 -2.18343779767977 -1.56058993669367 -0.71946880318032
 1 -2.25913185178518  0.15272274657466 -0.60566922762276
 1 -0.30363468686869  0.27256138203820  1.07743377387739
 1 -0.50132314521452 -1.54173335333533  1.33734085308531
 1 -4.59007366476648  5.99115725332533  0.44486762476248
 1 -5.73448466726673  6.72883800250025  1.72890848784878
 1 -4.61466324332433  5.33135298469847  2.35181624222422
 1 -7.84909500840084  7.15459249294929  0.74142544884488
 1 -9.53929932273227  5.79544753025302 -1.38457785378538
 1 -9.67954223342334  7.49074435973597 -0.91551125522552
 1 -12.30694524192419  3.71496199469947 -0.22911531013101
 1 -11.88107703000300  3.66848181288129 -1.98370558805881
 1 -13.22548994899490  2.62444806300630 -1.36400944784478
 1 -12.83099792569257 -1.15663578987899 -1.14713928772877
 1 -13.43054379667967  0.31033069446945 -1.26573025032503
 1 -12.60815533053305  0.52082909800980 -3.53926276967697
 1 -11.51388759645965 -1.06429582598260 -3.05197599429943
 1 -13.41030910411041 -1.13875123322332 -3.65362922162216
 1 -10.15611315811581 -4.43828592049205 -0.40547635153515
 1 -9.10651256145615 -4.70518753225323 -1.99255977657766
 1 -8.45549725522552 -5.48176895679568 -0.45485013851385
 1 -3.57059278657866 -3.34061141244124 -0.35444850465046
 1 -1.97937480548055 -6.35747235093509  2.34183988798880
 1 -1.83542011371137 -4.74992473147315  3.21661611191119
 1 -3.32221327672767 -5.54976197619762  3.25631715191519
 1  2.66305809760976 -2.24851159225923 -1.49321645494549
 1  2.47861970487049 -0.33059449744975 -2.08459607890789
 1  4.22112354825483 -1.16066413691369  0.16655569997000
 1  4.62450771527153  2.23744144194419 -2.06400898829883
 1  5.71399836363636  1.03218917411741 -3.11678474557456
 1  3.88629511471147  0.79319212511251 -2.82614797169717
 1  6.78263836093609  1.59581272517252 -0.41740694109411
 1  6.24176200200020  0.04148856355636  0.67032672677268
 1  7.28546920002000 -1.31184522992299 -1.17168201430143
 1  7.55160491159116  0.27624312891289 -2.02736159385939
 1  8.90364480608061  0.80763861536154  0.17928918741874
 1  8.90367309720972 -0.80399748674868  0.82637549044904
 1  10.24043090839084 -0.11267106880688 -1.83094381728173
 1  9.30624781238124 -2.42958162096210 -1.88199742524252
 1  11.03358021902190 -2.27281895829583 -1.55461120672067
 1  9.90084852665267 -2.60801267876788 -0.10074359585959
 1  11.02665685578558  0.92326995079508  0.16776023862386
 1  11.06597416681668 -0.46956544204420  1.11878239993999
 1  12.49056556455646 -1.73405728472847 -0.39491293409341
 1  12.75753607020702 -0.33473074597460 -1.58136145464546
 1  13.59177021252125  1.21930232603260  0.45771094519452
 1  14.03442827832783 -0.45222817681768  1.34775435163516
 1  15.31034253165317 -0.16429322952295 -1.32376902670267
 1  14.99143453845384 -2.50723900770077 -0.50942496299630
 1  16.54541127742774 -2.03971981148115 -0.53709510211021
 1  15.65668838643865 -2.10629024762476  0.89716241754175
 1  15.78379557115712  1.51189427812781  0.80298414201420
 1  16.40789711241124 -0.13729992089209  1.37641963876388
 1  18.23225930323033 -0.60378885748575  0.00514582988299
 1  17.67912063746375  0.69261222432243 -1.33615091969197
 1  17.93882558845885  2.36088481618162  0.45558205320532
 1  18.62305531973198  1.22579141594159  1.65717697329733
 1  20.46759498929893  0.48196893059306  0.16893983108311
 1  19.82961565876588  3.00748288038804 -1.47504247844784
 1  21.10211872907291  1.88725432923292 -1.53901922532253
 1  19.52230046584658  1.17881791839184 -1.88525370657066
 1  21.07213222632263  1.93594314461446  2.04324825262526
 1  21.87247108880888  2.16217433403340  0.54246614641464
 1  20.58331599429943  3.48749842034203  0.94995760016002
 1 -7.18128191069107  1.78738301030103  0.35213847064706
 1 -7.38621998859886 -0.29433430903090 -0.08377169736974

