%nproc=4
%Mem=2GB
# td=(NStates=1) B3LYP/SVP 

TD

0 1
 6 -5.15502835333533 -1.84417422342234  0.46192481758176
 6 -4.88961511971197  2.86166639563956  1.34926160226023
 6 -9.58789803340334  3.26880307660766 -0.13283789999000
 6 -9.88464031513151 -1.62430402500250 -0.82313845924592
 7 -5.21059780778078  0.47199366046605  0.89331678967897
 6 -4.45863396099610 -0.62227121072107  0.77520360596060
 6 -3.02170392409241 -0.38440892439244  1.23650690009001
 6 -3.09779393179318  1.04711982958296  1.73526803220322
 6 -4.49511446954695  1.46031307670767  1.38540045144514
 6 -2.73304980288029  1.15398369936994  3.22171202920292
 6 -2.00214555735574 -0.61879689378938  0.08733534123412
 6 -0.53741212931293 -0.48170702550255  0.47224498959896
 6  0.48953345924592 -0.92853977127713 -0.59677553475348
 8  0.19417915381538 -1.14363405330533 -1.73757621222122
 8  1.70520559575958 -0.85604202270227 -0.14540953295330
 7 -7.22781596259626  2.75962070397040  0.57056765076508
 6 -6.14538871987199  3.42791952445245  1.08263238863886
 6 -6.47925919841984  4.81060914471447  1.11157270897090
 6 -7.74887795229523  5.03770509350935  0.55278050815081
 6 -8.30504595499550  3.72211080998100  0.15923726002600
 6 -5.59340849724972  5.88286206860686  1.58404440834083
 6 -8.42807939613961  6.27449716741674  0.30985603990399
 6 -9.27010453325333  6.57742703330333 -0.65502411871187
 7 -9.30487388668867  0.74413288788879 -0.46321329672967
 6 -9.97899967736774  1.94342764446445 -0.47729654035404
 6 -11.43060929892989  1.77844148364836 -1.00380445174517
 6 -11.54858029852985  0.41328536993699 -1.15196525812581
 6 -10.21916862526253 -0.12886993639364 -0.76750023042304
 6 -12.41942613981398  2.96107867696770 -1.06301073017302
 6 -12.73615371277128 -0.35119421782178 -1.75603783878388
 6 -12.44112858245825 -0.75414006040604 -3.16213339773977
 7 -7.55940906660666 -1.32800711521152 -0.28740508560856
 6 -8.65936192169217 -2.06398301250125 -0.57366429482948
 6 -8.16469007620762 -3.40953555505551 -0.60349408790879
 6 -6.82245427362736 -3.37798368266827 -0.23537564286429
 6 -6.45982452205221 -2.00868266736674 -0.07256510241024
 6 -9.12460644574457 -4.50272367236724 -1.02069457625763
 6 -5.71388751025103 -4.26848207510751  0.01045371497150
 8 -5.52121397749775 -5.52583909260926  0.07991491189119
 6 -4.46310191479148 -3.21163827652765  0.42993824342434
 6 -3.82127454225423 -3.74413810901090  1.66621850715071
 8 -4.00674328602860 -3.21230218611861  2.84200466446645
 8 -2.84562707840784 -4.60217049834984  1.54258000100010
 6 -2.39617314761476 -5.33440434573457  2.64949141944194
 6  2.78076812021202 -1.23686237683768 -1.08088229352935
 6  4.07957206700670 -0.84232885628563 -0.43837045024502
 6  4.93526582678268  0.05109415701570 -0.92944834943494
 6  4.89613012321232  0.89448329002900 -2.18262080108011
 6  6.33453716581658  0.03105573387339 -0.18236970007001
 6  7.54995922312231 -0.49142847594759 -0.96935428882888
 6  8.85411888888889 -0.50538574547455 -0.03391827172717
 6  10.14907676237624 -0.77460194279428 -1.03137411731173
 6  10.25686948034804 -2.27257242304230 -1.47822193689369
 6  11.45839651425142 -0.26471614221422 -0.13682615061506
 6  12.84039262386239 -0.37783626202620 -0.93782165936594
 6  13.98071447864787 -0.11810451355136  0.10592695529553
 6  15.32825464656466 -0.28648168396840 -0.56048988478848
 6  15.60933826142614 -1.71851601350135 -1.13021275677568
 6  16.34412700990099  0.27669858105811  0.49076234063406
 6  17.84341117981798  0.56537227112711 -0.11104561236124
 6  18.61593144414441  1.40312893189319  0.88124681758176
 6  20.14768466436644  1.56173179847985  0.41750451085109
 6  20.21115204470447  2.19235866706671 -0.90923733273327
 6  20.95409587518752  2.28030176627663  1.40774717541754
 1 -4.03304147174717  3.43196958125813  1.68502074037404
 1 -10.38478606360636  4.11113054955496 -0.00838951285128
 1 -10.74056239613961 -2.30565657565757 -0.83805369926993
 1 -2.64913096459646 -0.89306967106711  1.99282107680768
 1 -2.40323089068907  1.54745469656966  1.21685118351835
 1 -1.52125964186419  0.86976439813981  3.18253497879788
 1 -2.95097839813981  2.16182082568257  3.69313841504150
 1 -3.22080265966597  0.40442114441444  3.97482632833283
 1 -2.02482193609361 -1.42857673537354 -0.49257611391139
 1 -2.20914685328533  0.07634510881088 -0.63028168886889
 1 -0.17670199359936  0.49526365226523  0.93285931643164
 1 -0.35338835173517 -1.17227640764076  1.36765388438844
 1 -4.74246890429043  5.96863500110011  0.94241737973797
 1 -6.27597881668167  6.95581069976998  1.40428602560256
 1 -5.36082785978598  5.66885673507351  2.60929198979898
 1 -8.20019011791179  7.08774580828083  0.91039234553455
 1 -9.62920831363136  6.05032301780178 -1.59125852185219
 1 -9.79573385258526  7.67143242854285 -0.62904260836084
 1 -12.79864441184118  3.34926542504250 -0.10684308290829
 1 -11.87639656195620  3.88347331203120 -1.42104932243224
 1 -13.34021142114212  2.58714433263326 -1.61966501340134
 1 -13.09761458735874 -1.15724585088509 -0.96936150995100
 1 -13.55638638093810  0.41710137153715 -1.76847052435244
 1 -12.30365488048805  0.12181919701970 -3.72137098049805
 1 -11.31295750345035 -1.09856925332533 -3.19371016771677
 1 -13.13376144934493 -1.58472583068307 -3.55312917161716
 1 -10.08995654245425 -4.62207429932993 -0.28844464836484
 1 -9.48646055625562 -4.53928094159416 -2.13045356595660
 1 -8.55602730823082 -5.53755453535353 -0.74658931243124
 1 -3.70138586588659 -3.34103145444544 -0.31938499829983
 1 -1.43813068106811 -5.91861846554655  2.22479818381838
 1 -2.33870044174417 -4.42971271027103  3.56045049534954
 1 -3.31659271467147 -5.89711671167117  3.06659818001800
 1  2.74526631843184 -2.22608935003500 -1.24953208650865
 1  2.53324516741674 -0.78607004500450 -2.08217583688369
 1  4.08535997189719 -1.13632170267027  0.56180522492249
 1  5.13235850035004  1.85491318911891 -1.91141372877288
 1  5.57715467926793  0.89623557875787 -3.14358742584258
 1  3.88696518171817  0.83871667756776 -2.56005136203620
 1  6.47686778387839  1.02339548344834  0.18460325992599
 1  6.25895372117212 -0.55047063236324  0.62753244734473
 1  7.48552920602060 -1.57622166756676 -1.23681852795279
 1  7.82106185728573  0.24763026762676 -1.72705156285629
 1  8.98646308790879  0.53967181868187  0.24895615411541
 1  8.89198192809281 -1.22968005500550  0.75485833873387
 1  10.01206807210721 -0.02845264696470 -1.61921264416442
 1  9.37848503610361 -2.64905356815682 -2.11173039853985
 1  11.09147600860086 -2.41209288568857 -2.39022476807681
 1  10.43138157995800 -3.17604948244824 -0.63698722022202
 1  11.14623881398140  1.14101172497250 -0.16565310271027
 1  11.49182675207521 -0.71214970047005  0.89919044074407
 1  12.77799430743074 -1.50616449544954 -1.10832427522752
 1  12.82228254485448  0.34511723882388 -1.81619493799380
 1  13.77784882038204  0.91808220402040  0.60172534663466
 1  13.84511934743474 -0.80995394939494  0.90859043524352
 1  15.31966346374637  0.50985418521852 -1.47310396019602
 1  14.90613600860086 -2.21337962176218 -1.79575359585959
 1  16.61446818311831 -1.60607644714471 -1.55974736733673
 1  15.71169388698870 -2.52852247084708 -0.27719501820182
 1  16.02516970857086  1.34286737543754  0.98631247484748
 1  16.51209753245325 -0.34413060396040  1.18352034883488
 1  18.32477855515551 -0.47147562616262 -0.38515320002000
 1  17.64403712911291  1.26216918001800 -0.95481278587859
 1  18.00073177907791  2.44274300200020  0.97020351535154
 1  18.54180719491949  0.71431026782678  1.78062931853185
 1  20.49715794559456  0.44635536923692  0.55184812191219
 1  19.70526322352235  3.20222235433543 -1.03596857105711
 1  21.35456397359736  2.25732133593359 -1.12556788018802
 1  19.97509574537454  1.47631766836684 -1.68082326352635
 1  20.87221223432343  1.74176372667267  2.34384831263126
 1  22.07126096779678  2.54517263386339  1.13586548634863
 1  20.46642430513051  3.19825949644965  1.76639924432443
 1 -7.26035981848185  1.71816608860886  0.48707196399640
 1 -7.71181254785479 -0.39217409300930 -0.11195451565157

