%nproc=4
%Mem=2GB
# td=(NStates=1) B3LYP/SVP 

TD

0 1
 6 -5.15064791529153 -2.03358316431643  0.36233485858586
 6 -4.57002316051605  2.72598282728273  1.18799547564757
 6 -9.11865110871087  3.36367256355636 -0.32275689188919
 6 -9.85440729182918 -1.40252184678468 -0.80024617001700
 7 -5.26094284228423  0.41409787088709  0.83301075907591
 6 -4.48477657525753 -0.81443042664266  0.81225731133113
 6 -3.01039279297930 -0.58514899839984  1.17546079547955
 6 -3.07193134553455  0.72481759935994  1.87177168256826
 6 -4.33977893599360  1.36812385778578  1.27020893229323
 6 -3.20794729262926  0.63840214121412  3.41547140514051
 6 -2.07156249904990 -0.77109212331233 -0.08543193549355
 6 -0.60197858595860 -0.90232908770877  0.39630739583958
 6  0.40743524942494 -1.02936985428543 -0.77465332253225
 8 -0.06435669976998 -1.26139582948295 -1.88367082168217
 8  1.65221029622962 -0.80888730723072 -0.27823281528153
 7 -6.94179736073607  2.63967870977098  0.47310790479048
 6 -5.83887806880688  3.35073180568057  0.94837896329633
 6 -6.08853012551255  4.78171625542554  0.99932148384838
 6 -7.39478254275428  4.90241156415642  0.47932316241624
 6 -7.86936238663866  3.60978957785779  0.19857119341934
 6 -5.08368752515251  5.75464924732473  1.56602260616062
 6 -8.09161574977498  6.28564828252825  0.35257031133113
 6 -8.95848337113711  6.66057534813481 -0.66874549084908
 7 -9.14431783108311  0.92361083568357 -0.48558553395340
 6 -9.75767754515452  2.11821512321232 -0.52211102180218
 6 -11.22192843084308  2.12324596409641 -0.96393046434643
 6 -11.33701914241424  0.71963600500050 -1.15369543114311
 6 -10.10568727712771  0.03312626322632 -0.80095357575758
 6 -12.21730592779278  3.17322989208921 -1.21101553065307
 6 -12.59797989538954 -0.04917401580158 -1.67548978397840
 6 -12.69840431003100 -0.46306095249525 -3.16224340874087
 7 -7.61893501920192 -1.26308062256226 -0.23758010311031
 6 -8.69068505400540 -2.05546216041604 -0.63708063646365
 6 -8.29819342654265 -3.43285788728873 -0.53592733123312
 6 -7.01785381358136 -3.43574945924592 -0.14699680498050
 6 -6.51642018161816 -2.05127692679268  0.03646580068007
 6 -9.24993897899790 -4.59444284428443 -0.84020652745275
 6 -5.93137925942594 -4.30460568746875  0.21344401400140
 8 -5.81464332043204 -5.55300180888089  0.09846676707671
 6 -4.71598720332033 -3.39482659535954  0.49832508210821
 6 -4.12274468926893 -3.93934762996300  1.80701258655866
 8 -4.43361597329733 -3.56211716761676  2.94545500950095
 8 -3.16025854155416 -4.86021630293029  1.71037678067807
 6 -2.76963049334933 -5.45037594289429  2.91318778907891
 6  2.63457350075007 -0.82877156775678 -1.31595580088009
 6  4.06753086288629 -0.77110173357336 -0.67668428162816
 6  5.10047234743474  0.03322236983698 -0.96483188778878
 6  4.97629814001400  1.01128497019702 -2.09920245924592
 6  6.42104581668167  0.00850347864786 -0.14369583268327
 6  7.61657588478848 -0.39263859695970 -0.95428278167817
 6  8.91102457945795 -0.46534174107411 -0.05233011291129
 6  10.11066292099210 -0.83306778937894 -0.91207218711871
 6  10.19437323072307 -2.30679584538454 -1.48917303200320
 6  11.39089976457646 -0.57372704330433  0.07757528952895
 6  12.73050163476348 -0.69688816721672 -0.66798467566757
 6  13.96087249444945 -0.39170187328733  0.40856721932193
 6  15.31876369746975 -0.18898193399340 -0.42011584738474
 6  15.77629495709571 -1.69906406830683 -0.94248398389839
 6  16.32508510571057  0.48925983718372  0.47603086748675
 6  17.70160699939994  0.98207394129413 -0.11510601840184
 6  18.55812566356635  1.68734735373537  0.88464715761576
 6  20.05536543244324  1.96591221652165  0.28300106050605
 6  19.89663059255926  2.58231766296630 -1.16427283628363
 6  20.88296876247625  2.85259899599960  1.09718611931193
 1 -3.73024119171917  3.28535491979198  1.64583682198220
 1 -9.90192777777778  4.29665910241024 -0.28612728662866
 1 -10.93092143204321 -1.92462847284728 -0.89890978487849
 1 -2.83447949944995 -1.35944630873087  2.00779257395740
 1 -2.19331989958996  1.31795174627463  1.57608710711071
 1 -2.17883539943994  0.49345676737674  3.78483520882088
 1 -3.41727502780278  1.72206685028503  3.67635673687369
 1 -4.02946352575258  0.08931963426343  3.66355520122012
 1 -2.30769022292229 -1.59143302100210 -0.67069392569257
 1 -2.10388632723272  0.09461693599360 -0.80953961466147
 1 -0.33447777117712 -0.03381925602560  0.94490052055206
 1 -0.51161417431743 -2.05418459845985  0.99743686268627
 1 -4.21347600500050  5.65451358895890  0.75482862086209
 1 -5.33069428822882  6.91106622532253  1.80889648664866
 1 -4.61559333633363  5.51445129452945  2.48546960756076
 1 -7.79924002290229  7.08060509420942  1.07486879317932
 1 -9.40977637043704  5.98861684718472 -1.44423381938194
 1 -9.21843612281228  7.65004028932893 -0.80207991209121
 1 -12.31871641904190  3.96430692919292 -0.28233063166317
 1 -11.95622454475448  3.86929189388939 -1.98613583108311
 1 -13.15775317531753  2.56510212841284 -1.46430947784778
 1 -12.78897372327233 -0.95447557385739 -0.94869944374437
 1 -13.41243198549855  0.55479514091409 -1.39858353565356
 1 -12.66112062706271  0.29136615171517 -4.01330017341734
 1 -11.81924813251325 -1.01440083648365 -3.36483728042804
 1 -13.80127820102010 -0.98080543864386 -3.27671152985299
 1 -10.33149069586959 -4.61088318021802 -0.28263406730673
 1 -9.56135804600460 -4.28436545004501 -1.86788730933093
 1 -8.77055876137614 -5.70381116101610 -0.67957261076108
 1 -3.97545327262726 -3.59012636393639 -0.30792385218522
 1 -2.05007187518752 -6.31237784148415  2.56756246024603
 1 -2.22809938163816 -4.64359409840984  3.40960541084108
 1 -3.63878493389339 -5.57356435643564  3.60404192439244
 1  2.68022981478148 -1.90228696979698 -2.12578971227123
 1  2.51768361126113 -0.20628206620662 -2.23127074637464
 1  4.21215265116512 -1.38597666816682  0.14590363476348
 1  5.26920218471847  2.04908260606061 -2.07622020942094
 1  5.39104606840684  0.68854480968097 -2.97963103020302
 1  3.90876736193619  1.07951075697570 -2.52162751965197
 1  6.59637973507351  1.13302644654465  0.21383618321832
 1  6.16527435323532 -0.65757134243424  0.68558825292529
 1  7.54021467456746 -1.42051609700970 -1.61924677077708
 1  7.91309106020602  0.46661216581658 -1.67625648334834
 1  9.13873831543154  0.72896074757476  0.35929718821882
 1  8.93922665256526 -1.25604269126913  0.81237409030903
 1  10.18622548784878 -0.02827262896290 -1.76096681958196
 1  9.60902809040904 -2.57665632843284 -2.45251447694769
 1  11.06438329932993 -2.48783045944594 -1.97985373097310
 1  10.04719316111611 -3.05573745124512 -0.69078259975998
 1  11.43304749484948  0.55306293009301  0.57887134973497
 1  11.51681925132513 -1.13929241474147  0.95244576627663
 1  12.99269577757776 -1.74066794579458 -0.98888233103310
 1  12.81093140974097  0.09257198429843 -1.58080139863986
 1  13.62646368186819  0.57647804360436  0.97655282938294
 1  14.02365720122012 -1.45378833283328  1.20867044324432
 1  15.02542403980398  0.37693089288929 -1.32851950175017
 1  15.21152654765477 -2.31203948774878 -1.53997801830183
 1  16.77019375567557 -1.57314315381538 -1.31287267986799
 1  15.92867558515852 -2.35802542114211 -0.05403270197020
 1  15.73897108870887  1.44146723542354  0.72795663926393
 1  16.36715303800380 -0.21169736063606  1.32495449224923
 1  18.04288036533653 -0.22255073367337 -0.45679036373637
 1  17.69855258065807  1.57887085018502 -0.93532083668367
 1  18.30761246714671  2.67518624632463  1.02669916491649
 1  18.67637065126513  1.06414525132513  1.85031628722872
 1  20.35582381218122  0.97272800650065  0.14890782788279
 1  19.39341203840384  3.44403653575357 -1.20712568676868
 1  20.92070058725873  2.68515411921192 -1.54885020842084
 1  19.24817305310531  2.00037007360736 -1.79834501570157
 1  21.25844085718572  2.64221377167717  2.17807173497350
 1  21.75002884458446  3.23464158075808  0.42159405920592
 1  20.61553921662166  3.91495116561656  1.20742334673467
 1 -7.01731551405140  1.69790406240624  0.07678093489349
 1 -7.68301966856686 -0.22514739033903 -0.19052237243724

