%nproc=4
%Mem=2GB
# td=(NStates=1) B3LYP/SVP 

TD

0 1
 6 -5.18493134363436 -1.97973777977798  0.45660428552855
 6 -4.76763292149215  2.69308953795380  1.40886756285629
 6 -9.35233447704771  3.37011320762076 -0.40298491469147
 6 -9.73901575267527 -1.57329892449245 -1.19901604700470
 7 -5.17516426442644  0.44229069016902  0.84921237923792
 6 -4.61310940854085 -0.75188417201720  0.89496558215822
 6 -3.07423917761776 -0.56147663116312  1.38415166456646
 6 -3.07036118851885  0.86441155875588  1.93157766316632
 6 -4.45197015511551  1.42794984038404  1.42332424382438
 6 -3.11917841574157  0.85155345634563  3.47571742974297
 6 -2.13389873267327 -0.85733074717472  0.13458006570657
 6 -0.69368775687569 -0.61164001880188  0.61707947304730
 6  0.29815432133213 -0.84237115441544 -0.48017387458746
 8  0.06658639453945 -1.12875256515652 -1.57702015661566
 8  1.63880895609561 -0.72122854135414 -0.01855684768477
 7 -6.98463164416442  2.74199894179418  0.41126172017202
 6 -6.00493467446745  3.35637236973697  0.94734886028603
 6 -6.30353162566257  4.69228731253125  1.23895544724472
 6 -7.57415047954796  4.98174949794979  0.58753398349835
 6 -8.04805025542554  3.62597119601960  0.06272760906091
 6 -5.38718787518752  5.81765554795480  1.83036904080408
 6 -8.19933652185219  6.20918063576358  0.31971702600260
 6 -9.08878640144014  6.55408469906991 -0.63544216051605
 7 -9.14186758605861  0.89558803340334 -0.45853282868287
 6 -9.83133491089109  2.12074537623762 -0.61596040674067
 6 -11.15505174317432  1.81768540804080 -1.13314738603860
 6 -11.25850129062906  0.52095613701370 -1.37774783638364
 6 -9.92879958835884 -0.02599964936494 -0.98752223262326
 6 -12.30463466066607  2.75684825392539 -1.16382081118112
 6 -12.42766286368637 -0.28982808120812 -1.84662689768977
 6 -12.37754222382238 -0.61449609600960 -3.29197638203820
 7 -7.38330145584558 -1.31690600510051 -0.38704504960496
 6 -8.51566755225523 -2.09641625582558 -0.79841677007701
 6 -8.19526313351335 -3.52607720922092 -0.67159089758976
 6 -6.78704073227323 -3.51120700500050 -0.16427853315332
 6 -6.42383092269227 -2.16681848094809  0.09028118221822
 6 -9.08706269136914 -4.65089848984898 -0.97784029082908
 6 -5.62848897039704 -4.26456168306831  0.05168783838384
 8 -5.58360021612161 -5.50453696239624  0.03349026942694
 6 -4.44739034363436 -3.37792490519052  0.54808005760576
 6 -3.90224263906391 -3.79010270547055  1.93722560786079
 8 -4.18889150085008 -3.26044700060006  2.95761622562256
 8 -3.27654016971697 -4.84837511881188  1.70552629562956
 6 -2.76499002930293 -5.56489739503950  2.91460793109311
 6  2.56338638203820 -0.80744943554355 -1.16748095339534
 6  3.93252736253625 -0.47357198059806 -0.54172078527853
 6  4.89586188638864  0.38492754035404 -1.02571797639764
 6  4.76102661286129  1.22700654235424 -2.24980751975197
 6  6.19716342844284  0.41770439873987 -0.26075753885389
 6  7.42141636883688 -0.19741907500750 -0.96044339773977
 6  8.75262873987399 -0.22483769066907 -0.12067694759476
 6  10.01664351905191 -0.69912439503950 -0.83096407630763
 6  10.03963775717572 -2.08212337813781 -1.49366348104810
 6  11.27928860346035 -0.38083775437544  0.01280881288129
 6  12.68233681828183 -0.44372285068507 -0.75833371057106
 6  13.88390479767977 -0.11217392049205  0.17806416901690
 6  15.27415923702370 -0.11252428822882 -0.44125796159616
 6  15.59578690629063 -1.58417257915792 -0.69623935943594
 6  16.29755235243525  0.49497040824082  0.34814807920792
 6  17.68540537923792  0.63590932483248 -0.25626013381338
 6  18.66001585258526  1.35010362936294  0.64791348424842
 6  20.17577747364736  1.30773639893989  0.10976373677368
 6  20.31602253175318  2.05316474767477 -1.27260366936694
 6  21.12537300290029  2.03325706180618  1.08396479717972
 1 -4.10966913451345  3.44264064836484  1.73048528682868
 1 -10.08166575157516  4.12286172267227 -0.40936961086109
 1 -10.73692203210321 -2.11302731273127 -1.67929782368237
 1 -2.57235328682868 -1.29324968906891  2.11833362806281
 1 -2.15587615521552  1.45856580768077  1.82917241564156
 1 -2.16806432233223  0.31202862456246  4.01234796009601
 1 -3.21102440274027  1.82333697729773  3.88971807300730
 1 -3.80048062746275  0.24316501880188  3.78770761646165
 1 -2.28195764966497 -1.88689256695670 -0.00151700800080
 1 -2.27196313491349 -0.06543906960696 -0.66881554225423
 1 -0.45474979837984  0.30440456635664  1.02311834233423
 1 -0.36837985088509 -1.44569374937494  1.38185530453045
 1 -4.30130478787879  6.02530066766677  1.30057319531953
 1 -5.93104432323232  6.74248936763676  2.13624922192219
 1 -5.14185596259626  5.59875972537254  2.80098115871587
 1 -8.02909300820082  6.97110414411441  1.13683498979898
 1 -9.20222561536154  5.96693467896790 -1.64762415841584
 1 -9.70627490669067  7.43932921822182 -0.79434913901390
 1 -12.48363291069107  3.41304180268027 -0.51848424702470
 1 -12.02804172647265  3.57042200690069 -1.96566378387839
 1 -13.30635803580358  2.47690330853085 -1.58943199009901
 1 -12.46789161506151 -1.17561768806881 -1.45950052385239
 1 -13.43162390469047  0.07273693509351 -1.70673435073507
 1 -12.39547406240624  0.31650866596660 -3.70014885828583
 1 -11.37279348704871 -1.20334973137314 -3.56174697139714
 1 -13.20340841404141 -1.22092945104510 -3.72746660536054
 1 -10.22229977677768 -4.67596968886889 -0.39218502240224
 1 -9.25057696789679 -4.69757677117712 -2.02919343994399
 1 -8.78623032853285 -5.73705448534853 -0.58961361486149
 1 -3.73450917821782 -3.52269962126213 -0.22573563336334
 1 -2.10090695869587 -6.30055665936594  2.48807451145115
 1 -2.07470404210421 -4.89353909290929  3.58790324062406
 1 -3.52194324972497 -5.85742274227423  3.54338585878588
 1  2.67216900870087 -1.87380412151215 -1.55494262756276
 1  2.49525136803680  0.02495105710571 -1.96382400170017
 1  4.16256769266927 -1.06102417291729  0.33181222562256
 1  5.21668693319332  2.16276397419742 -1.78163075047505
 1  5.51899886368637  0.85631158635864 -3.16261932903290
 1  3.78816530173017  1.15777858375838 -2.74455981288129
 1  6.38153825092509  1.45347849174917  0.06115091469147
 1  6.07165499129913 -0.11642722802280  0.65510520462046
 1  6.97878853195320 -1.23989803520352 -1.10589543564356
 1  7.62886263736374  0.22653815841584 -1.91513037073707
 1  9.06866130773077  0.77069492099210  0.31326258475848
 1  8.68709143904391 -0.91528861586159  0.78828168106811
 1  9.89463632893289  0.12719291759176 -1.58357908080808
 1  9.07619480708071 -2.16285494829483 -2.00735996149615
 1  10.97668452945295 -2.19469114551455 -2.00192593819382
 1  10.14569301110111 -2.59487136463646 -0.53025654715472
 1  11.16823101320132  0.66831445524552  0.52998646124612
 1  11.09158672807281 -0.93394187968797  1.05976649834983
 1  12.73377988598860 -1.44151803080308 -1.21737518031803
 1  12.43996431303130  0.29726245334533 -1.56727004550455
 1  13.66666770227023  1.02622301810181  0.56660183428343
 1  13.77611244674467 -0.67004995899590  1.11473104930493
 1  15.09964146154615  0.36524972477248 -1.25591224102410
 1  14.74495989098910 -2.16456474027403 -1.19635365586559
 1  16.37201393769377 -1.80225606510651 -1.41005239783978
 1  15.59669238683868 -2.03439305790579  0.22380508180818
 1  15.79824701630163  1.37900098879888  0.65703954755476
 1  16.38302462516252 -0.23780997189719  1.34611660846085
 1  18.11095717301730 -0.55167364596460 -0.25144982968297
 1  17.66180890629063  0.99242220532053 -1.31613891849185
 1  18.34296600250025  2.48527725542554  0.65295179017902
 1  18.44709772397240  0.78719755655566  1.66357761336134
 1  20.50512874267427  0.19493022672267  0.07517045414541
 1  19.81399409660966  3.21656378847885 -1.06158113231323
 1  21.37853637083708  2.05337094089409 -1.40484580798080
 1  19.71358959475948  1.40601063766377 -1.99802498369837
 1  21.36171118421842  1.35303485378538  2.09074300210021
 1  22.06817065876588  2.12124024062406  0.71949384918492
 1  20.73011067376738  3.01847151765177  1.14282688708871
 1 -7.08314209670967  1.79170344234423  0.31210446724672
 1 -7.66738810541054 -0.34286916251625  0.02064874467447

