%nproc=4
%Mem=2GB
# td=(NStates=1) B3LYP/SVP 

TD

0 1
 6 -5.21141399189919 -1.97314712071207  0.50385901100110
 6 -4.72493865206521  2.66808703770377  1.60387706380638
 6 -9.16803604720472  3.45586178247825 -0.31702631883188
 6 -9.88429028012801 -1.34021561616162 -0.99031517691769
 7 -5.08053480148015  0.43728018911891  0.74788224622462
 6 -4.56623472107211 -0.86877586118612  0.82574866046605
 6 -3.12521427512751 -0.79973045654565  1.28764201360136
 6 -3.06453060546055  0.74824994259426  1.89192369776978
 6 -4.43032799089909  1.27106415181518  1.38679059045905
 6 -2.82567906580658  0.77691599259926  3.40921077907791
 6 -2.05318066086609 -1.02460747484748  0.20066667436744
 6 -0.55781416951695 -0.97425628042804  0.60588835393539
 6  0.43404791069107 -1.28136505380538 -0.56619247644765
 8  0.09505924182418 -1.56418610851085 -1.65618807340734
 8  1.62883795899590 -1.05660207870787 -0.13340833283328
 7 -6.86977015801580  2.83376811871187  0.46959755375538
 6 -5.77379156015602  3.38632536503650  1.02422654805481
 6 -5.99369064156416  4.82116019981998  0.93544509620962
 6 -7.36799986448645  5.01621294429443  0.50794602470247
 6 -7.87261271167117  3.67683628252825  0.17795913221322
 6 -5.09488864526453  5.76261004340434  1.55178118201820
 6 -8.01817840604060  6.33482320002000  0.30985603990399
 6 -8.87905542834283  6.71794108470847 -0.54684330063006
 7 -9.07925132443244  1.07429590419042 -0.59147612301230
 6 -9.74570634803480  2.22371567326733 -0.60041885258526
 6 -11.10014625262526  2.04062770227023 -0.99800387168717
 6 -11.33256869736974  0.73200724212421 -1.18712877447745
 6 -9.94755146354636  0.11636458705871 -1.01105458585859
 6 -12.11046524372437  3.12633520262026 -1.14687911701170
 6 -12.56920701810181  0.02827372897290 -1.62732496749675
 6 -12.53098756835684 -0.20818546494649 -3.25982316671667
 7 -7.57270039573957 -1.25450976547655 -0.22084842994299
 6 -8.68307429292929 -1.90428704290429 -0.69922685108511
 6 -8.35651925912591 -3.35356995849585 -0.64726846534653
 6 -6.98677070527053 -3.39704558885889 -0.26912901820182
 6 -6.51860039963996 -2.04345614471447  0.09604175827583
 6 -9.16103008810881 -4.50208360836084 -0.98527103390339
 6 -5.83599972147215 -4.34609983688369  0.02045471507151
 8 -5.83591544764476 -5.52360886958696 -0.02865594519452
 6 -4.59088469306931 -3.44233134583458  0.44917016661666
 6 -3.95477789258926 -3.94289798499850  1.73956584188419
 8 -4.27858046974698 -3.60028098399840  2.79622008600860
 8 -3.06439895559556 -4.86302658395840  1.45130087308731
 6 -2.49603313361336 -5.53152405770577  2.55791226152615
 6  2.59302934633463 -1.25418410901090 -1.10673487878788
 6  3.91182529232923 -0.82154677807781 -0.38870548374837
 6  4.90367266746675 -0.20909186158616 -1.00807621222122
 6  4.75416592679268  0.42330617231723 -2.40523306230623
 6  6.16558027012701  0.16374900320032 -0.19433089618962
 6  7.36586081328133 -0.50133946704670 -0.87617497089709
 6  8.70640411741174 -0.40601580848085 -0.00035491539154
 6  10.02264411911191 -0.80962544514451 -0.73242422232223
 6  10.06362015541554 -2.44361952775278 -1.05524963966397
 6  11.17609828442844 -0.25713538413841  0.06755428742874
 6  12.57316590119012 -0.45356383478348 -0.63727160436044
 6  13.80474688188819  0.05813311021102  0.27333369596960
 6  15.12762458355835 -0.12214525032503 -0.28955279107911
 6  15.58115544314431 -1.50430459235924 -0.40402013751375
 6  16.18151074827483  0.85004591579158  0.41257452185219
 6  17.61319815851585  0.81415714961496 -0.18863337113711
 6  18.55744559555955  1.78281690069007  0.59207790069007
 6  19.99671956785679  1.89071469676968  0.01770453085309
 6  20.03131406090609  2.45704513571357 -1.37283369236924
 6  20.86957742334234  2.80491422752275  0.90568696939694
 1 -3.78250641824182  3.09034541884188  1.92061429972997
 1 -9.76645423042304  4.49076851335133 -0.35616429032903
 1 -10.74095243514352 -1.85784179417942 -1.28349824372437
 1 -2.86997304880488 -1.52916328042804  2.21639343404340
 1 -2.28793936153615  1.29455940704070  1.33039253765377
 1 -1.76352386828683  0.21016843854385  3.60501722702270
 1 -2.86167946824682  1.77478212181218  3.68267736893689
 1 -3.53938451785179  0.27541824412441  4.02552139783979
 1 -2.04530398429843 -2.07692156985699 -0.12646950325032
 1 -2.10414635323532 -0.13466599229923 -0.59759842054205
 1 -0.32056638003800  0.08614274017402  0.98615464596460
 1 -0.29543255615562 -1.70135931593159  1.44757187618762
 1 -4.21282593999400  5.99631776937694  0.84388752675267
 1 -5.57133835263526  6.70987610631063  1.56108170517052
 1 -4.47843962096210  5.30124997439744  2.34863592419242
 1 -7.51675177407741  6.89106614031403  0.98612991929193
 1 -9.44724011681168  6.10335832133213 -1.28103749974998
 1 -9.22431671087109  7.63575886118612 -0.58981868596860
 1 -12.31673622102210  3.55875637413741 -0.11361375997600
 1 -11.75614453675368  3.98790375507551 -1.93013023052305
 1 -13.01546894689469  2.76274189238924 -1.62476552345235
 1 -12.68681350725073 -0.99113924022402 -1.18183275707571
 1 -13.45243598589859  0.61681134253425 -1.29853353065307
 1 -12.61287580258026  0.78446546164617 -3.88637748114812
 1 -11.60087629532953 -0.61723111951195 -3.64977577427743
 1 -13.30484855805581 -0.94341169926993 -3.58556241494149
 1 -10.01077862466247 -4.49510160206021 -0.35543134703470
 1 -9.69043095329533 -4.42674968846885 -1.95077559815982
 1 -8.59036074157416 -5.40975175507551 -0.78789344284428
 1 -3.99982570987099 -3.66805415671567 -0.44858791859186
 1 -2.12437930593059 -6.65785238893889  2.08508421242124
 1 -1.68045461716172 -4.95572531153115  2.93734818511851
 1 -3.36973802920292 -5.69612661266127  3.57691921212121
 1  2.79682147394739 -2.35343208430843 -1.18710584388439
 1  2.54264610751075 -0.71558299629963 -2.22080970027003
 1  4.04365580148015 -0.88759683018302  0.75735477987799
 1  5.26138140264026  1.43928162596260 -2.41277386478648
 1  5.22288925272527 -0.28880292509251 -3.19204227132713
 1  3.67163364856486  0.42071487738774 -2.55980133703370
 1  6.41007110421042  1.27793093699370 -0.35396059645965
 1  6.20925875167517 -0.00635622092209  0.86234592869287
 1  7.18295894899490 -1.57872191759176 -0.97791263736374
 1  7.50781053215322 -0.17169166456646 -1.96381523922392
 1  8.82018646024602  0.60821867336734  0.65034629312931
 1  8.64061679157916 -1.30434752175218  0.91895474837484
 1  10.04715158045805 -0.35209501120112 -1.78250897379738
 1  9.04856204380438 -2.71504016681668 -1.58866809230923
 1  11.04063092409241 -2.52421409780978 -1.50504625022502
 1  10.09910835263526 -2.86594847234723 -0.11427494899490
 1  10.93680787088709  0.81034865866587  0.17779124172417
 1  11.12493006240624 -0.70386887238724  1.15879640134013
 1  12.68089459745975 -1.55827970697070 -0.92880632343234
 1  12.72821313791379 -0.02697997089709 -1.65205852435244
 1  13.55370640614061  0.97945834163416  0.54407958205821
 1  13.68747358285829 -0.52340529452945  1.37227680388039
 1  15.33005450285028  0.38698189798980 -1.42371902170217
 1  14.80156555155516 -1.95225350915092 -0.99405342584258
 1  16.64440117641764 -1.61643748324832 -0.97228862146215
 1  15.63905662326233 -1.98195781438144  0.58061076237624
 1  15.91126831843184  1.86459954865487  0.38231207480748
 1  16.36481280398040  0.38812262136214  1.40262225902590
 1  18.13857993529353 -0.07637611621162 -0.24745943064306
 1  17.62928565396540  1.13484644774477 -1.22865016961696
 1  17.98089979587959  2.79212794049405  0.43534002900290
 1  18.27589060326033  1.48935777257726  1.58595985158516
 1  20.71837006680668  0.83038377207721 -0.12676973987399
 1  19.84333703090309  3.67041917401740 -1.26835180938094
 1  21.01317983518352  2.59486509030903 -1.74257958135814
 1  19.28565680148015  1.91460149674967 -2.12445762696270
 1  20.96991200430043  2.28190774107411  1.87337126492649
 1  21.86887072877288  3.11724984158416  0.30993289308931
 1  20.21955961866187  3.82338200870087  1.07413001740174
 1 -6.74599838233823  1.76735100710071  0.36848010481048
 1 -7.50236160276028 -0.30359523512351 -0.16779009920992

