%nproc=4
%Mem=2GB
# td=(NStates=1) B3LYP/SVP 

TD

0 1
 6 -5.17981083158316 -2.03409321532153  0.40988961406141
 6 -4.74568072627263  2.68318854785479  1.50016669276928
 6 -9.30409965356536  3.43148934523452 -0.19042365856586
 6 -9.80067191829183 -1.31199279387939 -0.95747189258926
 7 -5.23290003800380  0.44053051415142  0.87573503150315
 6 -4.49717781538154 -0.76631561516152  0.77498358395840
 6 -3.07323907760776 -0.59575005850585  1.26428967836784
 6 -3.08609276167617  0.85672078967897  1.78613311871187
 6 -4.44947990609061  1.34137118251825  1.43608551995200
 6 -2.80364686258626  0.88874717571757  3.30788064606461
 6 -2.02503784658466 -0.82133714781478  0.09454606230623
 6 -0.62933132123212 -0.82834168896890  0.57477524262426
 6  0.26797130303030 -1.01742866016602 -0.59039489668967
 8 -0.01693195729573 -1.17239692959296 -1.68512096669667
 8  1.66117119231923 -0.86347276577658 -0.12701769376938
 7 -7.08957213821382  2.69071381328133  0.61961255525553
 6 -5.91025520652065  3.25474220672067  1.07588171357136
 6 -6.09586085858586  4.74132221602160  1.13804535623562
 6 -7.36444950945095  4.91424274727473  0.44516974707471
 6 -8.00155560596060  3.63313191209121  0.22800413671367
 6 -5.12572172857286  5.76007979037904  1.51398740264026
 6 -7.93223981218122  6.27179689738974  0.21083613791379
 6 -8.95424294709471  6.71473076367637 -0.50191880818082
 7 -9.22003540284028  1.01161963656366 -0.44605158055806
 6 -9.88443022042204  2.17994129582958 -0.51350016071607
 6 -11.31145738373837  1.93295693519352 -1.02506657795780
 6 -11.42287772827283  0.61886592799280 -1.13338339993999
 6 -10.17115382378238  0.03788673927393 -0.91886536693669
 6 -12.28199239643964  3.08997156625663 -1.14387881698170
 6 -12.60602069946995 -0.13169226762676 -1.58323055805581
 6 -12.70685515511551 -0.22670731713171 -3.16337352175218
 7 -7.63290641634163 -1.19146346084608 -0.18137448254825
 6 -8.67255324082408 -1.96396301050105 -0.57785471387139
 6 -8.27210081728173 -3.42194679617962 -0.61902564106411
 6 -6.92013404160416 -3.41677756205621 -0.23375548084808
 6 -6.53347188678868 -2.02699449854985  0.01929408350835
 6 -9.12210619571957 -4.49868326832683 -1.05518802560256
 6 -5.85259138063806 -4.23947917481748  0.01682435203520
 8 -5.68022987908791 -5.45526203490349 -0.08866194579458
 6 -4.64595019961996 -3.35175228792879  0.35357060666067
 6 -3.97968038283828 -3.82659635483548  1.70672255755576
 8 -4.16959957165717 -3.37087804370437  2.79030949494949
 8 -3.28293080878088 -4.94121440274027  1.42052779577958
 6 -2.65167869816982 -5.61103200850085  2.54829129942994
 6  2.59032907630763 -1.26263495409541 -1.17475168046805
 6  3.97051116091609 -0.97830245364536 -0.62785939913991
 6  5.01999429962996 -0.19010996339634 -1.07999340394039
 6  5.00080059025903  0.54700854255426 -2.39242178117812
 6  6.30032374447445 -0.09294666636664 -0.23847531063106
 6  7.58487271447145 -0.65468480158016 -0.97981533493349
 6  8.80103358035804 -0.38912411931193 -0.07997287718772
 6  10.12312416711671 -1.05902038463846 -0.73649462936294
 6  10.16601039443944 -2.58428359415942 -0.81543565826583
 6  11.30418109270927 -0.32285195579558  0.03397092909291
 6  12.74701328592859 -0.65171364976498 -0.68176605380538
 6  13.84022042924292 -0.01368407150715  0.20894725732573
 6  15.28653047414741 -0.07724075987599 -0.40575441124112
 6  15.80132746034603 -1.44727888978898 -0.43600333583358
 6  16.24490708790879  0.78318923012301  0.44275754015402
 6  17.74946178487849  0.68958469236924 -0.05764027182718
 6  18.52326217721772  1.93906252525253  0.61248994189419
 6  20.05372526842684  1.93238886418642  0.17326008640864
 6  20.27925885538554  2.32944237543754 -1.45168157715772
 6  20.85759622522252  2.91613534963496  1.01061746244624
 1 -3.94520268786879  3.50497688198820  1.59893213151315
 1 -9.90657824282428  4.37807724422442 -0.50791946584658
 1 -10.61633997389739 -1.81577758775878 -1.41232112601260
 1 -2.79364541604160 -1.34796516061606  2.03875567026703
 1 -2.36320688828883  1.53650360146015  1.28708820722072
 1 -1.78002551845185  0.52376979867987  3.67193391869187
 1 -3.01642494279428  1.99854449804980  3.78366746794679
 1 -3.34984556395640  0.17482818511851  3.80546939263926
 1 -2.13650310421042 -1.77162103980398 -0.48243509980998
 1 -2.31028696729673 -0.11227375307531 -0.53095175587559
 1 -0.17097142054205  0.14204833073307  0.77713374387439
 1 -0.30394340724072 -1.47877705770577  1.51394851385139
 1 -4.35560021742174  5.80519865746575  0.50715385338534
 1 -5.71220243904390  6.63556867556756  1.55849144614461
 1 -4.43819559655966  5.43443329272927  2.41389244984498
 1 -7.51829192809281  7.08572560626063  0.69635094139414
 1 -9.49441483428343  6.14273225872587 -1.38471786778678
 1 -9.28531281048105  7.74333961926193 -0.45325502960296
 1 -12.20184473187319  3.77651815031503 -0.24078647724772
 1 -11.99433835613561  3.78647361206121 -1.91781899939994
 1 -13.36234363436344  2.63109872807281 -1.20541358825883
 1 -12.49238406430643 -1.20084021032103 -1.28206278007801
 1 -13.62555329762976  0.22677233863386 -1.32226590389039
 1 -12.81182569756976  0.75967298239824 -3.67825666906691
 1 -11.95257146484649 -0.99122851925193 -3.53407420412041
 1 -13.72933100630063 -0.78319567766777 -3.27464132283228
 1 -10.36947449424943 -4.35825791769177 -0.86893269716972
 1 -9.07203911411141 -4.68527554105411 -2.34950547114711
 1 -8.61647335283528 -5.58403918381838 -0.60198485198520
 1 -3.96983271057106 -3.74500185148515 -0.51744480428043
 1 -2.21390825882588 -6.59969657335734  2.12263796779678
 1 -1.95611218291829 -4.83362310131013  3.14432888318832
 1 -3.45699675507551 -5.74913191319132  3.34760628082808
 1  2.62476426822682 -2.35908264936494 -1.45870300360036
 1  2.47535937883788 -0.81691312931293 -2.13370098939894
 1  4.21893332923292 -1.48387645814581  0.32072111651165
 1  5.31784704920492  1.56726442424242 -2.03341592899290
 1  5.66076304010401  0.22373832903290 -2.99532259935994
 1  4.00668715391539  0.41577438333833 -2.86926228312831
 1  6.56804690179018  0.87285042894289  0.07289208880888
 1  6.03312113791379 -0.74272985828583  0.67634732883288
 1  7.26175682878288 -1.61428547394739 -1.21131597769777
 1  7.67764751585159 -0.17364185958596 -2.01924078177818
 1  8.85230967256726  0.68882673417342  0.10708196669667
 1  8.74299702960296 -0.82187927492749  0.90278313121312
 1  10.08677554285428 -0.81225102680268 -1.71583230613061
 1  9.20103729132913 -2.88932759555956 -1.14067329282928
 1  10.93866072707271 -2.91823349974998 -1.45920166576658
 1  10.22357079887989 -3.05214709220922  0.18813529202920
 1  11.12619680978098  0.79729735353535 -0.02653919131913
 1  11.48478604800480 -0.86299478497850  1.00838135983598
 1  12.91581808980898 -1.64364824382438 -0.81452489528953
 1  12.82894321092109 -0.23993126602660 -1.64348766726673
 1  13.70055109060906  1.02508290409041  0.31705687978798
 1  13.69111394689469 -0.59109206320632  1.11033060926093
 1  15.25125662306231  0.26188938873887 -1.45022167196720
 1  15.18575397039704 -2.19055733953395 -1.11047506800680
 1  16.72377911421142 -1.60726656615662 -0.78377977057706
 1  15.80450316791679 -1.58761838043804  0.67756045734573
 1  15.81089828142814  1.75977906660666  0.56295013861386
 1  16.21322764546455  0.32857666676668  1.39786178297830
 1  18.24043012031203 -0.11417989658966 -0.02458714341434
 1  17.79591231663166  0.85964892799280 -1.13946125072507
 1  17.99190089598960  2.94188291599160  0.49730622562256
 1  18.49374238843885  1.99997883468347  1.70613186878688
 1  20.58897712751275  0.81838257195720  0.35831876897690
 1  19.91474417161716  3.35926805890589 -1.60761573577358
 1  21.37940645784578  2.16606221002100 -1.78062338573857
 1  19.77188542434243  1.53493352995300 -2.02361754295430
 1  20.97693270637064  2.92879242954295  2.30906483428343
 1  21.86827066876688  2.90226834343434  0.70095199499950
 1  20.72732039473948  4.18682835333533  0.70812341674167
 1 -7.17091087358736  1.75531980398040  0.42570582738274
 1 -7.68063943054305 -0.11366624222422 -0.34530785098510

