%nproc=4
%Mem=2GB
# td=(NStates=1) B3LYP/SVP 

TD

0 1
 6 -5.17650050055006 -2.03178298429843  0.43231185628563
 6 -4.62111827002700  2.64978520752075  1.49109578567857
 6 -9.12202144574457  3.48377457375738 -0.23213782998300
 6 -9.78496034713471 -1.31284287888789 -0.94948109350935
 7 -5.06792354035404  0.37828428952895  0.81505896389639
 6 -4.47157525512551 -0.85589457305731  0.83353943954395
 6 -3.05375712941294 -0.75550603410341  1.32476572597260
 6 -2.97266141854185  0.67947306490649  1.93508801420142
 6 -4.24130908900890  1.28846589198920  1.32443435483548
 6 -2.94825132303230  0.55962426342634  3.46113597159716
 6 -2.03185852865287 -1.03509852395240  0.11522813051305
 6 -0.56169455755576 -0.95093394819482  0.60781854695470
 6  0.41849635553555 -1.38993591089109 -0.50025588278828
 8  0.14601433733373 -1.92783247314731 -1.51941439603960
 8  1.64161923712371 -0.92553897239724 -0.24987997999800
 7 -6.87801098209821  2.65206994889489  0.54493508750875
 6 -5.72636681768177  3.29818655115512  1.13405753115312
 6 -5.94001527402740  4.73768185198520  1.05083663536354
 6 -7.25213827832783  4.96036735973597  0.44232946304630
 6 -7.78150360076008  3.63372197109711  0.19480081638164
 6 -4.95128428482848  5.73615739813981  1.40916692059206
 6 -7.78652524072407  6.30099981768177  0.25786084038404
 6 -8.89369689248925  6.72384167476748 -0.46990560686069
 7 -9.12096549584959  0.95025349995000 -0.49044602000200
 6 -9.78214999239924  2.20398370007001 -0.60766957765777
 6 -11.07655389338934  2.09430306980698 -0.98336240754075
 6 -11.33666910741074  0.72392643404340 -1.16076613821382
 6 -10.11215792419242  0.01278422902290 -0.91343482388239
 6 -12.03736793399340  3.22434500360036 -1.12667709680968
 6 -12.58645874327433  0.11409231083108 -1.71740397539754
 6 -12.51687615721572 -0.27395204160416 -3.22653983838384
 7 -7.45614874057406 -1.21530584508451 -0.24153049814981
 6 -8.62282826832683 -1.93160977517752 -0.61335826422642
 6 -8.29897350455045 -3.31369597109711 -0.72425616411641
 6 -6.98266029422942 -3.44826071037104 -0.29475158045805
 6 -6.48984752435244 -2.06714851395140 -0.01194904080408
 6 -9.29594357945795 -4.39649304930493 -1.06776928372837
 6 -5.87924404590459 -4.38155338223822  0.18627129672967
 8 -5.89413126922692 -5.58917542624262  0.07446436683668
 6 -4.69910551515151 -3.47145425812581  0.50909615921592
 6 -4.20906332113211 -3.95865956115612  1.86636852215222
 8 -4.47489010071007 -3.46473742964296  2.96778724272427
 8 -3.37301981768177 -4.93862414371437  1.65163090609061
 6 -3.03225675597560 -5.76153705900590  2.85730220052005
 6  2.65846588998900 -1.17180587118712 -1.28279248454845
 6  3.94865897569757 -0.76702132553255 -0.60578719191919
 6  4.94468676887689 -0.01320227262726 -1.23792919751975
 6  4.81831234143414  0.60865470717072 -2.63137567656766
 6  6.21430514261426  0.19301192949295 -0.46865832893289
 6  7.52754698189819 -0.23768310141014 -1.17645499889989
 6  8.77696117311731 -0.11330653755376 -0.24915979587959
 6  10.09296115081508 -0.70290477307731 -0.85785676557656
 6  9.85662945634563 -2.21454662046205 -0.98974308900890
 6  11.29225990059006 -0.20229990059006 -0.09539200720072
 6  12.57998658325833 -0.50015849424942 -0.69248712591259
 6  13.72244865206521  0.07831512841284  0.15502186478648
 6  15.22353417451745 -0.05683871967197 -0.42914675047505
 6  15.59203653125313 -1.56016017791779 -0.43480321582158
 6  16.27039963716372  0.75036594779478  0.36858012241224
 6  17.60557739643964  0.81491722562256 -0.17641214901490
 6  18.41426127712771  1.77924654365437  0.67691638453845
 6  19.96687658355836  1.89759538483848  0.30069282968297
 6  20.28348927842784  2.29209864106411 -1.16807321632163
 6  20.73228369396940  2.94069780588059  1.28698509920992
 1 -3.70769893749375  3.39318570287029  1.84752699099910
 1 -9.80364794979498  4.47911734823482 -0.38819749364937
 1 -10.66133447334733 -1.71372738273827 -1.45473536743674
 1 -2.78668471997200 -1.27761812591259  2.16827862256226
 1 -2.25118568616862  1.17810776187619  1.48356785518552
 1 -1.97260477637764  0.39615703740374  3.91463818911891
 1 -3.04883818411841  1.59197384098410  3.86742584378438
 1 -3.66519709910991 -0.24908420612061  3.95066391209121
 1 -2.35500495439544 -1.90235411311131 -0.39819667596760
 1 -2.09294523312331 -0.30462298799880 -0.78698735943594
 1 -0.16626094949495 -0.06033190729073  0.81504753525353
 1 -0.37937094999500 -1.80097927792779  1.25280239923992
 1 -4.16276093349335  5.71400953855385  0.65925906390639
 1 -5.27791901070107  6.88789390809081  1.38530412741274
 1 -4.48466024302430  5.47956780618062  2.43668472907291
 1 -7.39435953485348  7.06299333303330  0.85772707900790
 1 -9.54105949874987  6.15826381188119 -1.18179757575758
 1 -9.08757303650365  7.72425771107111 -0.58883858795880
 1 -12.24708925632563  3.91428192669267 -0.28198059665967
 1 -11.79904882718272  3.99057402210221 -1.87139435693569
 1 -12.97471487148715  3.10883650185018 -1.43819686658666
 1 -12.69362418831883 -0.68133826012601 -1.14118869266927
 1 -13.45604634693469  0.84534419581958 -1.53630730803080
 1 -12.13678819381938  0.64761177627763 -3.81705054845485
 1 -11.68987519521952 -0.98754815121512 -3.50605140184018
 1 -13.37705577877788 -0.69131648974897 -3.74090794949495
 1 -9.95567311411141 -4.32646473837384 -0.07376318021802
 1 -10.00583249344934 -4.21006802030203 -2.06281680228023
 1 -8.63387509300930 -5.34597537743774 -1.45755040854086
 1 -3.95989171647165 -3.68259561086109 -0.37926098589859
 1 -2.02118898689869 -6.29764636833683  2.55605130913091
 1 -2.61641821352135 -5.05530526952695  3.74822927322732
 1 -3.84603565896590 -6.55660266026603  3.14142566276628
 1  2.60268206000600 -2.21074781588159 -1.47551468476848
 1  2.41764360726073 -0.75242668066807 -2.23225084438444
 1  3.99200063596360 -0.97623569406941  0.61720076447645
 1  5.12541780628063  1.58870656845685 -2.49634222162216
 1  5.12637960176018 -0.04677872267227 -3.48656172327233
 1  3.74490097529753  0.68706151205121 -2.90322567946795
 1  6.43444354145415  1.22867601150115 -0.33921912231223
 1  6.20626845264526 -0.19951553685369  0.36996669076908
 1  7.28497915101510 -1.28697274267427 -1.53159800590059
 1  7.71951170227023  0.46206171077108 -1.97538639633963
 1  8.90468491009101  0.99558741024102 -0.10541928342834
 1  8.53791652155216 -0.57439452645264  0.64103695659566
 1  10.11435830113011 -0.13771357305731 -1.95528625152515
 1  8.95154234183418 -2.35423408620862 -1.37361658715872
 1  10.84543140414041 -2.67781945834584 -1.36935268086809
 1  9.94000244204421 -2.57812969046905  0.25272175067507
 1  11.20474466456646  0.82851047484748  0.03580704330433
 1  11.05543311271127 -0.65798428392839  0.94934545624562
 1  12.81661816981698 -1.75506938593859 -0.67624106690669
 1  12.66871718831883 -0.17930520342034 -1.62990630913091
 1  13.69122015751575  1.11984238003800  0.15540071417142
 1  13.91757659315932 -0.34266722072207  1.20155973217322
 1  15.18377987538754  0.37365056485649 -1.40567721752175
 1  14.79394478947895 -2.19246753055305 -1.19174319481948
 1  16.53386012231223 -1.73513935343534 -0.93980537313731
 1  15.87388010561056 -1.90854047264726  0.55028773007301
 1  15.97880507210721  1.72450553925393  0.30443428702870
 1  16.22416873957396  0.44305811491149  1.42193419021902
 1  18.01254733203320 -0.27070554915492 -0.36090077477748
 1  17.53413613901390  1.28123108620862 -1.19213651825183
 1  17.80132183808381  2.66319504720472  0.25702219721972
 1  18.14100711491149  1.65671450825082  1.87125838143814
 1  20.50124835463546  0.92064279797980  0.18712164926493
 1  20.14178687588759  3.60550268236824 -1.30968594279428
 1  21.32140065726572  2.14415001880188 -1.54640996439644
 1  19.71843007880788  1.57877791439144 -2.00079526072607
 1  20.34851986508651  2.86178572887289  2.32497642544254
 1  21.87279112081208  2.71501961856186  1.11860376017602
 1  20.66595425812582  3.93398306880688  1.02475507990799
 1 -6.86695047754775  1.73554782678268  0.47962121892189
 1 -7.59356072267227 -0.17101197679768 -0.46029935013501

