%nproc=4
%Mem=2GB
# td=(NStates=1) B3LYP/SVP 

TD

0 1
 6 -5.15034788528853 -1.91086089208921  0.28882750785079
 6 -4.79430558875888  2.81180140914091  1.41914859095910
 6 -9.45276452005201  3.33122931923192 -0.16490110631063
 6 -9.92082393349335 -1.40330192479248 -0.83811995739574
 7 -5.20654740274027  0.44979144024402  0.82454991299130
 6 -4.47547564516452 -0.66099508310831  0.68913499909991
 6 -3.03003475717572 -0.43658414191419  1.07340058945895
 6 -3.08431258365837  0.90071518911891  1.74809931533153
 6 -4.45349030713071  1.40750779617962  1.24117602900290
 6 -2.88322482038204  0.90026832783278  3.29669952795280
 6 -1.95054039683968 -0.68999401350135 -0.07412080438044
 6 -0.57997638573857 -0.76161501630163  0.43816158125813
 6  0.42704721062106 -1.10652757005701 -0.67045290249025
 8  0.08051778767877 -1.50671036093609 -1.79214166876688
 8  1.66748182338234 -0.89320573907391 -0.27395238723872
 7 -7.07786096709671  2.77590233213321  0.53035362936294
 6 -5.99786396739674  3.42830956345635  1.06533065846585
 6 -6.24710598309831  4.75129321312131  1.17832938463846
 6 -7.55223828832883  4.97303862686269  0.61454668476848
 6 -8.11388683908391  3.69776837573757  0.25580691699170
 6 -5.35749490589059  5.86568035043504  1.43029903380338
 6 -8.18653524172417  6.25905562326233  0.38203325762576
 6 -8.99441696449645  6.68829812041204 -0.61894051035104
 7 -9.28663206250625  0.89767824242424 -0.41708868426843
 6 -10.01020279767977  2.05356865856586 -0.36784559525953
 6 -11.36509274727473  1.85313895339534 -0.77626169746975
 6 -11.55168060856086  0.58775281668167 -0.98262832443244
 6 -10.20591730013001 -0.04446149554955 -0.75044852525253
 6 -12.42282647984798  2.93569613871387 -0.87319174827483
 6 -12.76965706310631 -0.21081017941794 -1.31449368436844
 6 -12.79433390299030 -0.68164281068107 -2.89696688108811
 7 -7.49633275897590 -1.16762107660766 -0.17105345044504
 6 -8.57174315981598 -1.99593620782078 -0.55264219261926
 6 -8.16848045524552 -3.43414801630163 -0.55469920842084
 6 -6.84288631683168 -3.35904178847885 -0.29172127742774
 6 -6.44897343694369 -2.01549334843484 -0.07966581248125
 6 -9.06013999909991 -4.61459485948595 -1.01053356015602
 6 -5.61621774327433 -4.20447567446745 -0.10607793819382
 8 -5.59392124822482 -5.39260576927693 -0.19798287788779
 6 -4.52038764336434 -3.32136924962496  0.20147539713971
 6 -3.90127254205421 -3.75667936313631  1.52431431673167
 8 -4.04497710941094 -3.39314026992699  2.57787825182518
 8 -2.87544005970597 -4.71291157245725  1.25949169216922
 6 -2.29711324162416 -5.33444434973497  2.41094756505651
 6  2.81384142754275 -1.12229091969197 -1.10632483778378
 6  4.04069817961796 -0.55220984438444 -0.48012462566257
 6  5.09165146534653  0.03819286688669 -1.29305471007101
 6  5.04699520972097  0.50144398609861 -2.73312585158516
 6  6.34316802890289  0.39752238053805 -0.52289375247525
 6  7.53610783798380 -0.52821215431543 -0.81468882228223
 6  8.79221269826983 -0.20598580548055 -0.06036091599160
 6  10.03199505420542 -0.80635511811181 -0.60819179907991
 6  10.00207400080008 -2.32856802260226 -0.59802391709171
 6  11.35441611621162 -0.25469514011401  0.03346087808781
 6  12.64889347394739 -0.73896237463746 -0.52006988418842
 6  13.75788219541954  0.06555385228523  0.18355471807181
 6  15.26449827092709 -0.31371440724072 -0.19669350515051
 6  15.61123845144514 -1.83308747064706 -0.11455119061906
 6  16.25478807600760  0.65214612581258  0.53974723912391
 6  17.67966480518052  0.70486622052205 -0.08501300910091
 6  18.55456530753075  1.79786840584058  0.53768246114611
 6  20.03744364026403  1.66939256455646  0.23449621002100
 6  20.28434936443644  1.72527195839584 -1.39330573957396
 6  20.82397286288629  2.68272200830083  1.06625302600260
 1 -4.16538470607061  3.18425480978098  2.04362660096009
 1 -10.13772135713571  4.13457289378938  0.01599292539254
 1 -10.53966230613061 -2.18326433643364 -1.09831972587259
 1 -2.73316936843684 -1.24484484858486  1.79805159985999
 1 -2.31244181178118  1.55315526662666  1.25662516091609
 1 -1.88850636653665  0.55559298099810  3.65846257155716
 1 -3.22633593389339  1.91527617121712  3.62527162836284
 1 -3.63805438483848 -0.05568486618662  3.80615946164616
 1 -2.20319977387739 -1.50889476717672 -0.83383023932393
 1 -2.01420735933593  0.21656913121312 -0.61675033573357
 1 -0.45355967936794  0.36392051795180  0.78649467996800
 1 -0.51136414931493 -1.51776095609561  1.43095021402140
 1 -4.46834149154915  6.10447858545855  0.81644478247825
 1 -5.91911313011301  6.94938005670567  1.46778237523752
 1 -4.87833961096110  5.73347319671967  2.57019808040804
 1 -7.72153225212521  7.12017905160516  1.00024133043304
 1 -9.17260265306531  6.00051803730373 -1.52304170017002
 1 -9.34467874707471  7.61612689798980 -0.80429013311331
 1 -12.86081062846285  3.28308880738074  0.24015161656166
 1 -12.28459738203821  3.87938290299030 -1.52298951645164
 1 -13.36224362436244  2.48626424462446 -1.32236528342834
 1 -12.64201902780278 -1.29306943324332 -0.82162673647365
 1 -13.63056379867987  0.38023768516852 -1.21998567586759
 1 -12.93974848984898  0.29346636173617 -3.47828667206721
 1 -11.89445565326533 -1.07996739313931 -3.21322211891189
 1 -13.72392046524653 -1.32687004510451 -3.31405526422642
 1 -9.95146269306931 -4.84528662056206 -0.29097490139014
 1 -9.46275818601860 -4.68589560306031 -1.94499502010201
 1 -8.21273297879788 -5.49514029392939 -1.03151780528053
 1 -3.59308503580358 -3.35177252855286 -0.50410347014701
 1 -1.61754862286229 -6.01806841054105  1.86486219021902
 1 -1.84939151085108 -4.55677541654165  3.13124757505751
 1 -2.89972102750275 -6.08964596459646  3.04055557575758
 1  2.77485927772777 -2.24297103820382 -1.33175030833083
 1  2.62818466136614 -0.66813825182518 -2.09857747704770
 1  4.27526896279628 -0.48796686718672  0.64203324772477
 1  5.51441670617062  1.40231792959296 -2.72730531793179
 1  5.90216718051805  0.03574953015302 -3.48115118221822
 1  4.16469295449545  0.52746555245525 -3.42326768366837
 1  6.29937003410341  1.50555369926993 -0.85958115851585
 1  6.37955578137814  0.21629604430443  0.50742043614361
 1  7.26774742784278 -1.74049809520952 -0.61585643174317
 1  7.73389314041404 -0.63639813521352 -2.13643250095009
 1  8.93402784438444  0.83264111561156 -0.31713045454545
 1  8.79439216911691 -0.49732681968197  0.95188804170417
 1  10.12264913021302 -0.55814561626163 -1.73392411531153
 1  9.04550173777378 -2.92265092789279 -0.99702892839284
 1  10.86255311631163 -2.85915759215922 -0.91349709530953
 1  9.83077151895190 -2.58469034653465  0.67315379387939
 1  11.17087127722772  0.84397202100210  0.29045250785079
 1  11.28389595899590 -0.41300978647865  1.05071559325933
 1  12.63154966296630 -1.70201408040804 -0.33526696949695
 1  12.74849516611661 -0.51660893379338 -1.64612793129313
 1  13.67713874937494  1.22588298409841  0.07919309340934
 1  13.56302113761376 -0.16628958295830  1.32599217541754
 1  15.30909240664066  0.21687488728873 -1.22100875067507
 1  14.67662305730573 -2.33501178497850 -0.66088010851085
 1  16.55112184848485 -2.34876071557156 -0.46527792039204
 1  15.32751546914692 -1.93691330993099  0.99407210851085
 1  15.80428762036204  1.53191628032803  0.37062090569057
 1  16.29673599629963  0.33455726482648  1.61765376217622
 1  18.26658273557356 -0.31705018361836  0.07483279857986
 1  17.73560628602860  0.82839580268027 -1.41464876947695
 1  18.27182888878888  2.82247097479748  0.35601209620962
 1  18.44249726392639  1.76339517631763  1.73752500810081
 1  20.34916314611461  0.53134386808681  0.42647558465847
 1  19.81468416561656  2.76354848694869 -1.91675664986499
 1  21.40677919511951  1.77537314111411 -1.51333665706571
 1  19.87928616441644  0.78052808940894 -2.08367354855485
 1  20.98299331243124  2.34893444374437  2.15746967476748
 1  21.78747258895890  2.66396451305131  0.65057695749575
 1  20.61086874957496  3.82560223072307  0.99810241464146
 1 -7.25693947644764  1.71014528652865  0.58027128392839
 1 -7.68757012361236 -0.03596847244724 -0.18981230143014

