%nproc=4
%Mem=2GB
# td=(NStates=1) B3LYP/SVP 

TD

0 1
 6 -5.21967481798180 -2.01298110411041  0.43854247934793
 6 -4.64090024822482  2.71050127912791  1.50084676077608
 6 -9.12018126172617  3.57154335063506 -0.24998961516152
 6 -9.83668551965197 -1.26195779037904 -0.86892303770377
 7 -5.13296004400440  0.32003846494649  0.86302376037604
 6 -4.56358445604560 -0.88046703030303  0.77956404200420
 6 -3.07390914461446 -0.73089357285729  1.16836008540854
 6 -3.00622477487749  0.64726984458446  1.83497800320032
 6 -4.31583654175417  1.28709575497550  1.29671158255826
 6 -2.82883938183818  0.63734203520352  3.25598545654565
 6 -2.08733407620762 -0.90206522062206 -0.00803419571957
 6 -0.66528491659166 -0.98337719251925  0.53700146524652
 6  0.41284579047905 -1.33543046034603 -0.54395025222522
 8  0.23566330223022 -1.85383507340734 -1.66239869446945
 8  1.60505558075808 -0.98759517801780 -0.10180517251725
 7 -6.87082026302630  2.75048979087909  0.36644723872387
 6 -5.84142832383238  3.34439117161716  0.99643376877688
 6 -6.02458373087309  4.77235531933193  1.23415496719672
 6 -7.32681574607461  5.02497382038204  0.64163939403940
 6 -7.91798724912491  3.74558315721572  0.27034837113711
 6 -5.14837399379938  5.70160394279428  1.89617562146215
 6 -7.86578316651665  6.35169488718872  0.47676273057306
 6 -8.70502802560256  6.81273056365637 -0.48498711501150
 7 -9.14206760606061  1.08894736933693 -0.50296727212721
 6 -9.75581735913591  2.35817911961196 -0.62724153485349
 6 -11.17963420142014  2.11800544004400 -1.08636270757076
 6 -11.36511195169517  0.68386242764276 -1.27987804940494
 6 -10.07782449084909  0.17495044564456 -0.97600108050805
 6 -12.15147934513451  3.18199076817682 -1.12719714881488
 6 -12.70260035743574  0.10253115471547 -1.80078231323132
 6 -12.38807327692769 -0.40387503390339 -3.36414359875988
 7 -7.45966909260926 -1.26422073657366 -0.30395674077408
 6 -8.63011899739974 -1.96566318051805 -0.63180010841084
 6 -8.30356396359636 -3.33580818231823 -0.66683042154215
 6 -7.02382441064106 -3.45829171347135 -0.19092119741974
 6 -6.58821736133613 -2.16512831193119  0.09829198329833
 6 -9.19429341444144 -4.46604000400040 -1.10953346014601
 6 -5.88798491999200 -4.43872909980998  0.07870053965397
 8 -5.86727858395840 -5.69323583228323 -0.04397747734773
 6 -4.71053665826583 -3.46992410511051  0.51067631723172
 6 -4.00382279707971 -3.89992368756876  1.70885277057706
 8 -4.16905951765177 -3.63215417131713  2.82985344934493
 8 -3.11278379407941 -4.83322360366037  1.45890163316332
 6 -2.54136766706671 -5.52268317361736  2.58114458475848
 6  2.74309435283528 -1.31683037363736 -1.02339654495450
 6  3.99415352515252 -0.79798442184218 -0.37875448864887
 6  4.96545884608461 -0.11191214361436 -1.09713511811181
 6  4.68404891509151  0.39103294499450 -2.50234277327733
 6  6.20369408150815  0.28468109640964 -0.34655611871187
 6  7.48718294549455 -0.34651398449845 -0.91000835423542
 6  8.71799527652765 -0.10973618051805 -0.05916079597960
 6  10.00444229892989 -0.72710719331933 -0.71156213611361
 6  9.98335212861286 -2.28614378017802 -0.51391550625062
 6  11.20320099469947 -0.12596226682668 -0.00080254825483
 6  12.57276586118612 -0.50984946334633 -0.68834671187119
 6  13.70185659285929  0.18616591349135  0.17891425402540
 6  15.14735655675567 -0.22152518831883 -0.28138197399740
 6  15.56448377597760 -1.66172033393339  0.00622088658866
 6  16.09348194539454  0.93922483368337  0.42322558695870
 6  17.60398723742374  0.82031776567657 -0.16925143294329
 6  18.51190104110411  1.96290490949095  0.38233692659266
 6  19.95071496739674  1.89474509980998  0.04496725712571
 6  20.14447537703770  2.04398382958296 -1.50465687468747
 6  20.94508497409741  2.89561329742974  0.71396779747975
 1 -3.85091325892589  3.38320470477048  1.87956019431943
 1 -9.83054063906391  4.43380281678168 -0.48946762066207
 1 -10.73821216111611 -1.82763877387739 -1.22779267316732
 1 -2.85299135063506 -1.36399676377638  2.05572736743674
 1 -2.13698426602660  1.28031798289829  1.35300479887989
 1 -1.78664618051805  0.60991841354135  3.68831555685568
 1 -3.14310761106111  1.81079572317232  3.79865896709671
 1 -3.61155173457346  0.01046174847485  3.83889273497350
 1 -2.34620407430743 -1.74314819251925 -0.62639949624963
 1 -2.28525446404640 -0.15239776547655 -0.86492515321532
 1 -0.26201052445245 -0.06542241634163  0.85296132663266
 1 -0.52471548444844 -1.75911509150915  1.31305842484248
 1 -4.41019567696770  5.97567570517052  1.01908504650465
 1 -5.48582980178018  6.75851096979698  1.98762435943594
 1 -4.78800057705771  5.31334118351835  2.90331139173917
 1 -7.58020811971197  7.25002203590359  1.11507281358136
 1 -9.18572396519652  6.09595758125813 -1.30912030803080
 1 -8.92655693489349  8.03726901220122 -0.69673937803780
 1 -12.37163171057106  3.69537003550355 -0.06365876447645
 1 -11.88310723302330  4.19995496019602 -1.86275349284929
 1 -13.16813421342134  2.93446906510651 -1.40709375627563
 1 -12.84440926682668 -0.76885701200120 -1.15331990579058
 1 -13.57600834313431  0.85490515191519 -1.65921959925993
 1 -12.16284079907991  0.33373038813881 -4.08594743814381
 1 -11.52506871457146 -0.95605500190019 -3.42880367706771
 1 -13.33431150435044 -0.92510986908691 -3.64535839453945
 1 -10.34692223902390 -4.26222831473147 -0.73530933483348
 1 -9.50538244844484 -4.35475248874888 -2.13308382898290
 1 -8.83370507600760 -5.50494127402740 -0.86826147964796
 1 -3.91803753105311 -3.74774212551255 -0.26186924672467
 1 -1.87712458045805 -6.14134073777378  2.08226393039304
 1 -2.04721129282928 -4.94913465246525  3.33450790109011
 1 -3.45183623902390 -6.21744874487449  3.09471099129913
 1  2.72086387818782 -2.52779952105210 -1.08206533983398
 1  2.56834867776778 -0.82002344034403 -1.96585420472047
 1  4.12460389628963 -1.26344441494149  0.53491253565356
 1  4.87877314181418  1.54457215501550 -2.66606919431943
 1  5.45809277307731 -0.25175922072207 -3.16947001410141
 1  3.63249973517352  0.32081488738874 -2.77935329222922
 1  6.13758385548555  1.45256840074007 -0.51146634703470
 1  6.21358918471847  0.22886730143014  0.79232892699270
 1  7.20723137623762 -1.52091613701370 -1.03807865396540
 1  7.68802855395540  0.14731023562356 -2.06637549524952
 1  8.92078652025202  1.00902875437544  0.12110336883688
 1  8.56551928182818 -0.68353544054405  0.98258111101110
 1  9.92172903820382 -0.54606440814081 -1.64164488738874
 1  9.06911409900990 -2.70600926372637 -0.94338356385639
 1  10.77701456245625 -2.92303397979798 -0.86179192479248
 1  9.88888733053305 -2.76115799329933  0.41304778327833
 1  10.90026421652165  1.13048067186719 -0.10702724012401
 1  11.24074164356436 -0.47440592609261  1.10520104180418
 1  12.62681918991899 -1.57185106410641 -0.59663310611061
 1  12.84668498509851  0.03431615871587 -1.65043836233623
 1  13.96947798329833  1.33196359215922  0.07666284038404
 1  13.71455629112911  0.20017706370637  1.30760033623362
 1  15.11107260466047 -0.00235703590359 -1.23737038683868
 1  15.04025942094210 -2.50966925072507 -0.45919994049405
 1  16.53684042034203 -1.93462930243024 -0.49235062766277
 1  15.69321203880388 -1.84494411301130  1.13749645094509
 1  15.42067925952595  1.92346543524352  0.11738558215822
 1  16.13388971167117  0.74492830193019  1.53692568936894
 1  18.12594867216722 -0.17798627722772  0.02545786108611
 1  17.54253697909791  0.91190415351535 -1.29894719931993
 1  18.10342204810481  3.08679740744074  0.20494698969897
 1  18.39577259145915  2.13778261506151  1.63855511111111
 1  20.23667189698970  0.82996373007301  0.25865880298030
 1  19.61102379957996  2.92693482558256 -2.22242721692169
 1  21.32895141234123  1.87989359315932 -1.59678500190019
 1  19.93803203900390  1.01609164576458 -2.30057523872387
 1  20.87350236333634  2.83312286258626  1.88566249404941
 1  21.92391623332333  2.60974909150915  0.34109600940094
 1  20.58393605630563  3.86139581008101  0.47399000340034
 1 -7.21820560306031  1.76347061906191  0.22969622642264
 1 -7.37160852745275 -0.28803367896790 -0.25525884608461

