%nproc=4
%Mem=2GB
# td=(NStates=1) B3LYP/SVP 

TD

0 1
 6 -5.12008485898590 -1.99755956195620  0.39714833993399
 6 -4.69833599179918  2.82268249724972  1.40501717781778
 6 -9.47088633223322  3.37658385468547 -0.15153977017702
 6 -9.78886073717372 -1.33889548414842 -0.89606575197520
 7 -5.18472522052205  0.50053651475148  0.78653611161116
 6 -4.53547164476448 -0.77508649224922  0.77155324092409
 6 -3.17438919261926 -0.52259274277428  1.19447269666967
 6 -3.07800195259526  0.85097021462146  1.84033853925393
 6 -4.35697065516552  1.43034007940794  1.31049296069607
 6 -3.15763226112611  0.82447074807481  3.32660251825183
 6 -2.13115845864586 -0.66188120222022  0.00310691839184
 6 -0.62800118821882 -0.67439629442944  0.47077484258426
 6  0.39070357625763 -1.05655257255726 -0.59481533873387
 8  0.10831056695670 -1.54357404730473 -1.65988844344434
 8  1.65506058125813 -0.80480689918992 -0.24493948594860
 7 -7.16644982598260  2.79854459635964  0.52550314431443
 6 -5.98448262926293  3.43736046854685  0.99544366976698
 6 -6.20758203070307  4.86304438823882  1.08772032373237
 6 -7.59249231373137  5.02509383238324  0.57444267436744
 6 -8.12738818921892  3.72805140404040  0.23471480778078
 6 -5.16053520992099  5.99832361476148  1.37189319321932
 6 -8.14174076227623  6.35591530923092  0.29776483078308
 6 -9.12030955375538  6.66971626222622 -0.64398301460146
 7 -9.18260165946595  0.95510398499850 -0.49459643504350
 6 -9.92023380078008  2.09902320402040 -0.54268307900790
 6 -11.34769100710071  1.89955359485949 -0.88552262356236
 6 -11.46520196069607  0.61393543494349 -1.07453751535154
 6 -10.06199290769077 -0.01352840224022 -0.77525100550055
 6 -12.34371856905691  3.02123469256926 -1.04557898699870
 6 -12.69671976937694 -0.22498159655966 -1.54837707270727
 6 -12.66840130973097 -0.53050769716972 -3.06265344974497
 7 -7.55275840154015 -1.27380169466947 -0.23249959505951
 6 -8.66953293879388 -1.98274488868887 -0.49989691809181
 6 -8.26173978117812 -3.35693029452945 -0.46256999549955
 6 -6.82686471467147 -3.43264914921492 -0.13777588288829
 6 -6.45452399199920 -2.03236503560356  0.12343449754975
 6 -9.09958394349435 -4.57188058805881 -0.69779228602860
 6 -5.68527464896490 -4.32452767966797 -0.02782011241124
 8 -5.63905576167617 -5.46629313801380 -0.22854593419342
 6 -4.59563516811681 -3.36782389508951  0.32723797339734
 6 -3.76543895869587 -3.86614030923092  1.46875876117612
 8 -4.04048666036604 -3.45818677457746  2.61122158615862
 8 -2.93568608430843 -4.85907618891889  1.27365310831083
 6 -2.25067859815982 -5.46003690899090  2.36523299359936
 6  2.70256029942994 -1.28290698129813 -1.11829603490349
 6  4.06752086188619 -0.91216583998400 -0.47205381858186
 6  5.04015631583158 -0.09050000240024 -0.94377978257826
 6  4.89839034923492  0.53971781348135 -2.45750828982898
 6  6.27286099819982  0.24064669296930 -0.24314577767777
 6  7.55682991019102 -0.38019735283528 -0.85367272067207
 6  8.88982245924593 -0.37673288018802 -0.03700858075808
 6  10.08997085178518 -0.78590307290729 -0.79371035093509
 6  10.13792758615862 -2.35086025182518 -1.07096121082108
 6  11.36594726932693 -0.36601627222722  0.01369890189019
 6  12.72845142974298 -0.50160863926393 -0.67382525972597
 6  13.85551195839584 -0.00835353845385  0.25300166276628
 6  15.27519934103410 -0.19408244404440 -0.36727056285629
 6  15.73120044764476 -1.68912307420742 -0.50284001950195
 6  16.28643124032403  0.60595150635064  0.47003026742674
 6  17.74815165386538  0.60424615851585 -0.09489399719972
 6  18.60301015201520  1.61574019301930  0.72303099599960
 6  19.98759865576558  1.64901052635264  0.27288004840484
 6  20.04288521802181  2.20962039323932 -1.22317872687269
 6  20.83296376197620  2.68325206130613  1.05540194089409
 1 -3.99011717931793  3.50255663996400  1.94461669997000
 1 -10.29858744374437  4.18201763826383 -0.36790546444644
 1 -10.68933727362736 -1.91013702370237 -1.26617651155115
 1 -2.80430648214821 -1.39456982108211  1.88553034773477
 1 -2.22315288288829  1.32669262036204  1.74798429682968
 1 -2.10515803170317  0.62026944864486  3.60983770907091
 1 -3.37696099639964  1.86051069466947  3.64732383358336
 1 -3.94209478887889  0.25139584188419  3.81636048174818
 1 -2.20109956385639 -1.49035291299130 -0.52669952625263
 1 -2.25325126372637  0.37134460876088 -0.56924558525853
 1 -0.44668899229923  0.06849097499750  1.11170720122012
 1 -0.86131914481448 -1.28573775377538  1.32728984798480
 1 -4.25877053445345  5.84876301390139  0.72157529552955
 1 -5.67907912671267  6.96784190289029  1.08890448744875
 1 -4.77165894289429  5.94065391479148  2.35676673727373
 1 -7.91096119501950  7.26257329102910  0.91178248454846
 1 -9.67847324012401  6.13463144864486 -1.29473886988699
 1 -9.71798607780778  7.59472475777578 -0.58646835093509
 1 -12.30956550395040  3.82442294079408  0.01638924032403
 1 -12.09045796809681  3.76496146084608 -1.84040125762576
 1 -13.40480788078808  2.77450306850685 -1.18784183108311
 1 -12.68086291219122 -1.21558168446845 -1.00751532533253
 1 -13.52514325662566  0.43773343474347 -1.31255493279328
 1 -12.67349186418642  0.32523953905391 -3.45710455385539
 1 -11.72401860956096 -0.96975637203720 -3.44474527122712
 1 -13.58538661186119 -1.12167952605261 -3.41289514821482
 1 -9.84493204000400 -4.59500159205921  0.16770096619662
 1 -9.70785269546955 -4.46682369586959 -1.58995951655166
 1 -8.42629433493349 -5.52796357625763 -0.77561221472147
 1 -3.92442817011701 -3.47648499979998 -0.60881394119412
 1 -1.52602947094709 -6.15602220592059  2.01823752775278
 1 -1.64927149884988 -4.67785752475247  2.94662911321132
 1 -2.93092414781478 -5.96745374537454  3.19243076327633
 1  2.53350514231423 -2.33264000510051 -1.26371350465046
 1  2.44420626352635 -0.82096353435344 -2.06872449174917
 1  4.04675611151115 -1.44346241674167  0.53479252365237
 1  5.13002826732673  1.67056475427543 -2.44368695609561
 1  5.77724468826883  0.02164812001200 -3.02434550165017
 1  3.88898538373837  0.35766857275728 -3.02212756965697
 1  6.61486158325833  1.36477962186219 -0.19560476087609
 1  6.13782160796080 -0.16086167146715  0.80300999509951
 1  7.43694434753475 -1.43231727712771 -1.02122696879688
 1  7.66644639573957 -0.02018651405140 -1.95508436613661
 1  8.92233667526753  0.67271512301230  0.11896315481548
 1  8.90307303720372 -0.85185227222722  1.05757861076108
 1  10.03670053535354 -0.27848765046505 -1.76610733363336
 1  9.24198138573857 -2.59279794259426 -1.66221544704470
 1  11.07468432943294 -2.71522319871987 -1.53099884548455
 1  10.14132257405741 -2.77455933343334 -0.02490601210121
 1  11.31647583768377  0.79879750355036  0.10200366296630
 1  11.10409797919792 -0.94791327682768  1.03433395509551
 1  12.90086659465947 -1.52619649864987 -0.86245968876888
 1  12.65384570117012 -0.16908418131813 -1.59356267476748
 1  13.98268930443044  1.05794619041904  0.56766194029403
 1  13.89870470597060 -0.64952790679068  1.12364194039404
 1  15.15629712711271  0.45262846264626 -1.17814446424642
 1  14.99767516251625 -2.27284556835684 -1.13572759325933
 1  16.70436717301730 -1.69440528002800 -1.26679807240724
 1  15.71426414401440 -2.20507012561256  0.55611831313131
 1  15.85694288588859  1.84055714441444  0.36982082568257
 1  16.21342766546655  0.54919872897290  1.43892588938894
 1  18.15794187148715 -0.39238771737174 -0.08268295299530
 1  17.67966069146915  1.00263322642264 -1.20231753635364
 1  17.94176588248825  2.55419414711471  0.60214670967097
 1  18.50173318751875  0.98295713251325  1.80847210281028
 1  20.60182841264126  0.68736947064706  0.31804474157416
 1  19.43746644384439  3.07453958605861 -1.44436941114111
 1  21.07632614981498  2.30773637743774 -1.51235655905591
 1  19.63667190299030  1.47467750435043 -1.99863504470447
 1  20.91963697679768  2.32481203150315  2.15992992079208
 1  21.90009385108511  2.64274239083908  0.66487838763876
 1  20.39953761646165  3.77181685218522  1.08546115051505
 1 -7.32864664716472  1.78367263926393  0.31992524932493
 1 -7.76344771137114 -0.24298917451745 -0.11295461566157

