%nproc=4
%Mem=2GB
# td=(NStates=1) B3LYP/SVP 

TD

0 1
 6 -5.01973482398240 -1.96181598759876  0.29353797889789
 6 -4.65327148534853  2.76498672767277  1.29887656375638
 6 -9.38171741534153  3.33209940624062 -0.13918853505351
 6 -9.98710056115612 -1.52835443004300 -0.82415856125613
 7 -5.15637238523852  0.42909937103710  0.70430788878888
 6 -4.41004910251025 -0.67887687128713  0.65339142474247
 6 -3.00610236393639 -0.48065854935494  1.13637688708871
 6 -3.03118727112711  0.87207232483248  1.80091459685969
 6 -4.44131909000900  1.39989703510351  1.24528644004400
 6 -2.99411590949095  0.96451475247525  3.30070992899290
 6 -2.01656699949995 -0.73267828192819  0.05002160986099
 6 -0.52956134423442 -0.64523337813781  0.40722848794880
 6  0.41951645754575 -1.01788870617062 -0.81313717091709
 8  0.04078381428143 -1.32507219711971 -1.90016247084708
 8  1.72256733193319 -0.80884730323032 -0.43999899189919
 7 -7.06224940594059  2.75649039093909  0.48394898889889
 6 -5.86543072407241  3.41783851635163  0.97725185058506
 6 -6.25897717021702  4.77789587338734  1.06515806750675
 6 -7.52249531403140  4.99943126612661  0.58035326542654
 6 -8.06687213761376  3.68785738463846  0.24021535783578
 6 -5.20007916431643  5.85576935933593  1.29945594949495
 6 -8.14220080828083  6.35785550325032  0.29596465076508
 6 -9.11877940074007  6.70750004060406 -0.64533314961496
 7 -9.21059445874587  0.89010748534853 -0.53483045844584
 6 -9.94062583998400  2.02280558225823 -0.50582939363936
 6 -11.31410764876488  1.87047068656866 -0.76003007430743
 6 -11.49102454295430  0.52358640004000 -0.92167222882288
 6 -10.18007471587159 -0.10982803220322 -0.85280876127613
 6 -12.39960415761576  2.89117168626863 -0.77236166526653
 6 -12.70269036643664 -0.32521161956196 -1.32512474747475
 6 -12.87879234883488 -0.59770441684168 -2.85503268766877
 7 -7.50122324802480 -1.24800911541154 -0.42535888098810
 6 -8.60125611111111 -2.05041165536554 -0.61199812821282
 6 -8.21788539573957 -3.51283588508851 -0.48071180968097
 6 -6.85272730093009 -3.37744362866287 -0.23904600990099
 6 -6.42340087968797 -2.12268406750675 -0.10014786068607
 6 -9.15941992709271 -4.73187658765877 -0.59878238503850
 6 -5.72103822532253 -4.28768399529953 -0.01769910031003
 8 -5.59027088318832 -5.57274378307831  0.00203712411241
 6 -4.48511411601160 -3.30637775047505  0.41432668226823
 6 -3.87846026082608 -3.76877057225723  1.68104999029903
 8 -4.22727533923392 -3.33340429632963  2.77217768176818
 8 -2.87321983768377 -4.64355463676368  1.42773851685169
 6 -2.42686621692169 -5.28102900820082  2.79549601990199
 6  2.63854389778978 -1.04325301590159 -1.52201640694069
 6  4.06476058585859 -0.87625224862486 -0.83127974117412
 6  4.91860416061606  0.03302234983498 -1.14123952855286
 6  4.86975748594859  1.06662050375038 -2.23999653865387
 6  6.25235894799480  0.14420704900490 -0.33920538363836
 6  7.51793602080208 -0.28432776587659 -1.05643299669967
 6  8.68703218021802 -0.27610281718172 -0.20031491139114
 6  10.00577243194319 -0.70119460206021 -0.94748572847285
 6  10.13461725512551 -2.24969013481348 -1.27947206190619
 6  11.33377405200520 -0.31420109070907  0.01888942094209
 6  12.80224880948095 -0.47156563496350 -0.73275115231523
 6  13.89240564776478 -0.07399010211021  0.12367873047305
 6  15.23556537763776 -0.15820885668567 -0.37478131393139
 6  15.50806813441344 -1.66870103200320 -0.64374410991099
 6  16.24553715091509  0.47518843004300  0.60844410881088
 6  17.70940777947795  0.54487022092209 -0.00562507030703
 6  18.56310616161616  1.46887550655065  0.93547224012401
 6  20.06692658855886  1.60705633093309  0.47873063346335
 6  20.24620555005501  2.00582001320132 -0.95357176617662
 6  20.85415588118812  2.46548028412841  1.45097149784979
 1 -3.84056222382238  3.32266865116512  1.94295653395340
 1 -10.01195878087809  4.17419685618562 -0.37151582548255
 1 -10.85057339723972 -2.30482649264926 -0.96599649354936
 1 -2.95095114661466 -1.11207157125713  2.02187398209821
 1 -2.28798936653665  1.46310626172617  1.27501700010001
 1 -2.08313582948295  0.42061948364836  3.65925265056506
 1 -2.78161146144615  2.08265290889089  3.75073417461746
 1 -3.95465604500450  0.39205990829083  3.55927477317732
 1 -2.05721517541754 -1.71829570727073 -0.61825868216822
 1 -2.19797573617362 -0.14806733243324 -0.86252491319132
 1 -0.10364468786879  0.35220934683468  0.65922195269527
 1 -0.34550756365637 -1.32406158615862  1.31285840484048
 1 -4.42286694409441  5.78920705830583  0.37227036503650
 1 -5.42195341414141  7.08390350905091  1.26223182018202
 1 -4.79009078607861  5.74350419981998  2.34632569316932
 1 -7.67950804970497  7.09908694239424  0.80039134543454
 1 -9.49356474927493  6.09989797529753 -1.12134153015302
 1 -9.52908718791879  7.69254453975398 -0.76417612171217
 1 -12.26254080148015  3.58245874437444  0.32170977237724
 1 -12.22878180048005  3.59822478717872 -1.61596881438144
 1 -13.56746414641464  2.55395101330133 -0.96693974087409
 1 -12.67811263716372 -1.25422554885489 -0.78423299709971
 1 -13.59300004230423  0.33896355775578 -0.98538221552155
 1 -13.01160567556756  0.24854186928693 -3.67356620002000
 1 -12.05044125182518 -1.16188558495850 -3.18532932963296
 1 -13.75781385458546 -1.46477383548355 -2.97518137683768
 1 -9.72362990979098 -5.11625371727173  0.49631382748275
 1 -9.69340125032503 -4.59806682018202 -1.52679319991999
 1 -8.45280698619862 -5.68726950685069 -0.58484313781378
 1 -3.96533226052605 -3.79082643394339 -0.47117017681768
 1 -1.91468833683368 -6.19218582228223  2.38649435343534
 1 -1.61531810351035 -4.52703244224422  3.31217566786679
 1 -3.36648770417042 -5.30727772777278  3.41373289348935
 1  2.58659045084508 -2.24402114321432 -1.75805293859386
 1  2.22114395729573 -0.50143158115812 -2.18663628292829
 1  4.15661709760976 -1.69645771627163 -0.07647860346035
 1  5.20792605710571  2.17081477927793 -1.90885347274727
 1  5.43286024982498  0.84989094429443 -3.19449251635163
 1  3.82556904210421  1.25303810971097 -2.71370672757276
 1  6.21229132623262  1.14288743264326  0.15685048464846
 1  6.15231305710571 -0.42316790209021  0.65508520262026
 1  7.57252790589059 -1.24021806720672 -1.45201004710471
 1  7.69554930603060  0.46817232183218 -2.00484934263426
 1  8.69549399099910  0.86766461796180  0.12217347584758
 1  8.65456818671867 -0.79177626462646  0.70965381828183
 1  10.20429729502950 -0.02329213091309 -1.99022974587459
 1  9.33646083368337 -2.53589225202520 -1.95477470297030
 1  11.19907676867687 -2.39281095749575 -1.74063980958096
 1  10.32880132193219 -2.82573445094509 -0.24461798329833
 1  11.23265745584558  0.75848347214721  0.14103756635664
 1  11.55136270567057 -0.83668215371537  0.99698021972197
 1  12.96116262426243 -1.63741762076208 -0.98373181598160
 1  12.59804012061206  0.17814054115412 -1.58511182968297
 1  13.73695473097310  1.05446584238424  0.23566874097410
 1  13.90097493299330 -0.54050700470047  1.14692426862686
 1  15.19034053145315  0.52323552335234 -1.28531518131813
 1  14.85633102810281 -2.03459174297430 -1.43708772927293
 1  16.65835257155716 -1.63294913441344 -0.76169756235624
 1  15.62821553915392 -2.25048466706671  0.18675137643764
 1  15.94369156075608  1.42957604630463  0.72579642324232
 1  16.09221554425443 -0.22245843674367  1.50890288708871
 1  18.23156923422342 -0.42363084168417 -0.01820650535054
 1  17.75235796119612  0.78980194329433 -1.07572487708771
 1  18.05815752165217  2.50392912061206  1.05552204720472
 1  18.70642365656566  1.14236307310731  1.99684093969397
 1  20.46365459525953  0.49509024272427  0.63858679577958
 1  19.56997969516952  2.94223635573557 -1.04581955615562
 1  21.45531404860486  2.33107871167117 -1.14524984838484
 1  19.91032926872687  1.26797683428343 -1.70714589578958
 1  20.86812182528253  1.92338188848885  2.48280220802080
 1  22.13212705440544  2.32916103270327  1.17154905470547
 1  20.56983464616462  3.55757542804280  1.57420002440244
 1 -7.09639342184218  1.78202247424743  0.20992424922492
 1 -7.61558292489249 -0.27947282288229  0.02685936573657

