%nproc=4
%Mem=2GB
# td=(NStates=1) B3LYP/SVP 

TD

0 1
 6 -5.11483433393339 -1.97444725072507  0.48603722882288
 6 -4.73700985918592  2.68725895489549  1.50564724082408
 6 -9.11051029462946  3.42385858215822 -0.37050166636664
 6 -9.77673952505251 -1.33603519811981 -1.03716986238624
 7 -5.19934668266827  0.39917637873787  0.82892035003500
 6 -4.52590068766877 -0.81747073067307  0.89087517311731
 6 -3.11674342804280 -0.68208869236924  1.33280653005301
 6 -3.15538969136914  0.77084220182018  1.96861136653665
 6 -4.42009696779678  1.36860390579058  1.38407031843184
 6 -3.26383288118812  0.84328262926293  3.56505636363636
 6 -2.05475081788179 -0.80526554065407  0.17408401610161
 6 -0.68893728182818 -0.77538639343934  0.61217898299830
 6  0.36195070097010 -1.08696561386139 -0.43598945614561
 8  0.10437017291729 -1.45398508840884 -1.61401385598560
 8  1.66569164436444 -0.98021443994399 -0.00823581558156
 7 -6.96860004100410  2.82702744464446  0.41566216021602
 6 -5.82310649164917  3.42264899739974  1.03121724712471
 6 -6.22200347284728  4.78208629242924  1.23320487218722
 6 -7.38206127062706  5.00681200420042  0.56244147424742
 6 -7.85619106950695  3.75450404930493  0.23559489578958
 6 -5.24245340174017  5.80638442084208  1.76434243814381
 6 -8.15179176737674  6.27933765146515  0.51209626392639
 6 -8.98283580638064  6.72631192179218 -0.38831744804480
 7 -9.11163456275628  0.93725219981998 -0.61336831223122
 6 -9.67721949934993  2.16161946364636 -0.72659146984699
 6 -11.06467270527053  2.08462210171017 -1.22371644294429
 6 -11.30428586908691  0.70664470587059 -1.29457951955196
 6 -10.01292800120012 -0.00638768816882 -0.91715519591959
 6 -12.03122731993199  3.20922349144914 -1.37433186228623
 6 -12.51769186658666  0.03942484408441 -1.88914114911491
 6 -12.53828829842984 -0.23671831823182 -3.43582076647665
 7 -7.51981510721072 -1.28566288078808 -0.10194653975398
 6 -8.60145613111311 -1.96978359255926 -0.61520844924492
 6 -8.21510511771177 -3.39051365286529 -0.60468420692069
 6 -6.87870989918992 -3.34324020832083 -0.26614872017202
 6 -6.52514105370537 -2.05765756485649  0.10254240834083
 6 -9.10601458655866 -4.52866626662666 -1.12026453325333
 6 -5.76345246674667 -4.40271549844985 -0.00769810021002
 8 -5.68976083218322 -5.47927443614361 -0.22775585518552
 6 -4.52677828242824 -3.42084919761976  0.48407365696570
 6 -4.00205262006201 -3.94725842104210  1.69157104240424
 8 -4.21429404110411 -3.49067002290229  2.83552401640164
 8 -3.16554907060706 -4.93009329062906  1.51274701770177
 6 -2.68141167146715 -5.55236614191419  2.72697916821682
 6  2.69458950235023 -1.32588127872787 -0.91579578487849
 6  4.02477658745875 -0.91554617801780 -0.42262887608761
 6  4.98861116131613 -0.18494944734473 -1.08276368096810
 6  4.90668117831783  0.34685852755276 -2.38984152315232
 6  6.26795050715072  0.04104673297330 -0.27575903900390
 6  7.49104333153315 -0.65881521462146 -0.88451580498050
 6  8.84397787478748 -0.24794000090009 -0.21454633453345
 6  10.10724257895790 -0.81038552115212 -0.70265124502450
 6  10.00572436583658 -2.30920608640864 -0.56422053675368
 6  11.36950762536254 -0.30343001360136  0.08425595759576
 6  12.67275586018602 -0.62128060646065 -0.52486036323632
 6  13.75813222042204 -0.06403910701070  0.41754811741174
 6  15.13280510161016 -0.17410044584458 -0.36292012781278
 6  15.55263259085909 -1.61532569446945 -0.57079681518152
 6  16.22135473267327  0.46803771497150  0.44976824122412
 6  17.50363720242024  0.86456219011901 -0.34474898269827
 6  18.51090094109411  1.74979359835984  0.50851954485449
 6  20.04160405630563  1.95594121942194 -0.28270551015102
 6  19.89573050255026  2.64535396659666 -1.50424683368337
 6  20.89767023262326  2.83011674777478  0.74547094779478
 1 -4.06537470507051  3.26953333763376  2.11527376567657
 1 -9.73303088808881  4.27018645514551 -0.61034970887089
 1 -10.44506284618462 -2.07686369636964 -1.54022391629163
 1 -2.68189424092409 -1.44474483858386  2.02230402510251
 1 -2.29749031663166  1.28103805490549  1.54841433983398
 1 -2.31722923882388  0.48064548624862  4.15875260056006
 1 -3.46914021432143  1.92170681428143  3.82071117231723
 1 -4.18750933033303  0.41115181748175  3.94561340704070
 1 -2.18603805770577 -1.65610948864886 -0.48564542084208
 1 -2.23154909350935  0.07008448274827 -0.63788244894489
 1 -0.13945826922692  0.08770289618962  1.15417144764476
 1 -0.38291130403040 -1.58224740474047  1.42628974797480
 1 -4.09843450085009  5.66487462506251  1.18461159915992
 1 -5.50656187498750  6.87162228092809  1.35413101010101
 1 -5.28451022802280  5.96527637703770  2.97261832243224
 1 -8.02758285718572  7.09024605830583  1.32631393769377
 1 -9.34532992579258  6.05341332683268 -1.38288768476848
 1 -9.46075035423542  7.63709899519952 -0.34722442654265
 1 -12.18002254965497  3.93866436493649 -0.52889528812881
 1 -11.80303922622262  3.98034299899990 -2.02405962346235
 1 -13.00603800380038  2.87825344354435 -1.79548259515952
 1 -12.62541736763676 -0.94127425372537 -1.48782335613561
 1 -13.32220296259626  0.49340900230023 -1.60833451075108
 1 -12.17002151715172  0.77469448454846 -3.92171101450145
 1 -11.73369957765777 -0.83144254065407 -3.73264406110611
 1 -13.49425749894990 -0.67265462356236 -3.78842270097010
 1 -9.97635518231823 -4.79271136303630 -0.51897770167017
 1 -9.57539945014501 -4.34684169766977 -2.25959648024803
 1 -8.37206891239124 -5.39845062496250 -1.16929158265827
 1 -3.77667339463946 -3.54921227252725 -0.24228728852885
 1 -2.11991885988599 -6.46708331203120  2.62794849884989
 1 -2.04775134683468 -4.82413215221522  3.31150560086009
 1 -3.42624367976798 -5.79885688568857  3.39881140134013
 1  2.71442323412341 -2.38327506860686 -0.99972710601060
 1  2.25528737163716 -0.99855129312931 -1.99561718101810
 1  4.24290572647265 -1.40110818131813  0.65772481688169
 1  5.02042730723072  1.47386508430843 -2.58573116051605
 1  5.52477944174417 -0.31803584838484 -3.16461952905291
 1  3.92189867506751  0.32799560546055 -2.92994835173517
 1  6.36769686678668  1.07032017591759 -0.32952815321532
 1  6.15384321012101 -0.26871245654565  0.78095778987899
 1  7.26621727482748 -1.61552559795980 -0.91181602770277
 1  7.63162291339134 -0.36759125452545 -1.99093795149515
 1  8.85345978757876  0.91598945044504 -0.10075881738174
 1  8.56393912381238 -0.41577866486649  0.82988584148415
 1  10.16143300860086 -0.58575837753775 -1.76760748364836
 1  9.24290147774778 -2.96598526132613 -1.11215044054406
 1  11.00926778777878 -2.86353803020302 -1.12152789838984
 1  9.96267470927093 -2.72789466696670  0.44110058855886
 1  11.53502769286929  0.85482310611061  0.15984944754475
 1  11.38399596899690 -0.88175666116612  1.04297481918192
 1  12.71754826282628 -1.73917779677968 -0.44916835963596
 1  12.92257257385739 -0.30246751965197 -1.52370568906891
 1  13.35106614211421  0.94560495629563  0.72293746784679
 1  13.77115195069507 -0.60932388638864  1.52110168636864
 1  14.91901339873987  0.42953615341534 -1.37834448424842
 1  14.78635403040304 -2.04944322812281 -1.35188920942094
 1  16.56867360366037 -1.49217505700570 -1.05646703930393
 1  15.81622434003400 -2.07466708530853  0.42296499779978
 1  15.85660285188519  1.62222531123112  0.70414425802580
 1  16.40670699339934 -0.12926911781178  1.34726672347235
 1  17.99937601490149 -0.10754923352335 -0.81565625032503
 1  17.40181290669067  1.50133309640964 -1.33438074267427
 1  18.09837154305431  2.76275500320032  0.71715821082108
 1  18.59203221742174  1.27807664446445  1.58584984058406
 1  20.60535876567657  0.90713144684469 -0.21310837373737
 1  19.35555825302530  3.48427055915592 -1.49708468266827
 1  20.89478799599960  2.71258686248625 -2.04479980338034
 1  19.42058029382938  2.00778081468147 -2.26463164436444
 1  21.06262127522752  2.49401895219522  1.64189811761176
 1  21.95276911861186  2.85070318691869  0.47451935173517
 1  20.39950761346135  3.81884155465547  0.91853445784578
 1 -7.12224600710071  1.86434070607061  0.22584584138414
 1 -7.59757112371237 -0.40283515911591 -0.01195451565157

