%nproc=4
%Mem=2GB
# td=(NStates=1) B3LYP/SVP 

TD

0 1
 6 -5.05344819531953 -1.93078288428843  0.46297492259226
 6 -4.68278443664366  2.85408563756376  1.31934861096110
 6 -9.32042128572857  3.25515171147115 -0.30775539173917
 6 -9.86518836993699 -1.50134172877288 -0.81095724112411
 7 -5.15315206320632  0.44474093519352  0.76247370537054
 6 -4.41179927752775 -0.79733871747175  0.79460554615462
 6 -2.94373612731273 -0.56958744224422  1.32841609100910
 6 -2.96627077947795  0.84535965356536  1.86038054345435
 6 -4.35851080918092  1.38220526592659  1.21281319271927
 6 -3.08153465136514  0.70076837783778  3.31863172117212
 6 -2.01658700150015 -0.68781379547955  0.00928753645365
 6 -0.63820220832083 -0.74102295709571  0.51952971807181
 6  0.32236674257426 -1.04891180848085 -0.69581543874387
 8  0.00573030893089 -1.22241193109311 -1.84978743334333
 8  1.61796687188719 -0.95940235873587 -0.15648064006401
 7 -7.01897507850785  2.67244198609861  0.32868346234623
 6 -5.91657583858386  3.35871260376038  0.82715684108411
 6 -6.13104437693769  4.84792287608761  0.99758130983098
 6 -7.52244530903090  5.01329265226523  0.48374360446045
 6 -7.99785523592359  3.63482208110811  0.15875721202120
 6 -5.22591174757476  5.83027681008101  1.50696670057006
 6 -8.06158274647465  6.33505322302230  0.36302135643564
 6 -9.01982950575058  6.66424571517152 -0.57708632493249
 7 -9.27743114241424  0.91715018961896 -0.28662563796380
 6 -9.87332911031103  2.03014631633163 -0.43654246494649
 6 -11.26850308830883  1.88102174167417 -0.88879295059506
 6 -11.37636307680768  0.56184022542254 -1.01302136373637
 6 -10.10271698009801 -0.11193824322432 -0.77240072047205
 6 -12.20348454565456  3.07918048714871 -1.04150857995800
 6 -12.70268036543654 -0.16393549194919 -1.52082431743174
 6 -12.73948841844184 -0.44152879927993 -3.01484866926693
 7 -7.54829795549555 -1.23872818731873 -0.20122646774677
 6 -8.59588557405741 -2.04953156735674 -0.64108103650365
 6 -8.11961556875688 -3.44749935143514 -0.63934767326733
 6 -6.79220124832483 -3.32902878717872 -0.34603670897090
 6 -6.45299383898390 -2.09319111821182 -0.04100194609461
 6 -9.06601058615862 -4.61332473247325 -0.97251975877588
 6 -5.62302842434243 -4.25429065596560 -0.07684501490149
 8 -5.61054291039104 -5.43439994869487 -0.19661274087409
 6 -4.49316492109211 -3.30006711941194  0.42617786738674
 6 -3.92022443724372 -3.81166486168617  1.75379726502650
 8 -4.17973058475848 -3.20430138603860  2.85867633163316
 8 -2.96394891059106 -4.70928120942094  1.56561230423042
 6 -2.42178570887089 -5.43445435073507  2.78233470377038
 6  2.58847889128913 -1.22642133273327 -1.15624983028303
 6  3.96572068186819 -0.89525414881488 -0.59169578277828
 6  4.86828912911291 -0.00923187558756 -1.02580798539854
 6  4.93572408260826  0.75025886758676 -2.38468100710071
 6  6.16881059315932  0.09990261856186 -0.34417588068807
 6  7.42254648184818 -0.44659399249925 -1.02099945334533
 6  8.69979345634563 -0.27590279717972 -0.16530141004100
 6  10.05868772347235 -0.72326680928093 -0.81717269716972
 6  9.98382217561756 -2.29467463326333 -0.97262137683768
 6  11.26690736533653 -0.38293796439644  0.08164569656966
 6  12.72393097769777 -0.55660413881388 -0.67051492869287
 6  13.82766917411741 -0.13377608070807  0.19439580218022
 6  15.26527834893489 -0.20382341814181 -0.41368520432043
 6  15.57766509410941 -1.62653681558156 -0.73913364886489
 6  16.27952054925493  0.49409032023202  0.51256452085209
 6  17.62717955665567  0.81541727562756 -0.18441294909491
 6  18.57100695169517  1.47782640164016  0.83036172907291
 6  20.01179107500750  1.71411703700370  0.23323608400840
 6  20.03824475397540  2.43826325752575 -1.19106551555156
 6  20.91206167176718  2.44479821592159  1.26887328802880
 1 -3.81971013861386  3.53244962926293  1.73302554085409
 1 -9.96895448044804  3.98674811131113 -0.44130280418042
 1 -10.68539687958796 -2.10955696569657 -1.43841373527353
 1 -2.82917896939694 -1.48587895199520  2.01889368406841
 1 -2.06877744534453  1.74749470057006  1.66781628002800
 1 -1.94667218311831  0.52789021072107  3.71244797009701
 1 -3.64891819211921  1.64495913951395  3.73986308750875
 1 -3.84586516591659 -0.05691498919892  3.52191103680368
 1 -2.23949340324032 -1.69297317501750 -0.40388724502450
 1 -2.37468340694069  0.13503097739774 -0.63143180388039
 1 -0.18237256065607  0.31308543444344  0.74025005550555
 1 -0.64409742264226 -1.64361354135414  1.29412653165317
 1 -4.37318197559756  5.76282442004200  0.91858499649965
 1 -5.55231645044504  6.79391451015102  1.32935853285328
 1 -5.02142391939194  5.65956580598060  2.64476553715372
 1 -7.74380447934793  7.14544157785779  0.93081438773877
 1 -9.56633202600260  6.05486347184718 -1.33954335033503
 1 -9.46698097729773  7.80544582988299 -0.65455515961596
 1 -12.22841738913891  3.84997549604960 -0.27219961856186
 1 -11.84286320862086  3.75474043874387 -1.63887110461046
 1 -13.19393679367937  2.59635525372537 -1.25628867576758
 1 -12.73416824272427 -1.12685281158116 -1.01408598239824
 1 -13.72319306160616  0.27059672107211 -1.01588526582658
 1 -12.59285380038004  0.47761477657766 -3.69281812521252
 1 -12.09807601530153 -1.45261465786579 -3.23474427112711
 1 -13.78410648384838 -0.84173153125313 -3.17191104980498
 1 -9.91821936873687 -4.81234332623262 -0.25632143604360
 1 -9.45581749194919 -4.37259427292729 -1.97305782638264
 1 -8.44614632013201 -5.61701248114812 -1.15985063856386
 1 -3.71797752505250 -3.37176452775278 -0.27637069686969
 1 -1.69202607060706 -6.08858546224623  2.48656436043604
 1 -2.12545911761176 -4.61661140014001  3.58242269256926
 1 -3.35574663006301 -6.10116711671167  3.24113563376338
 1  2.70767255905591 -2.26943368446845 -1.49011614491449
 1  2.34734657755776 -0.63084452245225 -2.03005062436244
 1  4.22551398729873 -1.35511358185819  0.32729177357736
 1  5.01279654415441  1.94208190599060 -1.89440202760276
 1  6.06159312311231  0.54648060326033 -2.85312837993799
 1  3.93880036523652  0.50196300220022 -2.92264762166217
 1  6.34226432353235  1.24228737263726 -0.10728592899290
 1  6.08911673747375 -0.45194077937794  0.65476517061706
 1  7.24877553065307 -1.37960200560056 -1.45786063216322
 1  7.59696944804481  0.08530403500350 -1.97596645434543
 1  8.91882632423242  1.03952180368037  0.16196745524553
 1  8.64740747064707 -0.78952603960396  0.79408226112611
 1  10.04187105240524 -0.31457125882588 -1.79388011091109
 1  9.25599278687869 -2.43817248004800 -1.78800802630263
 1  10.91803866486649 -2.64659633603360 -1.52929867546755
 1  9.85743418521852 -2.83634551205120 -0.10152367386739
 1  11.31533572367237  0.63731135493549  0.33924738733873
 1  11.47430499989999 -0.87710619611961  1.13683420512051
 1  13.13016952495249 -1.51238511751175 -1.15133857665767
 1  12.83674399099910 -0.23052032493249 -1.49905322382238
 1  13.68287932343234  0.95553594939494  0.60275544964496
 1  14.04937977347735 -0.63370632463246  1.27194677087709
 1  15.36975847324732  0.46667986778678 -1.39159580938094
 1  14.87193258825883 -2.21438972277228 -1.58112213271327
 1  16.54338107440744 -1.85950178967897 -1.28348974157416
 1  15.64282700030003 -2.15758537713771  0.16607930923092
 1  15.87150434203420  1.40779386808681  1.00244408800880
 1  16.49212553525352 -0.15124131503150  1.41235323212321
 1  18.06921299859986 -0.32510098869887 -0.68036272097210
 1  17.47404012941294  1.59966292939294 -0.96599390399040
 1  17.93045475137514  2.57542627032703  1.14304079907991
 1  18.59479249344935  0.88507734453445  1.69806106170617
 1  20.37357558735874  0.72995372907291  0.27733067016702
 1  19.55135783298330  3.45268740084008 -1.08447342154215
 1  21.00844936213621  2.67692329612961 -1.46496181958196
 1  19.63513174897490  1.78847888448845 -2.00661584278428
 1  20.63645865896590  2.11671122142214  2.33742767056706
 1  22.06709055075508  2.46276439303930  1.10764266406641
 1  20.66083374607461  3.40076974747475  1.16053865826583
 1 -7.18396217871787  1.80014428642864  0.17293054985499
 1 -7.86544791139114 -0.25798067366737  0.02017869766977

