%nproc=4
%Mem=2GB
# td=(NStates=1) B3LYP/SVP 

TD

0 1
 6 -5.20902375287529 -1.99408921492149  0.49350797589759
 6 -4.65593175137514  2.69440966996700  1.49470614671467
 6 -9.16255549914991  3.38444464076408 -0.15770038623862
 6 -9.84599645074507 -1.35304689928993 -0.98776492189219
 7 -5.14274102210221  0.39901636273627  0.86260371837184
 6 -4.52280037763776 -0.87555653925393  0.80358644424442
 6 -3.09692144584458 -0.59867035053505  1.19278252765277
 6 -3.06714086648665  0.71964708230823  1.89427393279328
 6 -4.36015097319732  1.31188823422342  1.38813072447245
 6 -2.83487998589859  0.83947224822482  3.37644750275027
 6 -2.09449479227923 -0.92631764586459  0.14800140784078
 6 -0.64372276037604 -0.87789664446445  0.62623038813881
 6  0.31979648554855 -1.18484540184018 -0.42859871707171
 8  0.06481621752175 -1.53948363826383 -1.59404185878588
 8  1.66698177337734 -0.92714913341334 -0.15205019701970
 7 -6.85625880688069  2.81523626552655  0.52514310831083
 6 -5.73074725572557  3.36240297279728  1.01408553395339
 6 -5.87096836933693  4.83212129592959  0.94274582628263
 6 -7.20916398089809  4.97400872387239  0.36250148024802
 6 -7.81314676507651  3.66365496439644  0.18541987828783
 6 -4.96733588998900  5.90969475187519  1.42939894379438
 6 -7.75802239043904  6.24302402010201  0.16128118241824
 6 -8.64612213501350  6.58929822042204 -0.85882449874988
 7 -9.15716911621162  0.95338381298130 -0.56036301170117
 6 -9.74844662206221  2.14833813551355 -0.53365217591759
 6 -11.25633187118712  2.03130677017702 -0.89416348764876
 6 -11.46513195369537  0.69638367976798 -1.16034609620962
 6 -10.16784349274928  0.01076402700270 -0.83709719011901
 6 -12.19129332653265  3.03832640174017 -1.03189761886189
 6 -12.64963506090609 -0.10128922732273 -1.57608984398440
 6 -12.61420589018902 -0.09241388778878 -3.18831601600160
 7 -7.61083420912091 -1.27562187668767 -0.38595494059406
 6 -8.62801878737874 -1.91369798399840 -0.77959488788879
 6 -8.29960356755675 -3.45908050955096 -0.67374111261126
 6 -6.96326835503550 -3.37303318761876 -0.23308541384138
 6 -6.52820135973597 -1.99632143124312  0.05892804690469
 6 -9.18974295939594 -4.55238863886389 -0.93680618741874
 6 -5.85549167066707 -4.34066929382938  0.05824849444944
 8 -5.85192704880488 -5.57024353305331  0.10994791519152
 6 -4.62628823342334 -3.36579369206921  0.52198744834483
 6 -3.98487090189019 -3.92786648184818  1.83134501980198
 8 -4.15743835553555 -3.65101605750575  2.93897436143614
 8 -3.13491600730073 -4.90267054835484  1.42793853685369
 6 -2.48279180948095 -5.66868777407741  2.47103357365737
 6  2.60906094949495 -1.08551724232423 -1.20781498679868
 6  3.93450756055606 -0.90110473387339 -0.56907352055206
 6  4.85286758695870  0.00801984958496 -0.96044144874487
 6  4.84689519971997  0.73342718441844 -2.16691923092309
 6  6.19548326042604  0.03797642594259 -0.11496295939594
 6  7.33806803400340 -0.49883921702170 -0.96635398879888
 6  8.72440591759176 -0.29979518641864 -0.24030891079108
 6  10.02102395709571 -0.80364484708471 -1.00175115501550
 6  10.02376617001700 -2.26925209100910 -1.26544065876588
 6  11.18920959555956 -0.34520419101910 -0.09618208620862
 6  12.60539912451245 -0.51949042744274 -0.72160003720372
 6  13.67781418861886  0.13549084598460  0.11536789938994
 6  15.24720654175417 -0.10815385118512 -0.38632246804680
 6  15.51702903050305 -1.58063222512251 -0.41010074557456
 6  16.19014161136114  0.73606451765177  0.51561482588259
 6  17.60849768846884  0.74128986288629 -0.11605611341134
 6  18.53109296029603  1.79920853985399  0.65757445034503
 6  19.91834173007301  1.85455108040804  0.16023878427843
 6  20.02303323282328  2.60218965016502 -1.25055146414641
 6  20.83895436103611  2.61383511961196  1.19567596829683
 1 -3.82193036063606  3.46735311961196  1.80089232753275
 1 -9.92774035903590  4.22363179967997 -0.36130480438044
 1 -10.71330967086709 -2.06124213421342 -0.97906780068007
 1 -2.65619167066707 -1.41616198029803  1.92702449714972
 1 -2.09377994559456  1.13253320442044  1.33673317171717
 1 -1.79636715261526  0.46074349604961  3.70480720602060
 1 -2.98427172747275  1.93942858645865  3.70020912211221
 1 -3.66003658305831  0.31221192349235  3.81071991769177
 1 -2.02970242414241 -1.86070994869487 -0.39958681498150
 1 -2.05785172377238 -0.01359388508851 -0.59463812451245
 1 -0.36353067646765  0.00496462236224  1.02197822832283
 1 -0.26495950885088 -1.63578275827583  1.42325944494450
 1 -4.03839849724972  5.75151328892889  0.77339047704771
 1 -5.07686890569057  7.06721183988399  1.14669026602660
 1 -4.81904368136814  5.76059590899090  2.51764282488249
 1 -7.57375747464746  6.95219225292529  1.02419372567257
 1 -8.91384677747775  5.77316530203020 -1.56441583758376
 1 -9.44606888608861  7.45048033333333 -0.60455015911591
 1 -12.22695724312431  3.62546304480448 -0.13066546514651
 1 -11.87186610891089  3.81517648234824 -1.91627884538454
 1 -13.28675607560756  2.79126474467447 -1.54409745664566
 1 -12.84111893779378 -1.24416454275428 -1.23290786458646
 1 -13.64313505580558  0.35034469586959 -1.26180985828583
 1 -12.59477399239924  0.97440445554555 -3.72851169456946
 1 -11.92244845254526 -0.94611400780078 -3.46136693339334
 1 -13.56042411561156 -0.59790714881488 -3.48287214591459
 1 -10.13549109590959 -4.50889298119812 -0.41593739763976
 1 -9.30791270147015 -4.64531154465447 -2.06880740134013
 1 -8.70868257375738 -5.51436221612161 -0.38468312181218
 1 -3.93240896819682 -3.72721007230723 -0.31129418921892
 1 -1.87349421742174 -6.50044664836484  1.69902560656066
 1 -1.71730830253025 -5.04262400140014  2.98552300260026
 1 -3.08468952435244 -6.18943594359436  3.18513003320332
 1  2.46111790359036 -2.23111985308531 -1.57276440974097
 1  2.43077492039204 -0.29823126112611 -2.02265988528853
 1  4.05722715861586 -1.36766483698370  0.40931997639764
 1  5.18329359385939  1.80336803460346 -1.91744433183318
 1  5.31395835963596  0.29063501870187 -3.10351341844184
 1  3.94845133033303  1.04767757365737 -2.78360371727173
 1  6.44532462956296  1.02327547144715  0.33980878047805
 1  6.03712153795380 -0.68076366166617  0.92908260236024
 1  7.19227988108811 -1.57540158555856 -1.30118496459646
 1  7.72592234333433  0.04574007860786 -1.93346220392039
 1  8.91183562516252  0.61085893739374  0.02236349484949
 1  8.79070180008001 -1.06977406440644  0.60973382628263
 1  10.11583844914491 -0.03177297899790 -1.94489521242124
 1  8.85326251385139 -2.49315797859786 -1.54585381088109
 1  10.82857971897190 -2.66728840524052 -1.85474121972197
 1  10.12192063386339 -2.87018889638964 -0.30746426792679
 1  11.09955414551455  0.72584020782078  0.16457992059206
 1  11.20129769916992 -1.08913739923992  0.94805532723272
 1  13.04515102310231 -1.46649052805281 -0.86610005280528
 1  12.75957627422742 -0.07975524842484 -1.68064138263826
 1  13.34231526702670  1.06585698149815  0.34330950505050
 1  13.81155599109911 -0.36840979497950  1.19847942414241
 1  15.13021451885189  0.52996619641964 -1.39332598239824
 1  14.63906930193019 -2.28426671047105 -0.93810783128313
 1  16.42055879217922 -2.03443928342834 -1.09503089568957
 1  15.75448816641664 -1.98281790039004  0.55190789208921
 1  15.65586277787779  1.57346043474347  0.58106194979498
 1  16.33312963566357  0.41345515461546  1.57917991479148
 1  17.93846992429243 -0.31265974457446 -0.09291397609761
 1  17.37240996639664  0.87871083418342 -1.29091639623962
 1  17.89013071897190  2.85139386708671  0.74638113311331
 1  18.59960297449745  1.45106394319432  1.68669992559256
 1  20.30598882868287  0.72656339003900  0.09166210331033
 1  19.55904860206021  3.58236036813681 -1.34359933413341
 1  20.96893541074107  2.76288189198920 -1.57462278567857
 1  19.25969420522052  2.13369340594059 -2.11251643284328
 1  20.82140715381538  2.25924547484748  2.25421934973497
 1  21.95207904960496  2.54111222782278  0.92210411021102
 1  20.66001366406641  3.64893456395640  1.48294089848985
 1 -6.89577335983598  1.73359763176318  0.55085834263426
 1 -7.43535490209021 -0.12115699129913 -0.20333365356536

