%nproc=4
%Mem=2GB
# td=(NStates=1) B3LYP/SVP 

TD

0 1
 6 -5.12368521902190 -1.86150595659566  0.54965359045905
 6 -4.78180433863386  2.76992722172217  1.31566824292429
 6 -9.52823206680668  3.31171736803680 -0.14942955915592
 6 -9.87631948304830 -1.57558915351535 -1.02139828522852
 7 -5.18865561356136  0.52309877097710  0.74506196419642
 6 -4.51917001460146 -0.64627361096110  0.71025711131113
 6 -3.02002375607561 -0.50250073357336  1.17432068146815
 6 -3.04114826722672  0.99823494109411  1.74789929532953
 6 -4.35712067016702  1.46763380878088  1.22556446784678
 6 -3.11410790869087  0.92758105910591  3.28690854885489
 6 -2.13640898369837 -0.66944195829583  0.09252586028603
 6 -0.55064345244524 -0.58510736553655  0.45342310741074
 6  0.41810631653165 -0.98349526682668 -0.63797965516552
 8  0.11306104200420 -1.54119380928093 -1.66504895949595
 8  1.65751082628263 -0.56479289778978 -0.30366535853585
 7 -7.02331551255125  2.76489123102310  0.32798339233923
 6 -6.02813699469947  3.42780951345134  0.89312343774377
 6 -6.40305157765776  4.86511459525953  1.02641419311931
 6 -7.73857692219222  4.93830515351535  0.72736796689669
 6 -8.13676912731273  3.64490308920892  0.14905624192419
 6 -5.46074523092309  5.79634341674167  1.57045304920492
 6 -8.52070865906590  6.16130584828483  0.53548860316032
 6 -9.57135465826583  6.64951424202420 -0.25196381268127
 7 -9.31570496979698  0.91429990459046 -0.73811078647865
 6 -10.05648742614261  2.02724602630263 -0.58668747944794
 6 -11.37063330133013  1.72972661216122 -0.96374044534453
 6 -11.42329777027703  0.43374741614161 -1.17677773937394
 6 -10.07443415181518 -0.18204525392539 -0.99570305070507
 6 -12.49147334453445  2.84472704180418 -1.06992142124212
 6 -12.70777087448745 -0.30883998239824 -1.66411864686469
 6 -12.59743421302130 -0.89735438183818 -3.04803198759876
 7 -7.53058618431843 -1.25031934643464 -0.22311865696570
 6 -8.59056504200420 -2.06664327852785 -0.75317224562456
 6 -8.13355696289629 -3.39133373487349 -0.64323806230623
 6 -6.84022605080508 -3.32719860416042 -0.29407151245125
 6 -6.46025456505651 -2.03319511861186  0.06473862796280
 6 -8.89098308340834 -4.68348174817482 -0.97239974677468
 6 -5.76148226972697 -4.20301552845285 -0.01467879827983
 8 -5.60986284238424 -5.48077458615862 -0.07965104470447
 6 -4.57295289988999 -3.22739985268527  0.53561881148115
 6 -3.96076849164916 -3.73711740694069  1.76466835213521
 8 -4.22428504020402 -3.34759571547155  2.85429589358936
 8 -2.82568508420842 -4.66073635493549  1.56011175417542
 6 -2.30419394969497 -5.17650855615562  2.74270074037404
 6  2.70696073947395 -0.74943363396340 -1.27718192349235
 6  4.01519562936294 -0.54770939433943 -0.58865547874787
 6  5.02119441964196  0.27122617021702 -1.01471687628763
 6  4.90933144334433  1.40127396909691 -2.13724626362636
 6  6.34196790889089  0.27534016231623 -0.19586104920492
 6  7.55531975917592 -0.51621095419542 -0.75661301470147
 6  8.94954843184319 -0.42965817271727  0.06379149924993
 6  10.20793264796480 -0.82217670027003 -0.78018899879988
 6  10.16434022742274 -2.25042020782078 -1.15742985768577
 6  11.47362803740374 -0.45522519311931  0.11850938293829
 6  12.77218580318032 -0.59749822822282 -0.64471234843484
 6  13.98125453265327 -0.08221092419242  0.25250161276128
 6  15.36275809690969 -0.33582661846185 -0.42728656445645
 6  15.59578690629063 -1.82034619651965 -0.40160989648965
 6  16.34556715391539  0.37283819501950  0.40665392979298
 6  17.81162800150015  0.43955968986899 -0.25302981078108
 6  18.73581343234323  1.34945356435644  0.58786747964797
 6  20.25132502840284  1.49744536983698  0.08972173257326
 6  20.27649857935794  2.11754118531853 -1.30912732173217
 6  21.00389085468547  2.30337407350735  1.03421982268227
 1 -3.97313548114811  3.47847423172317  1.69248148644865
 1 -10.25269285428543  4.15891532803280  0.12325365146515
 1 -10.75938427832783 -2.22041805180518 -1.16992688658866
 1 -3.00049610111011 -1.19109947404740  2.06544833953395
 1 -2.32809337693769  1.53852380348035  1.27297679607961
 1 -2.13909142504250  0.57817523922392  3.39741646694669
 1 -2.99369266956696  2.04248889248925  3.63407250845084
 1 -3.97121770117012  0.21938264056406  3.65675452115212
 1 -2.12768222212221 -1.66094997269727 -0.27689454575458
 1 -2.18227416601660  0.10744821912191 -0.89277793849385
 1 -0.11708603200320  0.62168629452945  0.60995702620262
 1 -0.25149816271627 -1.26594577457746  1.38052517151715
 1 -4.58463312071207  6.25228336593659  1.03491662966297
 1 -5.96645786458646  6.74588970767077  2.05573117011701
 1 -5.13257503450345  5.43290313971397  2.62001306190619
 1 -8.16340643954396  6.86314334803480  1.28782008830883
 1 -10.10674606740674  6.18956694219422 -1.12489188518852
 1 -9.91550582978298  7.62860814611461  0.07115741164116
 1 -12.58871341874187  3.54374487298730 -0.17151955055506
 1 -12.32754167646765  3.55428039273927 -1.99763698119812
 1 -13.51940934093409  2.46487210541054 -1.54513756065607
 1 -13.12010683658366 -1.12762288858886 -0.97909248304830
 1 -13.71615235753575  0.42212187358736 -1.60498417571757
 1 -12.61884639963996 -0.07026001090109 -3.76393523692369
 1 -11.59008521622162 -1.36140553695370 -3.18395919261926
 1 -13.40290836403640 -1.36929428752875 -3.49585344404441
 1 -10.05010255705571 -4.47093918581858 -0.74658046194619
 1 -9.02515442564256 -4.63109012251225 -2.16993751435144
 1 -8.46917862336234 -5.69230000990099 -0.50213486698670
 1 -3.79040476777678 -3.28244559585959 -0.29066212601260
 1 -1.40742761076108 -5.89535613931393  2.27657336133613
 1 -1.94997156885689 -4.18476821582158  3.44855930623062
 1 -3.02009306470647 -5.85648264826483  3.36020754095410
 1  2.72634442624262 -1.82841958305831 -1.52787992129213
 1  2.45531737463746 -0.02764420242024 -2.11329894919492
 1  4.00297173307331 -1.29465753625363  0.43649269366937
 1  5.09773503800380  2.46800449824982 -1.41465405280528
 1  5.80761772557256  1.48908486368637 -3.05613868096810
 1  4.06211269646965  1.39749255515552 -2.36296165306531
 1  6.71618171527153  1.18793193709371 -0.12001720212021
 1  6.31710953675368 -0.00890647594759  0.87819751385139
 1  7.17362801590159 -1.59155320072007 -0.70852569866987
 1  7.78010776187619 -0.35311980738074 -1.77967682538254
 1  8.91835627722772  0.78357620912091  0.30950220872087
 1  8.79415214511451 -0.96698378537854  0.89939279217922
 1  10.16199306460646 -0.10917071877188 -1.49657037993799
 1  9.22544973257326 -2.36738540134013 -1.78880810631063
 1  11.01444830583058 -2.68874055045505 -1.83366911251125
 1  10.13449189098910 -3.00279215671567 -0.28011153265327
 1  11.27131132123212  0.57072469626963  0.65747921052105
 1  11.55658322772277 -1.01043952945295  1.06344686638664
 1  12.72129863786379 -1.75948982798280 -0.93502694549455
 1  12.69074939153915  0.28835156225623 -1.45943926242624
 1  13.60858189368937  0.96210660646065  0.28607378147815
 1  13.96212104760476 -0.50063301730173  1.26501607780778
 1  15.20136163356336  0.16153935373537 -1.50084673447345
 1  14.63012840784078 -2.20691897569757 -0.99606362686269
 1  16.39706644294430 -1.91933777327733 -1.15420681328133
 1  15.86107882548255 -2.24456407500750  0.63031573287329
 1  16.01718891049105  1.49473256195620  0.37865170877088
 1  16.51051737443744  0.06320012911291  1.43836583338334
 1  18.24389046634663 -0.48172665126513 -0.30453513821382
 1  17.79276200160016  0.75025798889889 -1.31418872347235
 1  18.05648735463546  2.57877660536054  0.79288578357836
 1  18.94566758095810  0.97459629642964  1.62900415601560
 1  20.57854608440844  0.54110484418442 -0.14001106400640
 1  20.09199189638964  3.31283341544154 -1.18716369056906
 1  21.31680019721972  2.03737934173417 -1.56645196859686
 1  19.52410064586459  1.62721275787579 -2.01961714291429
 1  21.30387540064006  1.77757730803080  2.00168409620962
 1  22.07154099579958  2.46727484408441  0.55032693249325
 1  20.58340600330033  3.36946661716172  1.09891249564956
 1 -6.94475825832583  1.63943821582158  0.19591284808481
 1 -7.71384275087509 -0.21627650325032 -0.18147146734673

