%nproc=4
%Mem=2GB
# td=(NStates=1) B3LYP/SVP 

TD

0 1
 6 -5.08864171467147 -1.93516332233223  0.37389601470147
 6 -4.45997215541554  2.76950717971797  1.34321099719972
 6 -9.21795103870387  3.31947814411441 -0.19923453965397
 6 -9.84282613371337 -1.39666126072607 -0.93646979237924
 7 -5.22023877187719  0.39625608670867  0.83360081808181
 6 -4.49615771337134 -0.75559454305431  0.78723480908091
 6 -3.01557331103110 -0.68928941244124  1.29110235963596
 6 -2.97901205360536  0.78568368596860  1.80036454185419
 6 -4.27211216931693  1.36517356275628  1.31689360076008
 6 -2.98554505240524  0.67891619261926  3.38350820882088
 6 -2.11072641544154 -0.83805881998200  0.05424203190319
 6 -0.71160954905491 -0.87888674347435  0.47111487658766
 6  0.30893539943994 -1.10818773607361 -0.68946480368037
 8  0.03290302620262 -1.61222091199120 -1.71684413901390
 8  1.61072614781478 -0.78299471797180 -0.23963895589559
 7 -6.85454863586359  2.76976171807181  0.51309190319032
 6 -5.70647482848285  3.41716844934493  1.00269439483948
 6 -6.00318159065907  4.83364144794479  1.05368692039204
 6 -7.39202226672667  5.02406372937294  0.69896512661266
 6 -7.84278972937294  3.60594919381938  0.30282161846185
 6 -4.92038119451945  5.74155793819382  1.37655365926593
 6 -8.04694128232823  6.33394311201120  0.39490454475448
 6 -9.09999752255226  6.59884917551755 -0.26249486578658
 7 -9.10334373367337  1.00887936253625 -0.46318329372937
 6 -9.79228100550055  2.14666796849685 -0.50421923262326
 6 -11.17638387638764  2.03616725622562 -0.98274234553455
 6 -11.41266670717072  0.75903994539454 -1.13555361696170
 6 -10.08256496489649 -0.02008905830583 -0.87504098449845
 6 -12.12283648084808  3.17143971307131 -1.27103153225323
 6 -12.56472657005701 -0.03080217861786 -1.59748198319832
 6 -12.54918938853885 -0.48531317771777 -3.06368355275528
 7 -7.51680480618062 -1.28551286578658 -0.27094343944394
 6 -8.66722270777078 -1.96112272647265 -0.68140506890689
 6 -8.18883249044904 -3.39909451095110 -0.58262200070007
 6 -6.96237826602660 -3.47719360366037 -0.29762186748675
 6 -6.44605314491449 -2.18261006010601 -0.10410825672567
 6 -9.12237622272227 -4.54715811581158 -1.04669717651765
 6 -5.84626074757476 -4.36392161906191  0.05423809340934
 8 -5.79143099919992 -5.59106561526153 -0.14089716931693
 6 -4.64181978657866 -3.38076518921892  0.40801605120512
 6 -3.98002041684168 -3.94055775097510  1.68400028532853
 8 -4.00107271897190 -3.46473742964296  2.77119758375838
 8 -3.10755327102710 -4.93979426072607  1.34173991699170
 6 -2.54807833813381 -5.67784869016902  2.38554502480248
 6  2.67477752115211 -1.06610530113011 -1.16661086638664
 6  3.90311442124212 -0.52273689708971 -0.59790640384038
 6  4.96631893209321  0.14199324692469 -1.19136454105411
 6  4.85576608680868  0.53080692239224 -2.69863240224022
 6  6.12408612071207  0.56918954725473 -0.45951741484148
 6  7.34137836503650 -0.38781811491149 -0.91110846424642
 6  8.63821729872987  0.00115490859086 -0.10304518441844
 6  9.96347820252025 -0.76170065266527 -0.46941792169217
 6  9.90441423482348 -2.29340450625063 -0.25422953765377
 6  11.22620329492949 -0.12048171877188  0.34684221622162
 6  12.52304088868887 -0.67922640104010 -0.18452632983298
 6  13.74122052925292 -0.02917562066207  0.41120748334834
 6  15.11363318441844 -0.21875491129113 -0.27287112291229
 6  15.55259258685868 -1.76803096499650 -0.02771250675068
 6  16.18135073227323  0.78564947614761  0.44899816421642
 6  17.64169100780078  0.68412414631463 -0.27096160396040
 6  18.59299915091509  1.71858047704770  0.36873556645665
 6  20.02784268016802  1.71879750505051 -0.18335557515752
 6  20.27785871537154  1.98853828502850 -1.62536894589459
 6  20.83499396499650  2.86997073317332  0.81182758345835
 1 -3.69870803840384  3.30835722002200  1.70928316661666
 1 -9.85418300330033  4.15853529002900 -0.09207788168817
 1 -10.71975031493149 -2.04038004800480 -1.13063295719572
 1 -3.06202225372537 -1.44410477457746  2.09648144284428
 1 -2.09621018861886  1.48632858395840  1.61522102050205
 1 -2.13576109200920  0.48990641234123  3.73208993429343
 1 -3.44720802110211  1.69774441804180  3.79067816901690
 1 -3.58975955535554 -0.25347464516452  3.73534237993799
 1 -2.21335078897890 -1.59142302000200 -0.57974483078308
 1 -2.41972791139114 -0.08338086378638 -0.73655231593159
 1 -0.30995531893189  0.05650977687769  0.91982801330133
 1 -0.50702371527153 -1.48368754875488  1.29805692469247
 1 -4.02197685508551  5.55723386098610  0.78877201520152
 1 -5.16742796159616  6.87513263196320  1.22438803580358
 1 -4.90630240724072  5.83323317271727  2.57930899149915
 1 -7.51931203010301  7.01534856855685  1.24420572687269
 1 -9.53129852265227  5.72281026652665 -1.00777017301730
 1 -9.46587086628663  7.72521780708071 -0.21003070717072
 1 -12.20192473987399  3.90203070157016 -0.47115951455145
 1 -11.71851077337734  3.84537950265027 -2.08321553905391
 1 -13.13091049104911  2.83141876007601 -1.76526957385739
 1 -12.48890371627163 -0.89874000030003 -1.06330090389039
 1 -13.49826056835684  0.58136779817982 -1.41716539383938
 1 -12.95040955595559  0.40191720682068 -3.69429827322732
 1 -11.50146635433543 -0.85639503590359 -3.26957775447545
 1 -13.39514758795880 -1.22128948704870 -3.28158201690169
 1 -9.91784933173317 -4.51559365126513 -0.29185498939894
 1 -9.42228413861386 -4.43184019751975 -2.12880340094009
 1 -8.60401210671067 -5.44331511141114 -0.88696334983498
 1 -3.81493722102210 -3.74033138443844 -0.16741980178018
 1 -1.86266313431343 -6.55570217391739  2.02536824082408
 1 -1.95352192389239 -4.92245198419842  3.07601205150515
 1 -3.38713976937694 -6.27213421342134  3.01066258645865
 1  2.67459925172517 -2.11943868496850 -1.41711884518452
 1  2.42180402330233 -0.59177061506151 -2.13407102640264
 1  4.11199263516352 -0.92612068256826  0.56570561496150
 1  5.00953621812181  1.58358605640564 -2.62264485188519
 1  5.41746871067107 -0.25711975677568 -3.42040510761076
 1  3.81031751695170  0.41092389828983 -2.98783414031403
 1  6.39278937603760  1.59707285118512 -0.75977117751775
 1  6.22803062886289  0.37437185188519  0.69832952705271
 1  7.05613626672667 -1.58866291169117 -0.89593443954395
 1  7.36897664876488 -0.21965646104611 -2.03238209590959
 1  8.64738918051805  1.05504335583558 -0.18325706720672
 1  8.30927365726573 -0.21641872887289  1.09006185908591
 1  10.19842670797080 -0.66456625832583 -1.59160988388839
 1  9.17013420102010 -2.80180884368437 -1.00431965746575
 1  10.80901776277628 -2.79761143754375 -0.92775852145215
 1  10.18053649544955 -2.62739461696170  0.83555003350335
 1  11.09224341444144  1.04027165096510 -0.03903044044404
 1  11.32153972337234 -0.05222370787079  1.53433395509551
 1  12.65467197519752 -1.68631251025103 -0.28699214201420
 1  12.53114343094309 -0.24689196209621 -1.19876319481948
 1  13.66698773427343  1.11474186998700  0.60703587768777
 1  13.86914174967497 -0.14455740974097  1.62907248344834
 1  15.02158365576558 -0.10863766396640 -1.42098874867487
 1  14.69046444144415 -2.34290257405741 -0.45501952245224
 1  16.49243597989799 -2.09978581808181 -0.48351974457446
 1  15.61649436703670 -1.92502212081208  0.96515921722172
 1  15.99720691229123  2.02013510221022  0.24102794639464
 1  16.23977029972997  0.36235004410441  1.51511350815081
 1  17.92915899319932 -0.35768424702470  0.02596791209121
 1  17.46559928532853  0.82457542064206 -1.30957826242624
 1  18.06111781768177  2.75045377307731 -0.13539704470447
 1  18.49508252245225  1.81866070287029  1.48662991859186
 1  20.34782301210121  0.64781551525153  0.18075101220122
 1  19.81700439763976  2.98384051615162 -1.77014198839884
 1  21.11289980718072  2.06692229602960 -1.98315363876388
 1  19.70494873067307  1.45832586918692 -2.24072925412541
 1  20.76700171327133  2.46651620192019  1.86726065386539
 1  22.06626046774677  2.55029314591459  0.47601950175018
 1  20.56669433213321  3.79318898939894  0.79952255665567
 1 -7.17670145264526  1.67848212021202  0.43816707350735
 1 -7.34377574417442 -0.37610248584858  0.12257893769377

