%nproc=4
%Mem=2GB
# td=(NStates=1) B3LYP/SVP 

TD

0 1
 6 -5.02342519301930 -1.88291809780978  0.51058968406841
 6 -4.84447060526053  2.80830105910591  1.50975765186519
 6 -9.37808705230523  3.33301949824983 -0.24027864406441
 6 -9.80791264236424 -1.40973256785679 -1.02097824322432
 7 -5.15039178717872  0.48976543764376  0.94172163016302
 6 -4.46003410101010 -0.70440942454245  0.99876596219622
 6 -3.02621437513751 -0.52596307980798  1.37449069846985
 6 -3.03864801720172  1.00176529412941  1.90942544794479
 6 -4.30710566866687  1.47590463586359  1.39125103650365
 6 -2.90871736963696  0.99526782778278  3.51976183418342
 6 -1.96195153795380 -0.72258727282728  0.18518512621262
 6 -0.56272466056606 -0.77813666846685  0.66485425052505
 6  0.33768827472747 -1.15358227552755 -0.51717757495750
 8 -0.02191245534553 -1.72121181108111 -1.52035449004900
 8  1.52792786798680 -0.65579199769977 -0.23912890489049
 7 -7.08523170417042  2.68205294719472  0.56044663866387
 6 -5.94300848184819  3.37281401390139  1.05327945334533
 6 -6.29315058755876  4.79526761056106  1.08278983068307
 6 -7.51572463696370  4.98083940694069  0.55487071717172
 6 -8.10355580598060  3.61605020392039  0.21545288158816
 6 -5.27862701910191  5.75984976737674  1.65826183008301
 6 -8.19536612481248  6.24928464616462  0.38335338963896
 6 -9.17970549334933  6.69585887648765 -0.35177379367937
 7 -9.18197159645965  0.77772624722472 -0.35071204660466
 6 -9.76421819921992  2.02479578127813 -0.57647645834583
 6 -11.17142338033803  1.84747838733873 -1.16441051235124
 6 -11.31536697719772  0.51817585898590 -1.41341140274027
 6 -10.08294500290029 -0.09214626402640 -0.92052553295330
 6 -12.19748394559456  2.98459102820282 -1.30976540564056
 6 -12.52505260266027 -0.16163526192619 -1.93922615761576
 6 -12.44281875147515 -0.54117876427643 -3.48157534193419
 7 -7.51601472717272 -1.27380169466947 -0.18050439553955
 6 -8.53265925142514 -2.05166178037804 -0.66206313471347
 6 -8.11355496269627 -3.44529913141314 -0.51235497399740
 6 -6.75280730893089 -3.36259214351435 -0.13192529782978
 6 -6.39160770037004 -1.99490128922892  0.11902405650565
 6 -8.87351133623362 -4.65682908290829 -1.07394990179018
 6 -5.69589571107111 -4.33813904080408  0.12052472207221
 8 -5.54369622572257 -5.55103161186119 -0.02720580018002
 6 -4.38497410201020 -3.25139225192519  0.48474372397240
 6 -3.91277369216922 -3.76733042824282  1.79343122842284
 8 -4.20918353005301 -3.38810976687669  2.91375183918392
 8 -2.96610912661266 -4.75889617091709  1.54328007100710
 6 -2.44371790209021 -5.36607751305131  2.74314078437844
 6  2.57253729712971 -1.00119881048105 -1.13725793109311
 6  3.92641675147515 -0.60567519091909 -0.62633924712471
 6  4.93201550175017  0.05951499909991 -1.20325573017302
 6  4.84566507670767  0.77673151485149 -2.58769130813081
 6  6.20670438253825  0.35658828712871 -0.44429589268927
 6  7.37052127932793 -0.41901123422342 -1.20199755315532
 6  8.72391586858686 -0.14064927182718 -0.37199207910791
 6  10.01645350005001 -0.74011849444944 -0.94779575947595
 6  9.97948174157416 -2.20929609540954 -1.24814892959296
 6  11.22394306890689 -0.48309798039804 -0.02754522252225
 6  12.68912749734974 -0.56291476987699 -0.66831470867087
 6  13.77950435763576 -0.21842454555456  0.31783814641464
 6  15.17261908300830 -0.22511554735474 -0.34948878467847
 6  15.50590791839184 -1.71518568046805 -0.63790352585259
 6  16.18560115731573  0.55343625482548  0.46357962236224
 6  17.58386522522252  0.72250798469847 -0.18230273807381
 6  18.48053790479048  1.50497911691169  0.79005769866987
 6  19.98073796969697  1.56459208450845  0.14838759915992
 6  19.99005993549355  2.39255868706871 -1.19973638263826
 6  20.93182364796480  2.16187992409241  1.25501190189019
 1 -4.13886205380538  3.48192457675768  1.73195543384338
 1 -10.03326091109111  4.16219565606561 -0.33740241414141
 1 -10.61727006690669 -2.11642765276528 -1.61261115501550
 1 -2.82355840734073 -1.19109947404741  2.17065886058606
 1 -2.07816838443844  1.49301925302530  1.41564106250625
 1 -2.06476399229923  0.44553197489749  3.98212493779378
 1 -2.85026832713271  2.10934557815782  3.81047014821482
 1 -3.87355793519352  0.74418512081208  3.98805765146515
 1 -2.27760721462146 -1.53377725542554 -0.37746460276028
 1 -2.25141107970797 -0.01536406210621 -0.44953361406141
 1 -0.04919924332433  0.04029815571557  1.33035906640664
 1 -0.39069208210821 -1.69991917191719  1.35040215921592
 1 -4.16703136053605  5.54998313591359  1.30418355635564
 1 -5.57813903270327  6.87331244994499  1.29655525252525
 1 -5.17371914891489  5.81078092749275  2.83911497209721
 1 -7.81164126302630  7.05885291899190  1.01003230953095
 1 -9.81768716151615  6.20456844234423 -0.95389478547855
 1 -9.22309658885889  7.72819810511051 -0.36275597969797
 1 -12.23603815121512  3.68982948144814 -0.39458185678568
 1 -11.64704362666267  3.82222718741874 -1.95137235473547
 1 -13.17652505250525  2.87935355355536 -1.67872091899190
 1 -12.77936276217622 -1.05636576287629 -1.34427900170017
 1 -13.39938068036804  0.53238289968997 -1.80011368866887
 1 -12.12860737573757  0.42770978607861 -4.01592043544354
 1 -11.52777898559856 -1.14943433983398 -3.75375617231723
 1 -13.31640971417142 -1.17443480158016 -3.73053691239124
 1 -10.00353790059006 -4.77985007690769 -0.41566737063706
 1 -9.17819973017302 -4.35278229172917 -2.11952247284728
 1 -8.33848555405541 -5.55243602350235 -1.00380503400340
 1 -3.83181890919092 -3.61558891019102 -0.42341540134013
 1 -1.77564443244324 -6.05547215091509  2.37526323032303
 1 -2.01380795249525 -4.61122086108611  3.29615406570657
 1 -3.26121717711771 -5.77865486548655  3.39497101730173
 1  2.37191898369837 -2.03808054915492 -1.55942307560756
 1  2.66011785468547 -0.40885232323232 -2.22253987328733
 1  4.14962639853985 -0.81872994349435  0.35429447384738
 1  4.94377964246425  1.92461015881588 -2.61613420082008
 1  5.62531949574957  0.20505646084608 -3.13079614671467
 1  4.08753523872387  0.57108991489149 -3.47327268416842
 1  6.35005510261026  1.32223536743674 -0.59235443584358
 1  6.20739856565656 -0.02568815411541  0.64797449154915
 1  6.96610726382638 -1.39624366976698 -1.34154900100010
 1  7.63662341344134 -0.05046954235424 -2.35454431213121
 1  8.73741818341834  0.79745759725973 -0.08058680018002
 1  8.52717544744475 -0.48977606460646  0.58279113201320
 1  10.28466533183318 -0.29668947064706 -1.96525724862486
 1  9.12504969256926 -2.35492415521552 -1.96821604710471
 1  10.90552741374137 -2.55402707910791 -1.80984673027303
 1  10.06879532133213 -3.03006488398840 -0.22766628812881
 1  11.38481267136713  0.63086070987099  0.55398886148615
 1  11.19864743414341 -1.07220570607061  0.88640916261626
 1  12.84426093409341 -1.61340521952195 -1.05562900570057
 1  12.66408672527253  0.43977670477048 -1.52916623512351
 1  13.69455049054906  0.81773216901690  0.58721389548955
 1  13.91480631613161 -0.72028498249825  1.36836641284128
 1  15.02019351675168  0.53041624142414 -1.31304795459546
 1  14.85034042904291 -2.23668195199520 -1.29194321482148
 1  16.55644238053805 -1.93456929642964 -1.01517290989099
 1  15.74679739733974 -2.19824944354435  0.25017771907191
 1  15.52440963256326  1.53133622232223  0.66193003660366
 1  16.16368269096910  0.14082789188919  1.44641663846385
 1  18.04425050235023 -0.23655213381338 -0.26300098479848
 1  17.55579830523052  1.31744470757076 -1.12088939353935
 1  18.19532123802380  2.63947267496750  1.12454894989499
 1  18.74441745594559  0.80110894769477  1.74411566716672
 1  20.20326855665567  0.49325005870587 -0.24255131803180
 1  19.57877057425743  3.50248238033803 -0.92724769896990
 1  21.18171668886889  2.46427203100310 -1.60769609300930
 1  19.50810904670467  1.88876891349135 -1.89570475167517
 1  21.04952996609661  1.67172672297230  2.26930085788579
 1  21.93134697639764  2.38737685428543  0.74638653845384
 1  20.56882454515452  3.18384805530553  1.29107171157116
 1 -7.25997978047805  1.63755802780278  0.83339659645965
 1 -7.34060542714271 -0.13181805740574 -0.35904922512251

