%nproc=4
%Mem=2GB
# td=(NStates=1) B3LYP/SVP 

TD

0 1
 6 -5.06725957645765 -1.96845665166517  0.52444106920692
 6 -4.66581273947395  2.75153538253825  1.42987966406641
 6 -9.30793003660366  3.39138533483348 -0.38046266246625
 6 -9.70752260336034 -1.37683927852785 -1.18685483088309
 7 -5.24108085608561  0.48832529362936  0.92744020202020
 6 -4.51512961056106 -0.79382836643664  0.87274335993599
 6 -3.14160591429143 -0.57846833033303  1.41283453285329
 6 -3.14165831823182  0.81043616121612  2.03343784918492
 6 -4.45868082618262  1.29689673507351  1.46737864926493
 6 -3.31854835273527  0.79366766776678  3.62799265726573
 6 -2.05447078987899 -0.59641465556556  0.36713332103210
 6 -0.61440982908291 -0.76590544534453  0.87672543764376
 6  0.31903640954095 -0.99730664796480 -0.38347420462046
 8 -0.08572883698370 -1.55895558545855 -1.44254670927093
 8  1.60120519571957 -0.81501792029203 -0.17983297529753
 7 -7.03975715671567  2.72895763766377  0.42408300230023
 6 -5.89507368836884  3.43164989748975  0.97546167156716
 6 -6.16900817331733  4.77153523732373  1.02059361106111
 6 -7.39810287478748  5.04678600160016  0.37872310241024
 6 -7.99069451985199  3.74667326622662  0.07384872117212
 6 -5.20793995039504  5.86558034043404  1.60993699759976
 6 -8.06624321252125  6.27568728642864  0.40422547684768
 6 -9.03778130093009  6.74347363796380 -0.45753436973697
 7 -9.17411081038104  1.00273874847485 -0.59826680208021
 6 -9.84804658205821  2.09422272397240 -0.59850866156616
 6 -11.24078031603160  1.93907754725473 -1.02358642994299
 6 -11.34599003950395  0.60448448984898 -1.27149721132113
 6 -10.06917362576258 -0.03961101050105 -0.92575605600560
 6 -12.31907610481048  3.01000356945695 -1.14314874397440
 6 -12.57865796319632 -0.16760585898590 -1.78356059105911
 6 -12.62095656525653 -0.34605925232523 -3.32857004140414
 7 -7.48509163486349 -1.25884019851985 -0.22622896799680
 6 -8.59024501000100 -2.02041865606561 -0.72630955935594
 6 -8.06293990119012 -3.37449205070507 -0.80009374787479
 6 -6.76545857405741 -3.42311819611961 -0.34306641194119
 6 -6.36659519911991 -2.11598339743974 -0.05065291119112
 6 -8.90443442854285 -4.57771117111711 -1.28457096389639
 6 -5.63557967946795 -4.31851707860786 -0.02193952435244
 8 -5.68816067216722 -5.57230373907391 -0.03288636823682
 6 -4.45857146174617 -3.36750386308631  0.38921417101710
 6 -4.04453686848685 -3.91439513471347  1.85076696199620
 8 -4.34220683238324 -3.48921987788779  2.95781624562456
 8 -3.04575709140914 -4.82843312461246  1.68972471547155
 6 -2.41000453075308 -5.41088199349935  2.80665713601360
 6  2.59283932733273 -0.96870556115612 -1.19854405970597
 6  3.90829493929393 -0.98646326972697 -0.55403201640164
 6  4.93171547174717 -0.08753970637064 -0.98759416401640
 6  4.94951546174617  0.61816565826583 -2.29120165916592
 6  6.22173588568857  0.02417504580458 -0.31486294939494
 6  7.57757198439844 -0.40119945304530 -1.01081843524352
 6  8.71831530853085 -0.37225243214321 -0.07819269916992
 6  10.05125698039804 -0.65257974057406 -0.77448842874287
 6  10.12063585698570 -2.28119328512851 -1.08913302800280
 6  11.30242091669167 -0.32128179877988  0.11000853285329
 6  12.60189877447745 -0.51727020542054 -0.62508038523852
 6  13.80421682888289 -0.04730743384338  0.19507587018702
 6  15.20275209630963 -0.10377341314131 -0.38780261606161
 6  15.63602092969297 -1.58538270017002 -0.73624335983598
 6  16.25133773097310  0.75653656485649  0.26970023442344
 6  17.64547138583858  0.79610534443444 -0.24491899969997
 6  18.57755760676067  1.67196581558156  0.57760645354535
 6  20.04952484838484  1.69250487578758  0.08200096049605
 6  20.22766369586959  2.26492592379238 -1.24461087008701
 6  21.05334580018002  2.35261899799980  0.95986238693869
 1 -3.87107527512751  3.42496888118812  1.80101233953395
 1 -10.11176876187619  4.15207464396440 -0.47211588548855
 1 -10.47677601750175 -2.07763377337734 -1.61341123502350
 1 -2.90266631813181 -1.30598096219622  2.18821061576158
 1 -2.53564413201320  1.49612956405641  1.91393089148915
 1 -2.53856137203720  0.25559298099810  3.75068179347935
 1 -3.32984628492849  1.66571121472147  4.04295339653965
 1 -4.24507508690869  0.16878758105811  3.87626647234723
 1 -2.18885833973397 -1.47899177687769 -0.33762061836184
 1 -2.33781972057206  0.39404687898790 -0.41318997969797
 1 -0.06348067146715  0.09404353025303  1.43365939643964
 1 -0.41722473537354 -1.82078125812581  1.42388950795079
 1 -4.14477913531353  5.63826196379638  1.18845198319832
 1 -5.53579479827983  6.76846196489649  1.47828342534253
 1 -5.28803058005801  5.72390223962396  2.76741780238024
 1 -7.67530762966297  7.00602763646365  1.17062836913691
 1 -9.18755414821482  6.09631761726173 -1.32904230023002
 1 -9.58521280048005  7.69684496979698 -0.26019572367237
 1 -12.38020256765677  3.41303180168017 -0.23733613221322
 1 -12.02757167946795  3.83999896459646 -1.86396361386139
 1 -13.26312371237124  2.61287690589059 -1.35665871277128
 1 -12.50781560746075 -1.11872199849985 -1.26146071987199
 1 -13.54141488378838  0.26586624802480 -1.36414009130913
 1 -12.47917243224322  0.54231124622462 -3.78230707410741
 1 -11.89617582528253 -1.03417281368137 -3.85386618331833
 1 -13.63525159835984 -0.71676903500350 -3.59066292499250
 1 -9.73583112991299 -4.93211530343034 -0.59974577847785
 1 -9.45820773097310 -4.19211622512251 -2.09041956255626
 1 -8.49527123262326 -5.60296107600760 -1.55190984448445
 1 -3.66040176747675 -3.44732208350835 -0.24363742354235
 1 -1.70563743174317 -6.11118772247225  2.50421612561256
 1 -2.19352592429243 -4.59847958695870  3.56009045934593
 1 -3.21719277467747 -5.86154315431543  3.30342186238624
 1  2.16183797559756 -1.95950269136914 -1.82116925022502
 1  2.43324516741674 -0.21042248024802 -2.04648226752675
 1  4.18522995889589 -1.71656972747275  0.28932797719772
 1  5.56589185368537  1.73039073687369 -2.31668425582558
 1  5.54031099489949  0.02343829902990 -3.09564263136314
 1  3.79809629482948  0.94125693159316 -2.68045340224023
 1  6.33487358445845  1.11314445834583  0.17282208180818
 1  6.05745357115712 -0.62961854715472  0.65792548664866
 1  7.36118677177718 -1.39541358675868 -1.35976082218222
 1  7.70448019911991  0.33820932553255 -1.99094795249525
 1  8.68882332393239  0.72395024652465  0.29678093659366
 1  8.75514824472447 -1.15011209820982  0.80782363526353
 1  10.06251311661166 -0.08383818551855 -1.85211593449345
 1  9.07458464606461 -2.55609427222722 -1.54873409890989
 1  10.86048290929093 -2.36945862226223 -1.89406515211521
 1  10.50810925272527 -3.04343622112211 -0.23466698819882
 1  11.16774096419642  0.81307893169317  0.26761022362236
 1  11.14391196059606 -0.65933441894189  1.00987150885088
 1  12.77923443144314 -1.63586746574657 -0.52017546034603
 1  12.67239755635564 -0.12767003990399 -1.63777709620962
 1  13.41480251575157  1.03317371317132  0.48180335443544
 1  13.81760659615962 -0.43068602260226  1.23708328452845
 1  15.08623012041204  0.32948614841484 -1.49746639643964
 1  14.56156155115512 -2.10653893769377 -1.06530055055506
 1  16.55383211951195 -1.68672451195119 -1.57285867846785
 1  15.67535025262526 -2.14664428302830  0.22486518781878
 1  15.80149734133413  1.67393048174817  0.41130497409741
 1  16.16008233093309  0.26184999409941  1.41846384318432
 1  18.11386746404640 -0.21422990159016 -0.52192687738774
 1  17.52008473387339  1.32548551165116 -1.53616092069207
 1  18.25409711561156  2.82697142484248  0.40311680668067
 1  18.34943795799580  1.24537337413741  1.64423567916792
 1  20.33927215701570  0.73204393809381  0.13008594569457
 1  20.05010770797080  3.47934006610661 -1.29503447764776
 1  21.27702621982198  2.02062766656666 -1.73439876327633
 1  19.60303853965397  1.69570960756076 -2.01540672187219
 1  21.32965797889789  1.75858540884088  2.08028195599560
 1  21.95085892759276  2.37635575217522  0.52105400520052
 1  20.76750441314132  3.53848351885189  1.23997660206021
 1 -7.12453623612361  1.71803607560756  0.28450170697070
 1 -7.63004437103710 -0.26276115171517  0.21430811061106

