%nproc=4
%Mem=2GB
# td=(NStates=1) B3LYP/SVP 

TD

0 1
 6 -5.11663451395140 -1.92114192019202  0.35405403050305
 6 -4.78780493869387  2.84257448644864  1.46457313341334
 6 -9.39925916951695  3.38494469076908 -0.26110072627263
 6 -9.80727257835784 -1.46586818141814 -0.93962010741074
 7 -5.13960070807081  0.39282574367437  0.74249170717072
 6 -4.56359445704570 -0.71505048864887  0.74065015061506
 6 -3.12106386008601 -0.52464294779478  1.30416366576658
 6 -3.07882203460346  0.81890700830083  1.93799830523052
 6 -4.44664962306231  1.39913695909591  1.43042495389539
 6 -2.97203370127013  0.90188848984898  3.46002586058606
 6 -2.14168951175118 -0.68777379147915  0.12979958765877
 6 -0.68211659975998 -0.61047990279028  0.63752151725173
 6  0.39137364326433 -0.92272919021902 -0.50475633283328
 8  0.04261399729973 -1.48035772567257 -1.54320677527753
 8  1.63021809700970 -0.70036645514551 -0.13025801780178
 7 -7.11392457345735  2.79193393529353  0.45065565956596
 6 -5.99627380838084  3.36751348384838  1.04444857025703
 6 -6.21380265276528  4.79788787258726  1.01761331303130
 6 -7.53525659015902  4.98871019401940  0.54428965906591
 6 -8.05781123152315  3.64861346024602  0.21176251255126
 6 -5.30243940034003  5.77684146654665  1.57266327022702
 6 -8.22685927412741  6.35130484818482  0.39323437773777
 6 -9.13627114991499  6.65045433603360 -0.52680129642964
 7 -9.19007240654065  0.89188766336634 -0.42580955635564
 6 -9.86313809120912  2.05734903660366 -0.60301911261126
 6 -11.19022526052605  1.80314395389539 -1.05731980328033
 6 -11.33075851635163  0.48193223462346 -1.22567262886289
 6 -10.07130383878388 -0.07972502190219 -0.89547302770277
 6 -12.19447364456446  2.99165173427343 -1.17078150725073
 6 -12.61817191459146 -0.26365546394639 -1.69169140414041
 6 -12.57828229782978 -0.57502214861486 -3.22670985538554
 7 -7.49288241394139 -1.33851816631663 -0.11184752985299
 6 -8.54342032753275 -2.02625924012401 -0.48270519891989
 6 -8.17135074227423 -3.42509711121112 -0.68240197869787
 6 -6.78729075727573 -3.42067795209521 -0.26859896519652
 6 -6.44743328292829 -2.11205300440044  0.06011816591659
 6 -8.83240722582258 -4.65652905290529 -1.05541804860486
 6 -5.68638475997600 -4.29659488638864 -0.09950728112811
 8 -5.64783663976398 -5.55952246094609 -0.17924100370037
 6 -4.53733933853385 -3.34144125682568  0.32948819841984
 6 -4.00886330113011 -3.79138283348335  1.70788267356736
 8 -4.20809342104210 -3.34701565746575  2.81316178017802
 8 -3.08573108880888 -4.77426770807081  1.56806254925493
 6 -2.54403793409341 -5.44176508180818  2.68624509480948
 6  2.70526056945695 -0.97782647324732 -1.11796600190019
 6  4.06134024382438 -0.65744036743674 -0.43082969616962
 6  4.93172547274727  0.13997304490449 -0.97653305790579
 6  4.71685219541954  0.92522636433643 -2.31903444244424
 6  6.26140985308531  0.33498612691269 -0.23009447254725
 6  7.52432665986599 -0.30865019811981 -0.94254160756076
 6  8.75856933393339 -0.15943115001500 -0.20819569946995
 6  10.08933078777878 -0.67678216081608 -0.89760073997400
 6  10.10037383078308 -2.22318748454845 -0.95036915161516
 6  11.20158083268327 -0.21678134873487  0.00154768676868
 6  12.59488807340734 -0.67297577597760 -0.53460133733373
 6  13.87400380758076 -0.12388509160916  0.22976933953395
 6  15.19082090319032 -0.35435847164716 -0.42990682648265
 6  15.67286461406140 -1.84618878077808 -0.51843157865787
 6  16.29110170737074  0.63288419961996  0.25423868826883
 6  17.70179701840184  0.62254798869887 -0.25478998679868
 6  18.66726657765776  1.45702432143214  0.58202689558956
 6  20.04533442934293  1.60770639593959  0.07705046544654
 6  20.27183811331133  2.16917634883488 -1.25072148114812
 6  20.99018948454846  2.35333907000700  1.07446384708471
 1 -4.03124129172917  3.40441682598260  1.74056629492949
 1 -9.93133071807181  4.33810324682468 -0.18242691659166
 1 -10.49861820172017 -2.14684069406941 -1.14402429632963
 1 -2.76736278777878 -1.36526689078908  2.00537233193319
 1 -2.53169373697370  1.45736568766877  1.35093459185919
 1 -1.77077459335934  0.64586200790079  3.73296002130213
 1 -2.96622992329233  1.81228587218722  3.88255735693569
 1 -3.68944952435244  0.33910461276128  4.14167301300130
 1 -2.14291374527453 -1.61593547124712 -0.35259211551155
 1 -2.25337127572757  0.22857033133313 -0.48627728842884
 1 -0.39330365376538  0.34590871677168  1.00295632613261
 1 -0.51712472537254 -1.35580476047605  1.56628374737474
 1 -4.46575123252325  5.87400553815382  0.89503264126413
 1 -5.65957717651765  6.76081119981998  1.57383298029803
 1 -4.94012578957896  5.38474832423242  2.37101816241624
 1 -7.88248834773477  6.92003903760376  0.98155946224622
 1 -9.36944233703370  6.05004298979898 -1.43156255225523
 1 -9.45287956715672  7.58618390369037 -0.34952465656566
 1 -12.28839338673867  3.63452395089509 -0.22993539213921
 1 -11.91167008930893  3.60239520422042 -1.95555277277728
 1 -13.42901030103010  2.62643826202620 -1.49305235213521
 1 -12.65476030193019 -1.15602572887289 -1.13316789058906
 1 -13.52639338163817  0.25393505490549 -1.63461713901390
 1 -12.62575709070907  0.37059407450745 -3.76426526992699
 1 -11.72343855155516 -1.09642903930393 -3.70321111781178
 1 -13.53407148034804 -1.11241859996000 -3.63331719041904
 1 -9.86903445024502 -4.77305939783978 -0.70677648154815
 1 -9.26407831803180 -4.78298531203120 -2.01341186178618
 1 -8.11761346684669 -5.52055283518352 -0.82599725322532
 1 -3.85913164046405 -3.50038739003900 -0.42632569236924
 1 -1.75298216621662 -6.06292289598960  2.32795849984999
 1 -2.29913648534853 -4.44107384638464  3.31812626292629
 1 -3.45426648204820 -5.99237623762376  3.06377789798980
 1  2.63361515331533 -2.02791953305330 -1.32567970127013
 1  2.36028787168717 -0.57841927992799 -2.04605222452245
 1  4.27731916781678 -1.33970204070407  0.52326137053705
 1  5.49555481998200  1.90091778957896 -2.29110169756976
 1  5.15217218101810  0.24456041124112 -3.16727979507951
 1  3.63073955915592  1.26930973687369 -2.55522087898790
 1  6.53368346544655  1.38099124302430  0.11455625522552
 1  6.10690851665166 -0.33734932023202  0.67565725982598
 1  7.40067072017202 -1.42149619501950 -1.32076692279228
 1  7.86443619471947  0.17194269886989 -2.05225408310831
 1  8.91045548714871  0.97034488598860  0.16191745024502
 1  8.66079880978098 -0.34827191419142  0.82490534343434
 1  10.01912877817782 -0.07149695139514 -1.83704442734273
 1  9.12954014161416 -2.69825848864886 -1.47962718821882
 1  10.95740260126013 -2.69864154055406 -1.79874562016202
 1  10.17517595939594 -2.81564344184418  0.00920739923992
 1  11.03679786988699  0.77760538433843  0.23219668226823
 1  11.19253682308231 -0.53771225672567  1.05810633233323
 1  12.83219972797280 -1.82019589858986 -0.49260270307031
 1  12.70424074067407 -0.40695796869687 -1.48837215571557
 1  13.64205524102410  0.95855625142514  0.48637381148115
 1  13.76292112761276 -0.50588354235424  1.41263083928393
 1  14.95511700910091  0.10843404320432 -1.46188283808381
 1  15.16754214921492 -2.29537782158216 -1.52496651715172
 1  16.73110984728473 -2.16415225472547 -0.68416980958096
 1  15.42376509410941 -2.40122974157416  0.42023472477248
 1  15.90297748934893  1.62467555625563  0.44942878647865
 1  16.29468579127913  0.40850465956596  1.31705370217022
 1  18.14117019431943 -0.45505398399840 -0.24065875057506
 1  17.49104182958296  1.00245320842084 -1.16176348094810
 1  18.18564026992699  2.40898962666267  0.79406590159016
 1  18.77565057925793  1.09235807260726  1.67622887848785
 1  20.62033026282628  0.69165989968997  0.06442938003800
 1  19.92059475667567  3.29450158225823 -1.37083205740574
 1  21.26178469566957  2.18460406420642 -1.43446877027703
 1  19.77732596839684  1.85466550315031 -2.29152433363336
 1  20.94751976507651  2.16696624692469  2.06455038283828
 1  22.09737357905790  2.22850096669667  0.50100200000000
 1  20.66645430813081  3.52035170567057  1.17803040744074
 1 -7.31901568406841  1.68716298829883  0.49366262306231
 1 -7.40497186378638 -0.29660453605361 -0.25688900910091

