%nproc=4
%Mem=2GB
# td=(NStates=1) B3LYP/SVP 

TD

0 1
 6 -5.13459631013101 -2.07263706970697  0.39613823892389
 6 -4.76983314151415  2.67108733773377  1.31214789088909
 6 -9.30600984458446  3.35028122442244 -0.20294491069107
 6 -9.82855470657066 -1.37024861946195 -0.83449959535954
 7 -5.25599234723472  0.34842130323032  0.71358881688169
 6 -4.58092619021902 -0.82524150775078  0.77559364496450
 6 -3.02251400510051 -0.60561104460446  1.14141739113911
 6 -3.08756290869087  0.83667878547855  1.71932643804380
 6 -4.45580053815381  1.31827887328733  1.25365727712771
 6 -2.94643114101410  0.90863916491649  3.24447430543054
 6 -2.00342568536854 -0.89467448154815  0.12499910761076
 6 -0.48005639373937 -0.74148300310031  0.66851461656166
 6  0.44504901080108 -1.08037495479548 -0.55445130233023
 8  0.10044978087809 -1.57463715361536 -1.62996545114511
 8  1.66495157035704 -0.76643306180618 -0.19010400240024
 7 -7.05977915891589  2.75924066596660  0.51375196919692
 6 -5.97569175017502  3.37146387888789  1.02587671307131
 6 -6.14522579507951  4.80892897669767  0.98862041374137
 6 -7.46148921342134  4.99267059005901  0.48691392149215
 6 -8.00312576297630  3.73471207010701  0.22933426972697
 6 -5.16917607400740  5.85528931133113  1.47953395729573
 6 -8.09611619981998  6.30511022872287  0.32009706400640
 6 -9.09984750755076  6.60220951155116 -0.51625024132413
 7 -9.12159555885589  0.93763223782378 -0.55488246364636
 6 -9.76968874627463  2.14608791049105 -0.59126793749375
 6 -11.26416265426543  1.87442108160816 -0.92065613691369
 6 -11.42253769426943  0.53852789418942 -1.17306736833683
 6 -10.12642935133514  0.02170512111211 -0.85779926032603
 6 -12.32199639683968  3.00774334343434 -0.94619904900490
 6 -12.69363946134613 -0.13459255765577 -1.56473870887089
 6 -12.65209967956796 -0.37233187958796 -3.02304948934894
 7 -7.58531165686569 -1.33925824032403 -0.21645799089909
 6 -8.63049903540354 -2.08692530673067 -0.58024495289529
 6 -8.27042064926493 -3.50607520902090 -0.76532027052705
 6 -6.93790581878188 -3.49352523682368 -0.25817792309231
 6 -6.47211575117512 -2.15565736483648  0.05304745884588
 6 -9.14508849394939 -4.57928132813281 -1.06972947974797
 6 -5.81446756825683 -4.40256548344835  0.09727239683968
 8 -5.70907276337634 -5.58097460616062  0.06794371477148
 6 -4.53910951555156 -3.43751086378638  0.41674692429243
 6 -3.99862227702770 -3.79778347354735  1.81956384168417
 8 -4.27206981868187 -3.35094605050505  2.90353081708171
 8 -3.12067458315832 -4.86985726702670  1.56460220322032
 6 -2.47898142844284 -5.27881878717872  2.77023349364936
 6  2.64603464686469 -1.05280397099710 -1.32535674097410
 6  3.98503261306131 -0.85781040444044 -0.78220483368337
 6  4.91368366856686  0.11420046764676 -1.05105050965097
 6  4.75362587278728  1.13232707440744 -2.25506804580458
 6  6.27482119421942  0.29698232653265 -0.30051151425142
 6  7.58855308250825 -0.20278961206121 -1.10014736813681
 6  8.86903038003801 -0.18297350425043 -0.24103898379838
 6  10.06983883858386 -0.55001948454845 -0.91670265016502
 6  10.21588538193819 -2.13984915071507 -1.28973308800880
 6  11.32610328492849 -0.17660733133313 -0.13657612561256
 6  12.71634021862186 -0.60425890429043 -0.62976085328533
 6  13.88093450065007 -0.05573827692769  0.25130149274927
 6  15.23814563566357 -0.24116715251525 -0.34207804360436
 6  15.52673000060006 -1.61966612851285 -0.53226296179618
 6  16.26736933413342  0.65238614981498  0.42454571897190
 6  17.70357719641964  0.68113384728473 -0.08836334413441
 6  18.55590544154415  1.65113373237324  0.70226891979198
 6  20.05779567546755  1.57041266656666  0.38416117651765
 6  20.27785871537154  1.92395182638264 -1.11340774977498
 6  21.00063052865287  2.39498323442344  1.24175057575758
 1 -3.93631179877988  3.29496588088809  1.85753799209921
 1 -10.02000958595860  4.07936737323732 -0.19525819971997
 1 -10.72642098199820 -2.16002201220122 -1.09664955885589
 1 -2.97345339683968 -1.14791515561556  2.12084387908791
 1 -2.18518908650865  1.35305525662566  1.27531703010301
 1 -1.76381389728973  0.89592701440144  3.38745547084708
 1 -3.30056335663566  2.01698634223422  3.44923402460246
 1 -3.66336691609161  0.05039574187419  3.87134598029803
 1 -2.04414386828683 -1.76519039673967 -0.42853971027103
 1 -1.91244718331833 -0.03286581228123 -0.70569923062306
 1 -0.31866619001900  0.38279240514051  0.85910194069407
 1 -0.13876688958896 -1.42598177817782  1.43328044704470
 1 -4.10905556295629  5.82479061666167  1.08471160916092
 1 -5.62905412421242  6.88206332503250  1.17690328732873
 1 -5.03824560156016  5.99258910831083  2.58643970457046
 1 -7.69744984388439  7.07811484518452  0.94782608890889
 1 -9.73037843064306  5.76271425692569 -1.29512890889089
 1 -9.46214049324933  7.62352763806381 -0.34029373347335
 1 -12.32069661706171  3.56862736123612  0.06657425882588
 1 -12.01119004130413  3.64890985568557 -1.73166038353835
 1 -13.37793519351935  2.69276489468947 -1.10123317021702
 1 -12.91526635253525 -1.14005413171317 -0.84784935873587
 1 -13.55030577287729  0.53077273867387 -1.30650432773277
 1 -12.35144965996600  0.42508952405241 -3.54320316371637
 1 -11.87504371207121 -1.14434383078308 -3.49558035473547
 1 -13.68669674287429 -0.86668402650265 -3.26318017671767
 1 -9.85109265606561 -4.81256334823482 -0.34224002790279
 1 -9.97860977117712 -4.31897891139114 -2.09390991159116
 1 -8.33428513401340 -5.32694347424743 -1.27498215171517
 1 -3.80853658095810 -3.67663501480148 -0.23844690449045
 1 -1.80130699869987 -6.08729533323332  2.67846355035504
 1 -1.87544411611161 -4.59725946494649  3.27782223252325
 1 -3.28055911131113 -5.80908790879088  3.45084660486049
 1  2.57057884968497 -2.07716445754575 -1.64898203150315
 1  2.62064390729073 -0.11898333633363 -2.10935855515551
 1  4.16994843074307 -1.57706577707771  0.03777282168217
 1  4.90400566506651  2.24341203900390 -1.87010959835984
 1  5.41199816361636  0.79556551175117 -3.04213728082808
 1  3.80324680988099  0.87905071097110 -2.78354371127113
 1  6.37603770087009  1.33909705360536  0.06189098869887
 1  6.28062588838884 -0.48822440774077  0.55125481958196
 1  7.38654930803080 -1.12803684908491 -1.60325517161716
 1  7.66237598869887  0.41341684628463 -1.94801365906591
 1  8.97935237683768  0.90735858735874 -0.09069781128113
 1  8.56092882278228 -0.82715980298030  0.68034088698870
 1  10.02771963726373 -0.02227202890289 -1.95140586348635
 1  9.09319650725073 -2.51158982178218 -1.75117434293429
 1  11.05260212121212 -2.42262393879388 -1.93984973057306
 1  10.43827226902690 -2.62162403990399 -0.36928044954495
 1  11.39938412851285  0.84857248104810  0.06203966656666
 1  11.25179274867487 -0.57388587408741  0.91964248594859
 1  12.84849135713571 -1.60707458645865 -0.86023946674668
 1  12.62833314991499 -0.02375964886489 -1.63721704020402
 1  13.80965200070007  1.10196059185919  0.42060723482348
 1  13.86404123962396 -0.38787174117412  1.40269984618462
 1  15.29059055645565  0.31082428222822 -1.36272292209221
 1  14.99034442944295 -1.97886617041704 -1.37189120962096
 1  16.59204594089409 -2.00367620712071 -0.93453484608461
 1  15.24632735033503 -2.18424804340434  0.31241394269427
 1  15.78509570117012  1.61662475117512  0.33097694129413
 1  16.14629095179518  0.34679848894889  1.51831382818282
 1  18.01825790309031 -0.40909938853885  0.07536285158516
 1  17.64676740214021  0.75358832193219 -1.26843414801480
 1  18.07183888978898  2.75094382208221  0.33804029902990
 1  18.37893090729073  1.52226106290629  1.86718797439744
 1  20.54806303610361  0.46058679237924  0.53483642074207
 1  19.79446214341434  3.04268640074007 -1.14918989318932
 1  21.36159467666766  1.93014861866187 -1.27139246264626
 1  19.72307054285428  1.33311334793479 -1.84370955215522
 1  20.90678569166917  2.23336288658866  2.31612554035404
 1  21.98640248194819  2.40027814441444  0.87322922272227
 1  20.76036369906991  3.44285395589559  1.25134773917392
 1 -7.34644842734273  1.71680595259526  0.09242249904990
 1 -7.25495686228623 -0.23846872247225  0.22171885168517

