%nproc=4
%Mem=2GB
# td=(NStates=1) B3LYP/SVP 

TD

0 1
 6 -5.15398824932493 -1.88589839583958  0.36645527062706
 6 -4.62775893409341  2.66997722672267  1.63095977207721
 6 -9.21647089068907  3.48232442874287 -0.21092570877088
 6 -9.84345619671967 -1.37874946954695 -0.92148829422942
 7 -5.18400514851485  0.47739420052005  0.87647510551055
 6 -4.46890498809881 -0.74714369796980  0.78413449904990
 6 -3.07897965166517 -0.65766625012501  1.28056130553055
 6 -3.05439959235924  0.76949206680668  1.96179068446845
 6 -4.30889584768477  1.32009905530553  1.39872178357836
 6 -3.06318281618162  0.75312361336134  3.40517037503750
 6 -2.01127647044704 -0.78943395749575  0.19356596429643
 6 -0.62407079517952 -0.92478133293329  0.69673743884388
 6  0.38864337023702 -1.21336825412541 -0.45165102230223
 8  0.01766150205020 -1.40028971887189 -1.58567102170217
 8  1.67678275347535 -1.02816923542354 -0.06830182218222
 7 -6.97609079007901  2.73309805170517  0.51988258225823
 6 -5.80675485648565  3.31126785928593  1.05895002040204
 6 -6.12191346384638  4.72044012781278  1.18609016071607
 6 -7.39714277877788  4.97033835683568  0.63739896999700
 6 -7.90168561896190  3.63645224412441  0.30026136243624
 6 -5.23218237463746  5.77605138753875  1.71429743364336
 6 -8.05360194839484  6.22715243294329  0.35839089338934
 6 -8.77642516531653  6.62641193179318 -0.64238285458546
 7 -9.25614901420142  0.99934840944094 -0.37687466286629
 6 -9.84607638503850  2.25880918261826 -0.56737554825483
 6 -11.16761299929993  1.98715235473547 -1.07094116541654
 6 -11.35463090359036  0.65700974237424 -1.31125118671867
 6 -10.11480818921892  0.01687463806381 -0.81288476887689
 6 -12.08604280148015  3.13190575967597 -1.27044147324732
 6 -12.60077017441744 -0.08921802020202 -1.75164739973997
 6 -12.57294176377638 -0.25325997239724 -3.15517270167017
 7 -7.57393051875188 -1.15615993049305 -0.31094743984398
 6 -8.61934792029203 -2.02438905310531 -0.60105703410341
 6 -8.20950455765577 -3.34368897039704 -0.74682842134213
 6 -6.90666269446945 -3.31213709800980 -0.26245835113511
 6 -6.49714825442544 -2.02336413551355 -0.07826567246725
 6 -9.08539252435243 -4.47988138813881 -0.99775228202820
 6 -5.73605972747275 -4.25051027792779 -0.09334666506651
 8 -5.65582743884388 -5.40439694839484 -0.14521760136014
 6 -4.57130273487349 -3.30128724142414  0.34498974857486
 6 -4.00082249704970 -3.90598429362936  1.69429131443144
 8 -4.24099671137114 -3.43103405930593  2.79015947994799
 8 -3.21330384608461 -4.93269355065507  1.39818556155616
 6 -2.65575910621062 -5.50701160646065  2.64677114741474
 6  2.66326637003700 -1.28927761836184 -1.06561076637664
 6  3.97198130793079 -0.82288691209121 -0.62165877907791
 6  4.95701800200020 -0.14737568996900 -1.25267067166717
 6  4.88982949314931  0.20704454615462 -2.73549608860886
 6  6.28807251935194  0.18521114941494 -0.49494095719572
 6  7.50108433563356 -0.66803613671367 -1.00656801020102
 6  8.74578805580558 -0.26076128302830 -0.22255713561356
 6  10.06313816851685 -0.94841932453245 -0.61182216211621
 6  10.05312910631063 -2.46461162696270 -0.63767788248825
 6  11.31430210481048 -0.29325899649965  0.16962449444944
 6  12.68046663126313 -0.57039551795180 -0.55391326852685
 6  13.82622903010301  0.16315361226123  0.14358072067207
 6  15.21959378047805 -0.09375241104110 -0.26418025382538
 6  15.67966529412941 -1.64261842374237 -0.26383611911191
 6  16.16499909710971  0.83368427962796  0.52260552495250
 6  17.52140897959796  0.78140387428743 -0.06933144094409
 6  18.47861771277127  1.81158977797780  0.49525821872187
 6  19.92062195809581  1.87602322762276 -0.04700193979398
 6  20.09343027252725  2.34878430963096 -1.51351776077608
 6  20.86636710231023  2.87405114121412  0.79789619031903
 1 -3.77188535613561  3.35643202750275  1.93134537283728
 1 -9.76840442544254  4.31147058355836 -0.36815548944894
 1 -10.75558389828983 -1.94669067906791 -1.15538543244324
 1 -3.04245029652965 -1.31631199529953  2.15570736543654
 1 -2.30044061166117  1.28417836893689  1.51515101350135
 1 -1.97832534843484  0.44353177487749  3.85581230653065
 1 -3.14822812311231  1.70737538113811  4.00242934413441
 1 -3.72455303470347 -0.03234253195320  3.99589843554355
 1 -2.41433088698870 -1.70945482318232 -0.39830668696870
 1 -2.10595653425343 -0.18784130983098 -0.73244190489049
 1 -0.47134145754575  0.07553167906791  1.22560859135914
 1 -0.47663067596760 -1.85082426242624  1.25789290829083
 1 -4.37071172857286  5.94154229182918  0.94796793479348
 1 -5.82386360516052  6.67842296099610  2.21895749274927
 1 -4.62274405140514  5.33022287168717  2.61343240384038
 1 -7.87250734963496  7.20168720242024  0.87965927222722
 1 -9.11769716251625  6.13397138263826 -1.57134653065306
 1 -9.13097737693769  7.73043832913291 -0.65779548364836
 1 -12.17331187858786  3.97310780928093 -0.46034843344334
 1 -11.78114703700370  3.81197616231623 -2.07302451995199
 1 -12.99520692069207  2.82613823202320 -1.79516256315632
 1 -12.53245807170717 -1.05684581088109 -1.03496807060706
 1 -13.47268801110111  0.43393305470547 -1.57879155645565
 1 -12.60982549754976  0.73441045614561 -3.71609045244525
 1 -11.61252746044605 -0.73932332873287 -3.85923672037204
 1 -13.55433350655066 -0.85546290439044 -3.42230608930893
 1 -10.05846339313931 -4.29496158805881 -0.44138994289429
 1 -9.30473238343834 -4.42748976247625 -2.03798431903190
 1 -8.69209091459146 -5.43589436933693 -0.75931058455846
 1 -3.72455818311831 -3.51807915921592 -0.28635169496950
 1 -2.00012688068807 -6.44425102880288  2.53904960896090
 1 -2.09179575127513 -4.78915865486549  3.29427387768777
 1 -3.43534458985899 -6.09776677667767  3.13819533973397
 1  2.40290208200820 -2.26731347244725 -1.09385651895190
 1  2.27250909380938 -0.87171860986099 -2.22735035433543
 1  4.16741817771777 -1.05952402290229  0.41179022342234
 1  5.33893915841584  1.26871456925693 -2.72985557295730
 1  5.81441840564056 -0.32136618141814 -3.09606267336734
 1  3.91932841804180  0.00054286018602 -3.26211156805681
 1  6.61406150325032  1.13707685158516 -0.57556275667567
 1  5.97829565536554 -0.06043162846285  0.62204189828983
 1  7.14038469156916 -1.80477452285229 -0.80278512461246
 1  7.61373112421242 -0.55162965836584 -2.10931978967897
 1  8.66727116871687  0.89222707420742 -0.08999774127413
 1  8.58052078197820 -0.60829791679168  0.85992884578458
 1  10.03117998329833 -0.52057185888589 -1.70207092999300
 1  9.24388157575758 -2.78687735053505 -1.26054528002800
 1  11.13639050005001 -2.87358903530353 -0.90852659825983
 1  9.64220266206621 -2.78000987848785  0.49308578707871
 1  11.11430562066207  0.77686531033103  0.28398186078608
 1  11.26624419381938 -0.69294778027803  1.13992451415141
 1  13.00904741274127 -1.66149002800280 -0.38208165096510
 1  12.89015933253325 -0.24081135403540 -1.57440075857586
 1  13.64615565106511  1.25934633043304  0.19312448654865
 1  13.99860469596960 -0.16480943494349  1.13724330053005
 1  15.31365286268627  0.39924312411241 -1.28015466526653
 1  15.02483787878788 -2.28870715451545 -0.91426544704470
 1  16.72362909920992 -1.75065090459046 -0.69152054465447
 1  15.89007172477248 -2.23054267286729  0.65462816411641
 1  15.73581077267727  1.92091518021802  0.51542538613861
 1  16.34263058575858  0.49499330843084  1.53870586738674
 1  17.76665274257426 -0.27116559515952 -0.04915960066007
 1  17.40606333173318  0.95606856995700 -1.27491479607961
 1  17.98407011291129  2.84225295299530  0.21043753875387
 1  18.56903991819182  1.90111894869487  1.70689194479448
 1  20.36197442724272  0.87548828252825  0.10283322042204
 1  19.63182587978798  3.43979611171117 -1.51768674287429
 1  21.17017553475348  2.21273687748775 -1.62336766016602
 1  19.56845508130813  1.76431646824682 -2.23169835103510
 1  20.90200521362136  2.43331288158816  1.92602653045304
 1  21.97793163486348  2.80073819041904  0.56307820762076
 1  20.47485514821482  3.92647231773177  1.05040764516452
 1 -6.77954173667367  1.65109938193819 -0.04017076027603
 1 -7.51938330493049 -0.13039791539154 -0.27164048424843

