%NProcShared=4
%Chk=dihydrobiliverdin_s0-geom.chk
#n B3LYP/SVP Opt

 dihydrobiliverdin-s0-geom

0 1
O          5.65780       -1.13830        2.82480
O         -0.45890        2.43930       -4.23220
O         -2.05860        0.95950       -3.78020
O         -5.70310       -4.33720        2.07290
O         -5.10600       -3.28770        3.94320
O          1.15440        4.09470       -2.10800
N          0.94480       -2.49210        0.76070
N          4.38370       -1.63640        1.03750
N         -1.63550        0.91360        0.56420
N         -0.57420        3.31130       -0.78540
C          4.39540       -2.61600       -0.01890
C          3.12150       -3.48270        0.02580
C          1.87570       -2.66460       -0.19210
C          1.48650       -2.01000       -1.35240
C          0.26390       -1.39220       -1.07320
C         -0.02920       -1.70450        0.26520
C          5.64470       -3.42970        0.27550
C         -0.61860       -0.67230       -2.07290
C          6.24190       -2.96220        1.40130
C         -1.22460       -1.39420        1.09520
C         -1.94650       -0.25310        1.17110
C          5.43200       -1.83180        1.84500
C         -3.09850       -0.09050        1.94490
C          2.21190       -2.03560       -2.66810
C          6.06660       -4.53540       -0.65720
C         -3.49580        1.23350        1.78050
C          0.03270        0.57060       -2.70440
C         -2.56720        1.82770        0.92880
C         -3.77850       -1.14890        2.78980
C          7.46260       -3.37370        2.16150
C         -4.40850       -2.24860        1.91550
C         -4.68680        1.92420        2.39430
C         -2.60920        3.12960        0.55030
C         -0.90590        1.33010       -3.60700
C         -1.63730        3.85200       -0.31990
C          8.17530       -4.49790        2.03020
C         -5.09420       -3.32190        2.72060
C         -1.75030        5.28090       -0.75760
C         -0.65100        5.53540       -1.50710
C          0.09120        4.28510       -1.53940
C         -2.90080        6.16070       -0.37270
C         -0.14430        6.78170       -2.18210
C         -3.24830        7.32810       -0.92560
H          4.50610       -2.10430       -0.99630
H          3.06910       -3.96560        1.02670
H          3.15640       -4.28600       -0.73950
H          0.97620       -2.89290        1.72540
H          3.68000       -0.89210        1.15580
H         -0.88270       -1.38440       -2.88420
H         -1.57060       -0.39060       -1.58540
H         -1.50720       -2.20890        1.75200
H          3.09240       -2.70600       -2.63820
H          1.53310       -2.41760       -3.45860
H          2.57660       -1.02500       -2.93090
H          6.14920       -4.11580       -1.68130
H          5.30170       -5.33840       -0.66460
H          7.04280       -4.97880       -0.44240
H          0.39160        1.25140       -1.91220
H          0.90250        0.27820       -3.31580
H         -0.80380        1.06850       -0.03320
H         -4.59030       -0.70960        3.39790
H         -3.03670       -1.57540        3.49870
H          7.79330       -2.69180        2.93990
H         -3.64110       -2.73880        1.28450
H         -5.16160       -1.78250        1.24370
H         -5.29700        1.26310        3.03420
H         -5.34530        2.30780        1.58730
H         -4.34030        2.77540        3.01690
H         -3.43170        3.72070        0.92570
H          7.94740       -5.29150        1.34610
H          9.03360       -4.65390        2.67630
H         -1.03160        2.95620       -4.81630
H         -3.55680        5.81490        0.41510
H         -0.72490        7.68910       -1.98560
H          0.87670        6.99500       -1.80230
H         -0.08500        6.61160       -3.27720
H         -6.15370       -5.04570        2.55420
H         -4.12320        7.85000       -0.55010
H         -2.74210        7.78410       -1.75410

