%NProcShared=4
%Chk=neoxanthin-s0-geom.chk
#n CAM-B3LYP/6-31G(d,p) Opt

 neoxanthin-s0-geom

0 1
O         -0.72903        1.38564        0.69441
O          1.12457       -2.12758       -0.18738
O         -0.89784       13.26643      -17.77944
O          0.96618       15.47575      -21.07448
C          0.40960        1.23939       -0.08924
C         -0.81731        0.36895       -0.30086
C          1.61819        0.71675        0.74667
C         -0.96421       -0.96883        0.44856
C          1.21692       -0.51198        1.62617
C          0.39130       -1.57256        0.88024
C         -2.00496        0.76486       -1.18720
C          0.60288        2.45146       -0.96808
C          2.77315        0.36224       -0.22095
C          2.12971        1.82567        1.69278
C          0.67627        2.31824       -2.30488
C          0.85166        3.42985       -3.29096
C          0.87571        3.03806       -4.75212
C          0.97191        4.73133       -2.91978
C          1.11188        5.85001       -3.88984
C          1.90791       15.90721      -18.14167
C         -0.21354       14.28479      -18.47850
C          2.59665       15.11257      -19.28812
C          1.61949       14.49554      -20.31625
C          0.60376       13.58185      -19.59337
C          0.79174       15.00756      -17.55090
C          3.00128       16.24760      -17.08835
C          1.36583       17.27263      -18.62661
C         -1.30037       15.21305      -19.07196
C          1.20456        7.12783       -3.47103
C          0.84164       14.67023      -16.27496
C          1.29969        8.33194       -4.36326
C          0.88950       14.37402      -14.99855
C          1.36684        9.68360       -3.69034
C          1.30704        8.23826       -5.71748
C          1.04434       12.97944      -14.49424
C          1.15174       11.84924      -15.50111
C          1.08186       12.80105      -13.14929
C          1.34812        9.40310       -6.63962
C          1.19537       11.49721      -12.44157
C          1.33387        9.20821       -7.96668
C          1.22475       11.45237      -11.09577
C          1.31587       10.34741       -8.92022
C          1.29016       10.20259      -10.26822
C          1.30591        8.81172      -10.87962
H         -1.49763       -1.71554       -0.17930
H         -1.60038       -0.79665        1.34596
H          2.12574       -0.96991        2.07469
H          0.58062       -0.16640        2.47240
H          0.15782       -2.41073        1.57219
H         -2.12038        0.01731       -1.99932
H         -2.93797        0.77904       -0.58433
H         -1.88276        1.76495       -1.64892
H          0.68723        3.41170       -0.47783
H          3.11413        1.26611       -0.77033
H          3.64485       -0.03917        0.33922
H          2.47955       -0.37184       -0.99187
H          1.33003        2.14030        2.39740
H          2.99580        1.46441        2.28877
H          2.45689        2.72188        1.12376
H          0.69295       -1.89784       -1.05101
H          0.58922        1.31144       -2.70565
H          0.03923        3.53075       -5.29152
H          1.84267        3.33790       -5.20881
H          0.76392        1.94238       -4.89187
H          0.95280        5.00463       -1.87299
H          1.11700        5.61469       -4.94135
H          3.35576       15.74103      -19.80372
H          3.14104       14.25463      -18.83158
H          2.19846       13.84770      -21.01555
H         -0.07510       13.09564      -20.32784
H          1.19621       12.76962      -19.11311
H          3.81071       16.86270      -17.53864
H          2.57009       16.81836      -16.23693
H          3.46857       15.32285      -16.68522
H          0.65422       17.22795      -19.45399
H          0.87447       17.80921      -17.78640
H          2.20000       17.90595      -18.99905
H         -2.01916       14.60354      -19.66100
H         -1.86483       15.70911      -18.25385
H         -0.94909       15.99031      -19.75525
H          1.18867        7.30834       -2.39932
H         -1.46897       13.68534      -17.08202
H          1.64306       15.86327      -21.68882
H          0.82856       15.19823      -14.29409
H          2.30847       10.20005       -3.97368
H          0.49756       10.30388       -3.99474
H          1.34876        9.59625       -2.58365
H          1.25940        7.27160       -6.19751
H          1.29595       10.84501      -15.07199
H          0.22768       11.80551      -16.10771
H          2.01612       12.03905      -16.17173
H          1.00554       13.68413      -12.51788
H          1.36536       10.41662       -6.25073
H          1.23465       10.58911      -13.00868
H          1.31287        8.18983       -8.34122
H          1.18158       12.39888      -10.56075
H          1.30402       11.34891       -8.49535
H          2.23204        8.28140      -10.57229
H          0.42138        8.23993      -10.52748
H          1.27650        8.78652      -11.98024

