%nproc=7
%mem=7GB
# wB97XD/Def2TZVP iop(3/107=0000000000,3/108=0000000000)

TITLE

-1 2
 8 -13.82295200000000 -2.40248400000000  0.79785600000000
 8  14.64394200000000  0.87370000000000  0.88257000000000
 6 -11.74558900000000  0.03251200000000  1.30091200000000
 6 -10.90187100000000  0.13286300000000  0.00388900000000
 6 -11.83873000000000 -1.44025600000000  1.72010300000000
 6 -12.40101300000000 -2.37240700000000  0.65616600000000
 6 -11.36290200000000 -0.85378300000000 -1.05332800000000
 6  11.10244200000000 -0.20449400000000  1.74648300000000
 6 -11.09022500000000  0.83120700000000  2.42780100000000
 6 -13.13407400000000  0.62610100000000  1.03741400000000
 6  12.45509000000000  0.50592500000000  1.88806800000000
 6 -12.00484700000000 -1.97226700000000 -0.73530600000000
 6  13.39057000000000  0.22844100000000  0.72886600000000
 6  10.56709300000000 -0.07471700000000  0.31573800000000
 6 -9.42736000000000 -0.06684700000000  0.22095400000000
 6  12.76628300000000  0.74914100000000 -0.54392600000000
 6  11.31541900000000  0.37628200000000 -0.70185500000000
 6  10.13685400000000  0.43991500000000  2.75251800000000
 6  11.24176100000000 -1.69425900000000  2.09860400000000
 6 -11.01970100000000 -0.49928700000000 -2.46752500000000
 6 -8.49006900000000  0.82356300000000 -0.10056500000000
 6  9.16708900000000 -0.49914900000000  0.13179400000000
 6  10.80844300000000  0.60262300000000 -2.09854000000000
 6 -7.04901500000000  0.65822800000000  0.07241300000000
 6  8.75416300000000 -1.41144500000000 -0.74997200000000
 6 -6.56335100000000 -0.62941600000000  0.66906800000000
 6  7.36526700000000 -1.83501700000000 -0.96007700000000
 6 -6.23944800000000  1.66411900000000 -0.31092400000000
 6  7.19819200000000 -3.28406600000000 -1.32134300000000
 6  6.35135100000000 -0.95961100000000 -0.84068000000000
 6 -4.79856000000000  1.71548100000000 -0.23452100000000
 6  4.93828700000000 -1.23367400000000 -0.96348300000000
 6 -4.08099900000000  2.77363700000000 -0.63916300000000
 6 -2.62387600000000  2.89452200000000 -0.61207800000000
 6  3.99840500000000 -0.28218200000000 -0.84376600000000
 6  2.56198700000000 -0.47681900000000 -0.94603200000000
 6 -2.11348100000000  4.29878700000000 -0.44705600000000
 6 -1.83166500000000  1.81302700000000 -0.74470000000000
 6  1.75776900000000  0.59718200000000 -0.79580100000000
 6  2.05902800000000 -1.86524900000000 -1.21415500000000
 6 -0.39236700000000  1.77013200000000 -0.69123800000000
 6  0.31969600000000  0.64111900000000 -0.85698900000000
 1 -11.03985100000000  1.14248800000000 -0.40003800000000
 1 -12.45618100000000 -1.53535300000000  2.61615800000000
 1 -10.83958700000000 -1.79239200000000  1.99130600000000
 1 -12.01864100000000 -3.38385100000000  0.84930500000000
 1 -10.11990200000000  0.41909400000000  2.70956400000000
 1 -10.93353700000000  1.87048800000000  2.12839100000000
 1 -11.73079300000000  0.82798300000000  3.31259900000000
 1 -13.63226700000000  0.14583400000000  0.19710700000000
 1 -13.77476400000000  0.49882000000000  1.91185400000000
 1 -13.05099000000000  1.69616700000000  0.82987400000000
 1  12.30075300000000  1.58846900000000  1.93988800000000
 1  12.91895000000000  0.20216300000000  2.83296700000000
 1 -12.29454200000000 -2.65876100000000 -1.52843300000000
 1  13.54625700000000 -0.85398000000000  0.63230000000000
 1 -9.13926000000000 -1.02470400000000  0.64361700000000
 1  13.32839300000000  0.38865600000000 -1.41023100000000
 1  12.86607000000000  1.84106900000000 -0.55532200000000
 1  9.20616400000000 -0.12066600000000  2.84596200000000
 1  9.89617100000000  1.46569000000000  2.46531000000000
 1  10.60189800000000  0.46607400000000  3.74065200000000
 1  11.95893000000000 -2.19635400000000  1.44751600000000
 1  10.28422300000000 -2.20627700000000  1.99038400000000
 1  11.57458500000000 -1.81180700000000  3.13307200000000
 1 -9.94745900000000 -0.31391200000000 -2.56955300000000
 1 -11.53163900000000  0.42174100000000 -2.76110100000000
 1 -11.30445000000000 -1.28823500000000 -3.16341200000000
 1 -14.19585000000000 -2.84632900000000  0.03431100000000
 1  8.42898600000000 -0.06845700000000  0.80204100000000
 1 -8.80584300000000  1.77104300000000 -0.53148800000000
 1  11.19781200000000 -0.15851500000000 -2.78126700000000
 1  9.72346600000000  0.59039500000000 -2.16434100000000
 1  11.17274600000000  1.56589000000000 -2.46680000000000
 1  15.05381100000000  0.55484500000000  1.68814000000000
 1  9.50421800000000 -1.92197500000000 -1.35006900000000
 1 -5.48157400000000 -0.66669500000000  0.76487200000000
 1 -6.99317900000000 -0.77571600000000  1.66321500000000
 1 -6.87673700000000 -1.47797200000000  0.05578600000000
 1 -6.71229200000000  2.54852700000000 -0.73105300000000
 1  7.50820700000000 -3.92433200000000 -0.49101200000000
 1  6.17724100000000 -3.54581200000000 -1.58923300000000
 1  7.84098500000000 -3.53384900000000 -2.16966500000000
 1  6.60862900000000  0.07635600000000 -0.63791800000000
 1 -4.27354200000000  0.86452600000000  0.18447800000000
 1  4.63147900000000 -2.25565500000000 -1.15193400000000
 1 -4.62085900000000  3.64978000000000 -0.99338100000000
 1  4.32358900000000  0.73703300000000 -0.64937700000000
 1 -1.03284500000000  4.37674000000000 -0.53708400000000
 1 -2.40463600000000  4.70006000000000  0.52723600000000
 1 -2.55956000000000  4.94917100000000 -1.20414100000000
 1 -2.31548400000000  0.85751000000000 -0.92672200000000
 1  2.24103900000000  1.55239900000000 -0.60510600000000
 1  2.38010800000000 -2.54855700000000 -0.42404000000000
 1  0.97528200000000 -1.91379900000000 -1.27665700000000
 1  2.46586600000000 -2.24513200000000 -2.15459900000000
 1  0.14833500000000  2.69142200000000 -0.49998600000000
 1 -0.22211400000000 -0.28024800000000 -1.04395000000000

