%nproc=7
%mem=7GB
# wB97XD/Def2TZVP iop(3/107=0150000000,3/108=0150000000)

TITLE

-1 2
 8 -13.85658200000000 -2.36255900000000  0.83904100000000
 8  14.66982100000000  0.91053600000000  0.80752700000000
 6 -11.75882000000000  0.07757800000000  1.29883000000000
 6 -10.91711000000000  0.15201400000000 -0.00504200000000
 6 -11.86228400000000 -1.39032900000000  1.73983900000000
 6 -12.43253400000000 -2.33634400000000  0.68950600000000
 6 -11.39308700000000 -0.84542300000000 -1.04792800000000
 6  11.10893600000000 -0.06871800000000  1.73666100000000
 6 -11.09178300000000  0.88814300000000  2.41317200000000
 6 -13.14508000000000  0.67953000000000  1.03077400000000
 6  12.46788500000000  0.64328300000000  1.82695500000000
 6 -12.04181100000000 -1.95651500000000 -0.70999700000000
 6  13.41028100000000  0.26250400000000  0.70080300000000
 6  10.58332900000000 -0.06034600000000  0.29390300000000
 6 -9.44262900000000 -0.06007600000000  0.20797300000000
 6  12.79658400000000  0.67756000000000 -0.61723000000000
 6  11.34335100000000  0.30122900000000 -0.75415200000000
 6  10.14085700000000  0.66873600000000  2.67809700000000
 6  11.23509700000000 -1.52548100000000  2.21832800000000
 6 -11.05688200000000 -0.51288700000000 -2.47039000000000
 6 -8.49566600000000  0.82078800000000 -0.12374000000000
 6  9.18354400000000 -0.49300300000000  0.13688800000000
 6  10.84637500000000  0.41729000000000 -2.16902700000000
 6 -7.05700200000000  0.64456600000000  0.04311500000000
 6  8.76396000000000 -1.46114100000000 -0.68536900000000
 6 -6.57574400000000 -0.64444500000000  0.64337500000000
 6  7.37552900000000 -1.89362800000000 -0.86890300000000
 6 -6.23885700000000  1.64549800000000 -0.34994500000000
 6  7.20557000000000 -3.35736500000000 -1.17045700000000
 6  6.35698700000000 -1.01365600000000 -0.77976000000000
 6 -4.80022200000000  1.68758800000000 -0.28179900000000
 6  4.94624100000000 -1.29349000000000 -0.88073300000000
 6 -4.07493700000000  2.74268100000000 -0.69472300000000
 6 -2.61978900000000  2.86073900000000 -0.67994400000000
 6  4.00176300000000 -0.33663200000000 -0.79770400000000
 6  2.56769200000000 -0.53603200000000 -0.88255500000000
 6 -2.10327400000000  4.27081400000000 -0.58396500000000
 6 -1.82470100000000  1.77081200000000 -0.76535900000000
 6  1.76096800000000  0.54740300000000 -0.77693200000000
 6  2.06018900000000 -1.93540500000000 -1.08475600000000
 6 -0.38863400000000  1.72910700000000 -0.71619400000000
 6  0.32592700000000  0.58999000000000 -0.83307700000000
 1 -11.04673500000000  1.15751900000000 -0.42176500000000
 1 -12.47841000000000 -1.46833500000000  2.63842900000000
 1 -10.86518800000000 -1.74532300000000  2.01499100000000
 1 -12.05159600000000 -3.34626800000000  0.89478600000000
 1 -10.12182100000000  0.47460300000000  2.69426300000000
 1 -10.93162100000000  1.92293000000000  2.10035200000000
 1 -11.72652700000000  0.89959200000000  3.30215700000000
 1 -13.65178300000000  0.18797500000000  0.20204900000000
 1 -13.78242200000000  0.57501000000000  1.91068700000000
 1 -13.05448400000000  1.74475100000000  0.80231700000000
 1  12.32077000000000  1.72730100000000  1.78685200000000
 1  12.92327800000000  0.41759800000000  2.79749500000000
 1 -12.34076500000000 -2.65178600000000 -1.49200600000000
 1  13.55874600000000 -0.82533400000000  0.69726500000000
 1 -9.16186600000000 -1.01808300000000  0.63503600000000
 1  13.36201800000000  0.24157500000000 -1.44606800000000
 1  12.90400100000000  1.76404700000000 -0.72165500000000
 1  9.20465900000000  0.12611600000000  2.81355300000000
 1  9.91067400000000  1.66794200000000  2.30232600000000
 1  10.59958500000000  0.77626200000000  3.66371900000000
 1  11.95181100000000 -2.08743600000000  1.61746900000000
 1  10.27432400000000 -2.03830800000000  2.14908800000000
 1  11.56163300000000 -1.55594500000000  3.26106000000000
 1 -9.98394400000000 -0.33724700000000 -2.58331400000000
 1 -11.56361600000000  0.40797700000000 -2.77409400000000
 1 -11.35249700000000 -1.30906000000000 -3.15351000000000
 1 -14.23236700000000 -2.81391500000000  0.08107600000000
 1  8.44797100000000 -0.02004200000000  0.78080700000000
 1 -8.80515600000000  1.76827600000000 -0.55914900000000
 1  11.23364000000000 -0.39870500000000 -2.78683000000000
 1  9.76159000000000  0.40754600000000 -2.24036400000000
 1  11.21972200000000  1.34530400000000 -2.61182300000000
 1  15.07138100000000  0.65654000000000  1.64009900000000
 1  9.51215400000000 -2.01450100000000 -1.24829200000000
 1 -5.49352000000000 -0.68845600000000  0.73244400000000
 1 -6.99949700000000 -0.78367800000000  1.64130900000000
 1 -6.89811900000000 -1.49442900000000  0.03644600000000
 1 -6.70883300000000  2.53085500000000 -0.77135600000000
 1  7.51293900000000 -3.96474300000000 -0.31454200000000
 1  6.18407400000000 -3.62732500000000 -1.42828800000000
 1  7.84795500000000 -3.64398200000000 -2.00755000000000
 1  6.61448000000000  0.03040200000000 -0.62425600000000
 1 -4.27990900000000  0.83386500000000  0.13744800000000
 1  4.63937100000000 -2.32320200000000 -1.02133000000000
 1 -4.61415100000000  3.61972300000000 -1.04739300000000
 1  4.32745700000000  0.69036200000000 -0.65113300000000
 1 -1.02367000000000  4.34102000000000 -0.69180700000000
 1 -2.37925000000000  4.71653900000000  0.37556500000000
 1 -2.55713400000000  4.88917800000000 -1.36307200000000
 1 -2.30952500000000  0.80818200000000 -0.90112200000000
 1  2.24690600000000  1.50936900000000 -0.63251100000000
 1  2.38516100000000 -2.58387900000000 -0.26716500000000
 1  0.97582300000000 -1.98453500000000 -1.13718700000000
 1  2.45884200000000 -2.35843400000000 -2.01035400000000
 1  0.15364600000000  2.65771600000000 -0.57006900000000
 1 -0.21743900000000 -0.33855700000000 -0.97484200000000

