%nproc=7
%mem=7GB
# wB97XD/Def2TZVP iop(3/107=0106300000,3/108=0106300000)

TITLE

-1 2
 8 -13.91024200000000 -2.30931500000000  0.85120800000000
 8  14.70706400000000  0.94712200000000  0.69457700000000
 6 -11.77830900000000  0.12377700000000  1.29652700000000
 6 -10.93838800000000  0.18216500000000 -0.01354100000000
 6 -11.90254700000000 -1.34360400000000  1.74193000000000
 6 -12.48434100000000 -2.28852700000000  0.69383000000000
 6 -11.43652700000000 -0.81047200000000 -1.05366900000000
 6  11.12758000000000  0.09392100000000  1.70198800000000
 6 -11.09407100000000  0.92761300000000  2.40874400000000
 6 -13.15784400000000  0.74797600000000  1.03135100000000
 6  12.49564100000000  0.79949200000000  1.72841300000000
 6 -12.09837400000000 -1.91329100000000 -0.70911000000000
 6  13.43882900000000  0.30371500000000  0.64608700000000
 6  10.60686800000000 -0.03803800000000  0.26043100000000
 6 -9.46493700000000 -0.05332900000000  0.19178100000000
 6  12.83130900000000  0.59591800000000 -0.70923600000000
 6  11.37459500000000  0.21780000000000 -0.81563300000000
 6  10.16241100000000  0.93386300000000  2.56150000000000
 6  11.23758100000000 -1.31050800000000  2.32933000000000
 6 -11.10806600000000 -0.48468200000000 -2.48124300000000
 6 -8.50399900000000  0.81573200000000 -0.14097900000000
 6  9.20585400000000 -0.47783600000000  0.14126000000000
 6  10.88256100000000  0.20522000000000 -2.23845400000000
 6 -7.06819500000000  0.61994700000000  0.01543200000000
 6  8.77822500000000 -1.51388900000000 -0.59391700000000
 6 -6.59616700000000 -0.67854600000000  0.60628000000000
 6  7.39037100000000 -1.95874800000000 -0.73958100000000
 6 -6.23810300000000  1.61542200000000 -0.38001300000000
 6  7.22044000000000 -3.43993300000000 -0.95111000000000
 6  6.36584400000000 -1.07658500000000 -0.69659900000000
 6 -4.80147300000000  1.64302000000000 -0.32338600000000
 6  4.95763300000000 -1.36374100000000 -0.76908200000000
 6 -4.06657900000000  2.69506200000000 -0.74010100000000
 6 -2.61350800000000  2.80922000000000 -0.74052000000000
 6  4.00744900000000 -0.40391900000000 -0.73533100000000
 6  2.57581600000000 -0.60852900000000 -0.79722900000000
 6 -2.09187500000000  4.22258500000000 -0.71966900000000
 6 -1.81486500000000  1.71355400000000 -0.77509000000000
 6  1.76644700000000  0.48274500000000 -0.74667500000000
 6  2.06358800000000 -2.01755200000000 -0.91585800000000
 6 -0.38204600000000  1.67235800000000 -0.73370800000000
 6  0.33449300000000  0.52473700000000 -0.79442800000000
 1 -11.05399200000000  1.18830500000000 -0.43098200000000
 1 -12.51883700000000 -1.41120100000000  2.64059600000000
 1 -10.91084000000000 -1.71062300000000  2.01877200000000
 1 -12.10785900000000 -3.30006000000000  0.89871000000000
 1 -10.12836200000000  0.50222900000000  2.68501500000000
 1 -10.92264500000000  1.96002400000000  2.09575600000000
 1 -11.72294700000000  0.94762900000000  3.30130600000000
 1 -13.67550800000000  0.26251800000000  0.20636500000000
 1 -13.79330800000000  0.65781200000000  1.91367600000000
 1 -13.05232300000000  1.81039100000000  0.79818100000000
 1  12.35934800000000  1.87559900000000  1.58539400000000
 1  12.94573700000000  0.66359500000000  2.71734100000000
 1 -12.41183800000000 -2.60530700000000 -1.48781900000000
 1  13.57711900000000 -0.78030600000000  0.74708600000000
 1 -9.19674000000000 -1.01733700000000  0.61173200000000
 1  13.39597000000000  0.07869300000000 -1.49010500000000
 1  12.94725900000000  1.66604300000000 -0.91795600000000
 1  9.21982600000000  0.41847100000000  2.74668900000000
 1  9.94472600000000  1.89256100000000  2.08700100000000
 1  10.61779200000000  1.13490900000000  3.53350400000000
 1  11.94944600000000 -1.93705700000000  1.79047000000000
 1  10.27242600000000 -1.81841500000000  2.30934200000000
 1  11.56174300000000 -1.24031600000000  3.37046400000000
 1 -10.03422700000000 -0.32533300000000 -2.60563800000000
 1 -11.60393600000000  0.44249500000000 -2.78290900000000
 1 -11.42145700000000 -1.27717800000000 -3.16020500000000
 1 -14.29034700000000 -2.76314600000000  0.09717600000000
 1  8.47492300000000  0.05074900000000  0.74500900000000
 1 -8.80243000000000  1.76924200000000 -0.56971600000000
 1  11.26853400000000 -0.66442200000000 -2.77863900000000
 1  9.79837900000000  0.19311300000000 -2.31254200000000
 1  11.25986900000000  1.08759100000000 -2.76315300000000
 1  15.10428600000000  0.76678400000000  1.54790000000000
 1  9.52379600000000 -2.11801000000000 -1.10442900000000
 1 -5.51417100000000 -0.73483000000000  0.68685100000000
 1 -7.01279300000000 -0.81874900000000  1.60676000000000
 1 -6.93125300000000 -1.52221900000000 -0.00213900000000
 1 -6.70244200000000  2.50688400000000 -0.79367000000000
 1  7.53003800000000 -3.99475500000000 -0.06117300000000
 1  6.19856800000000 -3.72522900000000 -1.18851500000000
 1  7.85942800000000 -3.77751600000000 -1.77128600000000
 1  6.62167500000000 -0.02481300000000 -0.60821000000000
 1 -4.28819200000000  0.78248400000000  0.08910800000000
 1  4.65213400000000 -2.40003300000000 -0.84610400000000
 1 -4.60414100000000  3.57510600000000 -1.08605000000000
 1  4.33269900000000  0.62976400000000 -0.65182500000000
 1 -1.01403000000000  4.28429200000000 -0.84470900000000
 1 -2.35286900000000  4.71542300000000  0.22065900000000
 1 -2.55339400000000  4.80454400000000 -1.52154600000000
 1 -2.30034900000000  0.74583500000000 -0.85752200000000
 1  2.25521300000000  1.44971800000000 -0.66008600000000
 1  2.39196800000000 -2.61963900000000 -0.06518300000000
 1  0.97907900000000 -2.06666600000000 -0.95740200000000
 1  2.45328700000000 -2.49403100000000 -1.81867200000000
 1  0.16229500000000  2.60607100000000 -0.64126600000000
 1 -0.21084400000000 -0.40881700000000 -0.88202300000000

