%nproc=7
%mem=7GB
# wB97XD/Def2TZVP iop(3/107=0106300000,3/108=0106300000) opt

TITLE

0 1
 8 -13.89651900000000 -2.32194000000000  0.84140400000000
 8  14.69912300000000  0.93670000000000  0.70888200000000
 6 -11.77334100000000  0.11046700000000  1.29672900000000
 6 -10.93254600000000  0.17595200000000 -0.01110200000000
 6 -11.89224800000000 -1.35794700000000  1.73777700000000
 6 -12.47107400000000 -2.30066000000000  0.68701500000000
 6 -11.42395500000000 -0.81601700000000 -1.05413000000000
 6  11.12281400000000  0.06910400000000  1.70707300000000
 6 -11.09403700000000  0.91365200000000  2.41136300000000
 6 -13.15448100000000  0.72932600000000  1.03162500000000
 6  12.48964500000000  0.77493900000000  1.74159600000000
 6 -12.08270200000000 -1.92168200000000 -0.71397400000000
 6  13.43200400000000  0.29339600000000  0.65292300000000
 6  10.60110600000000 -0.04335300000000  0.26517300000000
 6 -9.45889800000000 -0.05326800000000  0.19654200000000
 6  12.82390000000000  0.60274700000000 -0.69773200000000
 6  11.36755300000000  0.22600800000000 -0.80783800000000
 6  10.15816600000000  0.89580100000000  2.57842400000000
 6  11.23441700000000 -1.34298800000000  2.31464500000000
 6 -11.09213500000000 -0.48575700000000 -2.47932000000000
 6 -8.50173900000000  0.81893500000000 -0.13610400000000
 6  9.20002700000000 -0.48139500000000  0.14122300000000
 6  10.87478000000000  0.23040700000000 -2.22994200000000
 6 -7.06518700000000  0.62829700000000  0.02320400000000
 6  8.77291400000000 -1.50692400000000 -0.60760800000000
 6 -6.59103400000000 -0.66701100000000  0.61805100000000
 6  7.38431300000000 -1.94863300000000 -0.75822900000000
 6 -6.23812800000000  1.62447400000000 -0.37299900000000
 6  7.21258700000000 -3.42743900000000 -0.98072100000000
 6  6.36238300000000 -1.06533800000000 -0.70964600000000
 6 -4.80089900000000  1.65541600000000 -0.31356900000000
 6  4.95316000000000 -1.35028600000000 -0.78618500000000
 6 -4.06831300000000  2.70690200000000 -0.73207000000000
 6 -2.61456900000000  2.82158500000000 -0.72923800000000
 6  4.00535300000000 -0.39000400000000 -0.74542400000000
 6  2.57281400000000 -0.59307200000000 -0.81078000000000
 6 -2.09382600000000  4.23432900000000 -0.69375200000000
 6 -1.81737900000000  1.72681400000000 -0.77343600000000
 6  1.76480800000000  0.49707200000000 -0.75172300000000
 6  2.06120700000000 -2.00059600000000 -0.94214400000000
 6 -0.38360700000000  1.68539600000000 -0.73055400000000
 6  0.33190700000000  0.53924300000000 -0.80086200000000
 1 -11.05196500000000  1.18278600000000 -0.42649500000000
 1 -12.50859000000000 -1.43011000000000  2.63628500000000
 1 -10.89910800000000 -1.72256000000000  2.01339500000000
 1 -12.09427200000000 -3.31248200000000  0.89022800000000
 1 -10.12734000000000  0.49061900000000  2.68846000000000
 1 -10.92523100000000  1.94731900000000  2.10051400000000
 1 -11.72491300000000  0.92970800000000  3.30274700000000
 1 -13.66859200000000  0.24454300000000  0.20382100000000
 1 -13.79111300000000  0.63273500000000  1.91260800000000
 1 -13.05274700000000  1.79320300000000  0.80281900000000
 1  12.35250700000000  1.85283300000000  1.61180600000000
 1  12.94052700000000  0.62690400000000  2.72863700000000
 1 -12.39175900000000 -2.61305200000000 -1.49518700000000
 1  13.57057500000000 -0.79198400000000  0.74006400000000
 1 -9.18732700000000 -1.01567100000000  0.61860200000000
 1  13.38811800000000  0.09566900000000 -1.48571100000000
 1  12.93960400000000  1.67569000000000 -0.89237600000000
 1  9.21637200000000  0.37660100000000  2.75774300000000
 1  9.93881500000000  1.86058400000000  2.11686000000000
 1  10.61475100000000  1.08428800000000  3.55253400000000
 1  11.94691500000000 -1.96136600000000  1.76695800000000
 1  10.26955700000000 -1.85149800000000  2.28778300000000
 1  11.55873900000000 -1.28644400000000  3.35670800000000
 1 -10.01833500000000 -0.32187500000000 -2.59931300000000
 1 -11.59055800000000  0.44042500000000 -2.78014800000000
 1 -11.40025500000000 -1.27794500000000 -3.16122100000000
 1 -14.27539400000000 -2.77329300000000  0.08515100000000
 1  8.46877900000000  0.03925500000000  0.75179500000000
 1 -8.80310900000000  1.77076700000000 -0.56694100000000
 1  11.25876200000000 -0.63414300000000 -2.77981800000000
 1  9.79038500000000  0.22114800000000 -2.30354300000000
 1  11.25391100000000  1.11782200000000 -2.74488000000000
 1  15.09661100000000  0.74705200000000  1.56016900000000
 1  9.51811100000000 -2.10389400000000 -1.12743900000000
 1 -5.50895800000000 -0.72000300000000  0.70145800000000
 1 -7.01014000000000 -0.80592200000000  1.61779100000000
 1 -6.92253400000000 -1.51298400000000  0.01068500000000
 1 -6.70370900000000  2.51391700000000 -0.78997700000000
 1  7.52141800000000 -3.98899400000000 -0.09467500000000
 1  6.19033400000000 -3.70977600000000 -1.22065800000000
 1  7.85174900000000 -3.75952100000000 -1.80313100000000
 1  6.61967900000000 -0.01452200000000 -0.61251600000000
 1 -4.28608500000000  0.79738100000000  0.10273400000000
 1  4.64645600000000 -2.38570900000000 -0.87222100000000
 1 -4.60606000000000  3.58546900000000 -1.08203700000000
 1  4.33144100000000  0.64280700000000 -0.65283500000000
 1 -1.01542500000000  4.29764700000000 -0.81439200000000
 1 -2.35876000000000  4.71839600000000  0.25009400000000
 1 -2.55311000000000  4.82316800000000 -1.49203100000000
 1 -2.30291900000000  0.75983000000000 -0.86602400000000
 1  2.25320700000000  1.46354900000000 -0.65609300000000
 1  2.38928400000000 -2.60984700000000 -0.09633300000000
 1  0.97663000000000 -2.04972200000000 -0.98522300000000
 1  2.45238200000000 -2.46899500000000 -1.84867000000000
 1  0.16050300000000  2.61848200000000 -0.62886800000000
 1 -0.21320100000000 -0.39372200000000 -0.89765400000000

