%nproc=7
%mem=7GB
# wB97XD/Def2TZVP iop(3/107=0112500000,3/108=0112500000) opt

TITLE

0 1
 8 -13.94896100000000 -2.27834000000000  0.87887300000000
 8  14.72961300000000  0.97371500000000  0.67337300000000
 6 -11.79345800000000  0.15811500000000  1.29786700000000
 6 -10.95652800000000  0.19828200000000 -0.01881600000000
 6 -11.93205000000000 -1.30699000000000  1.75381500000000
 6 -12.52210900000000 -2.25720700000000  0.71220600000000
 6 -11.47438700000000 -0.79472600000000 -1.05194500000000
 6  11.14364300000000  0.13484400000000  1.69443300000000
 6 -11.09538300000000  0.96261700000000  2.40437000000000
 6 -13.16897200000000  0.79715700000000  1.03374500000000
 6  12.51473100000000  0.84022200000000  1.71072000000000
 6 -12.14421600000000 -1.88992400000000 -0.69615100000000
 6  13.45933100000000  0.32893800000000  0.63434200000000
 6  10.62405200000000 -0.02294500000000  0.25218700000000
 6 -9.48339200000000 -0.05548000000000  0.17909800000000
 6  12.85052100000000  0.60029900000000 -0.72658800000000
 6  11.39295700000000  0.21804400000000 -0.82781400000000
 6  10.17709800000000  0.99372500000000  2.53818900000000
 6  11.25069900000000 -1.26002400000000  2.34905000000000
 6 -11.15739200000000 -0.47920900000000 -2.48637900000000
 6 -8.51184700000000  0.80513200000000 -0.15142700000000
 6  9.22286000000000 -0.46699800000000  0.13910000000000
 6  10.90060700000000  0.18545400000000 -2.25195400000000
 6 -7.07755900000000  0.59429000000000 -0.00426900000000
 6  8.79596500000000 -1.52265500000000 -0.57097000000000
 6 -6.61147600000000 -0.71575600000000  0.56979700000000
 6  7.41023800000000 -1.97662400000000 -0.70856800000000
 6 -6.23956000000000  1.58935700000000 -0.39336700000000
 6  7.24791800000000 -3.46303600000000 -0.90145400000000
 6  6.37799700000000 -1.09926000000000 -0.67542500000000
 6 -4.80393600000000  1.60797600000000 -0.34497800000000
 6  4.97221800000000 -1.39313400000000 -0.74082800000000
 6 -4.06334500000000  2.66366600000000 -0.75132700000000
 6 -2.61164200000000  2.77733500000000 -0.76012800000000
 6  4.01482500000000 -0.43620600000000 -0.71960100000000
 6  2.58514600000000 -0.64532300000000 -0.77447000000000
 6 -2.08911000000000  4.19261900000000 -0.76929500000000
 6 -1.80849900000000  1.68055100000000 -0.77603000000000
 6  1.77186200000000  0.44791300000000 -0.73901000000000
 6  2.07231100000000 -2.05783500000000 -0.86939200000000
 6 -0.37760800000000  1.64009200000000 -0.73974500000000
 6  0.34186900000000  0.48959400000000 -0.78250000000000
 1 -11.06151100000000  1.20279300000000 -0.44052800000000
 1 -12.54759000000000 -1.36327900000000  2.65302500000000
 1 -10.94421500000000 -1.68060500000000  2.03323300000000
 1 -12.14514300000000 -3.26776000000000  0.91998900000000
 1 -10.13232200000000  0.53084000000000  2.67781500000000
 1 -10.91716200000000  1.99196500000000  2.08694200000000
 1 -11.71835000000000  0.99222800000000  3.30032700000000
 1 -13.69783700000000  0.30902800000000  0.21813400000000
 1 -13.79972600000000  0.72585300000000  1.92062300000000
 1 -13.05352300000000  1.85505500000000  0.78716500000000
 1  12.37954400000000  1.91383700000000  1.55384900000000
 1  12.96456000000000  0.71812200000000  2.70087700000000
 1 -12.47085400000000 -2.58238600000000 -1.46848400000000
 1  13.59910100000000 -0.75268900000000  0.75100700000000
 1 -9.22505000000000 -1.02504400000000  0.59035900000000
 1  13.41596400000000  0.07203600000000 -1.49890200000000
 1  12.96487500000000  1.66658900000000 -0.95260200000000
 1  9.23272600000000  0.48492000000000  2.72972800000000
 1  9.96314900000000  1.94449800000000  2.04735000000000
 1  10.62945700000000  1.21055600000000  3.50774300000000
 1  11.95911000000000 -1.89905300000000  1.82138400000000
 1  10.28470300000000 -1.76550900000000  2.34103100000000
 1  11.57709300000000 -1.17222900000000  3.38770600000000
 1 -10.08392800000000 -0.33247500000000 -2.62470800000000
 1 -11.64674400000000  0.45099900000000 -2.78842700000000
 1 -11.48650800000000 -1.27141800000000 -3.15769300000000
 1 -14.33226200000000 -2.74361900000000  0.13390300000000
 1  8.49161400000000  0.07565700000000  0.72868600000000
 1 -8.80147100000000  1.76470900000000 -0.57120500000000
 1  11.29387000000000 -0.68601200000000 -2.78329900000000
 1  9.81705300000000  0.16350100000000 -2.32571800000000
 1  11.26892400000000  1.06537600000000 -2.78657100000000
 1  15.12913900000000  0.80017400000000  1.52665400000000
 1  9.54346100000000 -2.13837700000000 -1.06309300000000
 1 -5.52976700000000 -0.78210100000000  0.64085800000000
 1 -7.01986100000000 -0.86329400000000  1.57225400000000
 1 -6.95758800000000 -1.55036900000000 -0.04435700000000
 1 -6.70032400000000  2.48825700000000 -0.79347200000000
 1  7.56115400000000 -4.00554000000000 -0.00542600000000
 1  6.22758900000000 -3.75659200000000 -1.13341900000000
 1  7.88652200000000 -3.80817100000000 -1.71842900000000
 1  6.62845900000000 -0.04561900000000 -0.60200300000000
 1 -4.29480400000000  0.73856100000000  0.05201800000000
 1  4.67157500000000 -2.43123900000000 -0.80165700000000
 1 -4.60043200000000  3.54921100000000 -1.08183800000000
 1  4.33643500000000  0.59930600000000 -0.65262900000000
 1 -1.01278800000000  4.25171100000000 -0.90455600000000
 1 -2.34089400000000  4.70262600000000  0.16417100000000
 1 -2.55625400000000  4.76072000000000 -1.57739300000000
 1 -2.29297800000000  0.71140000000000 -0.83662700000000
 1  2.26086200000000  1.41561700000000 -0.66971200000000
 1  2.40136100000000 -2.64650900000000 -0.01004000000000
 1  0.98809700000000 -2.10754100000000 -0.90783000000000
 1  2.45877800000000 -2.54899300000000 -1.76531000000000
 1  0.16670700000000  2.57487500000000 -0.66645900000000
 1 -0.20348100000000 -0.44492000000000 -0.85135000000000

