%nproc=7
%mem=7GB
# wB97XD/Def2TZVP iop(3/107=0125000000,3/108=0125000000) opt

TITLE

0 1
 8 -13.99470500000000 -2.24830900000000  0.87609300000000
 8  14.74900300000000  1.01708400000000  0.64903200000000
 6 -11.80779100000000  0.17982900000000  1.31094900000000
 6 -10.97666200000000  0.22382000000000 -0.01312700000000
 6 -11.96570100000000 -1.29078100000000  1.75025200000000
 6 -12.56740000000000 -2.22565300000000  0.69836500000000
 6 -11.51917800000000 -0.74833900000000 -1.05653600000000
 6  11.16521500000000  0.16088400000000  1.68777200000000
 6 -11.09042900000000  0.96058900000000  2.42581700000000
 6 -13.17682200000000  0.84491100000000  1.06379800000000
 6  12.53613700000000  0.87213000000000  1.69774100000000
 6 -12.19934900000000 -1.84029900000000 -0.70907000000000
 6  13.47992000000000  0.36491300000000  0.61612900000000
 6  10.64127500000000 -0.00455800000000  0.24500400000000
 6 -9.50418900000000 -0.05551800000000  0.16973600000000
 6  12.86259500000000  0.63078200000000 -0.74393500000000
 6  11.40529300000000  0.23909500000000 -0.83852200000000
 6  10.19700300000000  1.02222900000000  2.53201000000000
 6  11.27866800000000 -1.23289000000000  2.34955800000000
 6 -11.21622800000000 -0.41663800000000 -2.49261000000000
 6 -8.52076500000000  0.79732800000000 -0.15033600000000
 6  9.24015500000000 -0.45632300000000  0.13734400000000
 6  10.90658400000000  0.20232400000000 -2.26238100000000
 6 -7.08758400000000  0.56600400000000 -0.01920300000000
 6  8.81718400000000 -1.52923600000000 -0.55048600000000
 6 -6.62967300000000 -0.76243800000000  0.52317100000000
 6  7.43376300000000 -1.99551900000000 -0.68010000000000
 6 -6.24074200000000  1.56170700000000 -0.39435000000000
 6  7.28271000000000 -3.48797900000000 -0.84927700000000
 6  6.39321300000000 -1.12493400000000 -0.66066200000000
 6 -4.80510300000000  1.56842400000000 -0.35734700000000
 6  4.98926200000000 -1.42721900000000 -0.72033500000000
 6 -4.05834500000000  2.62828600000000 -0.74822600000000
 6 -2.60699800000000  2.73985900000000 -0.76614300000000
 6  4.02454300000000 -0.47462500000000 -0.71210300000000
 6  2.59587500000000 -0.68858600000000 -0.76083800000000
 6 -2.08298700000000  4.15670600000000 -0.79225200000000
 6 -1.80106200000000  1.64198800000000 -0.77395200000000
 6  1.77914100000000  0.40566200000000 -0.73754100000000
 6  2.08324300000000 -2.10445400000000 -0.83541200000000
 6 -0.37108600000000  1.60048100000000 -0.74444700000000
 6  0.35003400000000  0.44770200000000 -0.77599100000000
 1 -11.06908500000000  1.23447000000000 -0.42037300000000
 1 -12.58018100000000 -1.35023400000000  2.64931200000000
 1 -10.98287400000000 -1.67929000000000  2.02480900000000
 1 -12.19098600000000 -3.23959700000000  0.88940400000000
 1 -10.13162100000000  0.51304900000000  2.68670000000000
 1 -10.90134800000000  1.99201700000000  2.12327200000000
 1 -11.70596200000000  0.98526100000000  3.32671800000000
 1 -13.72048700000000  0.37455000000000  0.24811300000000
 1 -13.80151500000000  0.77623400000000  1.95475800000000
 1 -13.04729400000000  1.90289800000000  0.82616600000000
 1  12.39633400000000  1.94473900000000  1.54251600000000
 1  12.99076800000000  0.75211500000000  2.68533500000000
 1 -12.54293800000000 -2.51727700000000 -1.48734600000000
 1  13.62748200000000 -0.71503400000000  0.73299800000000
 1 -9.25796000000000 -1.03641000000000  0.55901500000000
 1  13.42788200000000  0.10425500000000 -1.51708000000000
 1  12.96931300000000  1.69667000000000 -0.97331800000000
 1  9.25409100000000  0.51281200000000  2.72700400000000
 1  9.98000700000000  1.97086600000000  2.03909700000000
 1  10.64978100000000  1.24354100000000  3.50001100000000
 1  11.98391200000000 -1.87385900000000  1.82080300000000
 1  10.31397600000000 -1.73989000000000  2.35135900000000
 1  11.61209700000000 -1.14048900000000  3.38524400000000
 1 -10.14331800000000 -0.28355000000000 -2.64512400000000
 1 -11.69677600000000  0.52376200000000 -2.77613900000000
 1 -11.56553000000000 -1.19457800000000 -3.17010400000000
 1 -14.38248200000000 -2.71717600000000  0.13604900000000
 1  8.50694100000000  0.09686000000000  0.71352100000000
 1 -8.79961200000000  1.76887200000000 -0.54812700000000
 1  11.30985600000000 -0.66178200000000 -2.79783900000000
 1  9.82357500000000  0.16519000000000 -2.33145500000000
 1  11.25831900000000  1.08884400000000 -2.79697200000000
 1  15.15679700000000  0.83860600000000  1.49705700000000
 1  9.56782500000000 -2.15189200000000 -1.02769200000000
 1 -5.54833600000000 -0.84243600000000  0.58010200000000
 1 -7.02708900000000 -0.92647500000000  1.52721400000000
 1 -6.99112900000000 -1.58045500000000 -0.10394900000000
 1 -6.69657400000000  2.47260700000000 -0.77123800000000
 1  7.60283500000000 -4.01412900000000  0.05396900000000
 1  6.26427200000000 -3.79335400000000 -1.07260500000000
 1  7.92039200000000 -3.84157600000000 -1.66317200000000
 1  6.63689900000000 -0.06917600000000 -0.60415600000000
 1 -4.30088800000000  0.68721100000000  0.01757400000000
 1  4.69476000000000 -2.46722200000000 -0.76535800000000
 1 -4.59386800000000  3.52159700000000 -1.05815100000000
 1  4.34173200000000  0.56274600000000 -0.66084100000000
 1 -1.00820900000000  4.21396700000000 -0.93753400000000
 1 -2.32506500000000  4.67488700000000  0.13923300000000
 1 -2.55592600000000  4.71884500000000 -1.60086400000000
 1 -2.28557900000000  0.67268100000000 -0.81991700000000
 1  2.26825500000000  1.37378600000000 -0.68267600000000
 1  2.41237100000000 -2.68111800000000  0.03175700000000
 1  0.99930200000000 -2.15526200000000 -0.87198500000000
 1  2.46784000000000 -2.60813400000000 -1.72488600000000
 1  0.17391800000000  2.53529600000000 -0.68543200000000
 1 -0.19561100000000 -0.48704900000000 -0.83056000000000

