%nproc=7
%mem=7GB
# wB97XD/Def2TZVP iop(3/107=0118700000,3/108=0118700000) opt

TITLE

0 1
 8 -13.90307600000000 -2.31630900000000  0.84430200000000
 8  14.70288900000000  0.94211700000000  0.70087000000000
 6 -11.77578000000000  0.11611900000000  1.29669100000000
 6 -10.93532800000000  0.17918700000000 -0.01212600000000
 6 -11.89721700000000 -1.35213100000000  1.73878600000000
 6 -12.47738500000000 -2.29518700000000  0.68859900000000
 6 -11.42988100000000 -0.81239300000000 -1.05449900000000
 6  11.12535900000000  0.08085500000000  1.70420400000000
 6 -11.09415400000000  0.91884400000000  2.41077100000000
 6 -13.15617800000000  0.73767100000000  1.03193400000000
 6  12.49268600000000  0.78679600000000  1.73459500000000
 6 -12.09008700000000 -1.91697700000000 -0.71305000000000
 6  13.43531100000000  0.29854900000000  0.64874000000000
 6  10.60385700000000 -0.04100100000000  0.26253200000000
 6 -9.46177600000000 -0.05320000000000  0.19428100000000
 6  12.82718200000000  0.59960800000000 -0.70407700000000
 6  11.37068800000000  0.22199000000000 -0.81211400000000
 6  10.16050900000000  0.91375100000000  2.57014200000000
 6  11.23653400000000 -1.32761700000000  2.32120300000000
 6 -11.09964900000000 -0.48326300000000 -2.48060800000000
 6 -8.50277700000000  0.81766100000000 -0.13800000000000
 6  9.20283300000000 -0.48004100000000  0.14116000000000
 6  10.87797800000000  0.21813200000000 -2.23449600000000
 6 -7.06660700000000  0.62438900000000  0.01967500000000
 6  8.77533300000000 -1.51059400000000 -0.60114100000000
 6 -6.59345700000000 -0.67284000000000  0.61175000000000
 6  7.38702100000000 -1.95380700000000 -0.74887900000000
 6 -6.23805500000000  1.62047100000000 -0.37560200000000
 6  7.21599700000000 -3.43386200000000 -0.96530700000000
 6  6.36395400000000 -1.07088100000000 -0.70324600000000
 6 -4.80114300000000  1.64965900000000 -0.31764900000000
 6  4.95519300000000 -1.35678400000000 -0.77744300000000
 6 -4.06739500000000  2.70163100000000 -0.73475300000000
 6 -2.61399700000000  2.81602100000000 -0.73365500000000
 6  4.00631000000000 -0.39661200000000 -0.74019800000000
 6  2.57420900000000 -0.60034500000000 -0.80351800000000
 6 -2.09279000000000  4.22908000000000 -0.70536100000000
 6 -1.81608600000000  1.72078300000000 -0.77324300000000
 6  1.76561300000000  0.49045400000000 -0.74874100000000
 6  2.06216400000000 -2.00860800000000 -0.92820000000000
 6 -0.38280500000000  1.67948400000000 -0.73135500000000
 6  0.33319400000000  0.53256300000000 -0.79692100000000
 1 -11.05291400000000  1.18597800000000 -0.42777700000000
 1 -12.51355800000000 -1.42274100000000  2.63730100000000
 1 -10.90476000000000 -1.71806400000000  2.01474700000000
 1 -12.10074000000000 -3.30700500000000  0.89192200000000
 1 -10.12789900000000  0.49453200000000  2.68713100000000
 1 -10.92417600000000  1.95215000000000  2.09966200000000
 1 -11.72406100000000  0.93607800000000  3.30274100000000
 1 -13.67195900000000  0.25301900000000  0.20518800000000
 1 -13.79223400000000  0.64361200000000  1.91351300000000
 1 -13.05265000000000  1.80098700000000  0.80166800000000
 1  12.35575900000000  1.86382500000000  1.59849100000000
 1  12.94340600000000  0.64462600000000  2.72246200000000
 1 -12.40122300000000 -2.60809300000000 -1.49357400000000
 1  13.57391600000000 -0.78617500000000  0.74249700000000
 1 -9.19183100000000 -1.01660800000000  0.61479100000000
 1  13.39152800000000  0.08770800000000 -1.48875800000000
 1  12.94281100000000  1.67123200000000 -0.90551600000000
 1  9.21847000000000  0.39620100000000  2.75248900000000
 1  9.94169000000000  1.87559900000000  2.10241800000000
 1  10.61671600000000  1.10832600000000  3.54315300000000
 1  11.94867900000000 -1.94980100000000  1.77752700000000
 1  10.27159100000000 -1.83596300000000  2.29785300000000
 1  11.56102900000000 -1.26451000000000  3.36276100000000
 1 -10.02583500000000 -0.32143500000000 -2.60260200000000
 1 -11.59689700000000  0.44357600000000 -2.78120200000000
 1 -11.41027000000000 -1.27515000000000 -3.16163900000000
 1 -14.28234700000000 -2.76977800000000  0.08957200000000
 1  8.47181500000000  0.04426900000000  0.74870200000000
 1 -8.80272300000000  1.77056200000000 -0.56725400000000
 1  11.26269600000000 -0.64898400000000 -2.77970400000000
 1  9.79366300000000  0.20759200000000 -2.30808100000000
 1  11.25618700000000  1.10304200000000 -2.75431400000000
 1  15.10062600000000  0.75659500000000  1.55289400000000
 1  9.52052600000000 -2.11094400000000 -1.11685100000000
 1 -5.51139400000000 -0.72762800000000  0.69336100000000
 1 -7.01102300000000 -0.81281400000000  1.61193000000000
 1 -6.92702900000000 -1.51733500000000  0.00355400000000
 1 -6.70304900000000  2.51116800000000 -0.79036100000000
 1  7.52568000000000 -3.99173900000000 -0.07727800000000
 1  6.19377900000000 -3.71770400000000 -1.20330900000000
 1  7.85460300000000 -3.76900700000000 -1.78684400000000
 1  6.62074400000000 -0.01960000000000 -0.61087600000000
 1 -4.28710400000000  0.79012100000000  0.09624700000000
 1  4.64897100000000 -2.39263700000000 -0.85874700000000
 1 -4.60505200000000  3.58113700000000 -1.08220300000000
 1  4.33209100000000  0.63663100000000 -0.65240500000000
 1 -1.01462000000000  4.29157500000000 -0.82784700000000
 1 -2.35603600000000  4.71752900000000  0.23666200000000
 1 -2.55292800000000  4.81447400000000 -1.50560200000000
 1 -2.30162600000000  0.75343100000000 -0.86075000000000
 1  2.25428300000000  1.45716600000000 -0.65787500000000
 1  2.39069000000000 -2.61421700000000 -0.08002000000000
 1  0.97759800000000 -2.05768000000000 -0.97007800000000
 1  2.45223500000000 -2.48113100000000 -1.83299500000000
 1  0.16144300000000  2.61290100000000 -0.63448300000000
 1 -0.21205500000000 -0.40070900000000 -0.88894200000000

