%nproc=7
%mem=7GB
# wB97XD/Def2TZVP iop(3/107=0100000000,3/108=0100000000) opt

TITLE

0 1
 8 -13.82347100000000 -2.40221800000000  0.79617100000000
 8  14.64423600000000  0.87428500000000  0.88069600000000
 6 -11.74551200000000  0.03193300000000  1.30151400000000
 6 -10.90203700000000  0.13353200000000  0.00442300000000
 6 -11.83893100000000 -1.44127300000000  1.71912000000000
 6 -12.40156400000000 -2.37216500000000  0.65426300000000
 6 -11.36341900000000 -0.85191400000000 -1.05377000000000
 6  11.10273200000000 -0.20270900000000  1.74612700000000
 6 -11.08974500000000  0.82925000000000  2.42914700000000
 6 -13.13390600000000  0.62616700000000  1.03894300000000
 6  12.45544500000000  0.50778700000000  1.88680900000000
 6 -12.00556200000000 -1.97059000000000 -0.73684300000000
 6  13.39079100000000  0.22900300000000  0.72781000000000
 6  10.56726700000000 -0.07445000000000  0.31529000000000
 6 -9.42752100000000 -0.06657400000000  0.22102700000000
 6  12.76642000000000  0.74837700000000 -0.54548100000000
 6  11.31550700000000  0.37543100000000 -0.70285200000000
 6  10.13726200000000  0.44290000000000  2.75151500000000
 6  11.24194700000000 -1.69208800000000  2.09990600000000
 6 -11.02031100000000 -0.49597500000000 -2.46762900000000
 6 -8.49014400000000  0.82390900000000 -0.10001600000000
 6  9.16719000000000 -0.49895300000000  0.13195100000000
 6  10.80837400000000  0.60037500000000 -2.09971000000000
 6 -7.04907200000000  0.65822400000000  0.07255300000000
 6  8.75415800000000 -1.41225700000000 -0.74871600000000
 6 -6.56352600000000 -0.62979300000000  0.66850700000000
 6  7.36524100000000 -1.83602600000000 -0.95829200000000
 6 -6.23942100000000  1.66412300000000 -0.31056700000000
 6  7.19818500000000 -3.28543000000000 -1.31817500000000
 6  6.35133600000000 -0.96050800000000 -0.83968400000000
 6 -4.79850300000000  1.71520700000000 -0.23450800000000
 6  4.93825400000000 -1.23464900000000 -0.96218700000000
 6 -4.08085600000000  2.77330100000000 -0.63914900000000
 6 -2.62370800000000  2.89402300000000 -0.61241100000000
 6  3.99840500000000 -0.28303600000000 -0.84325400000000
 6  2.56196200000000 -0.47771400000000 -0.94528700000000
 6 -2.11312300000000  4.29829400000000 -0.44791000000000
 6 -1.83159300000000  1.81243300000000 -0.74476100000000
 6  1.75779300000000  0.59640200000000 -0.79569500000000
 6  2.05895400000000 -1.86632100000000 -1.21241800000000
 6 -0.39228000000000  1.76949000000000 -0.69149500000000
 6  0.31970700000000  0.64035800000000 -0.85673000000000
 1 -11.03998900000000  1.14360300000000 -0.39841400000000
 1 -12.45627800000000 -1.53719400000000  2.61516300000000
 1 -10.83983500000000 -1.79393500000000  1.98982600000000
 1 -12.01929200000000 -3.38387800000000  0.84620900000000
 1 -10.11953600000000  0.41650700000000  2.71039000000000
 1 -10.93271800000000  1.86877600000000  2.13077000000000
 1 -11.73021700000000  0.82535300000000  3.31401300000000
 1 -13.63223300000000  0.14720800000000  0.19796700000000
 1 -13.77458800000000  0.49777800000000  1.91322400000000
 1 -13.05061800000000  1.69650500000000  0.83288300000000
 1  12.30114200000000  1.59039400000000  1.93747900000000
 1  12.91937700000000  0.20502000000000  2.83199300000000
 1 -12.29553500000000 -2.65618700000000 -1.53064900000000
 1  13.54635400000000 -0.85354400000000  0.63237600000000
 1 -9.13951500000000 -1.02481000000000  0.64291000000000
 1  13.32839200000000  0.38689600000000 -1.41146200000000
 1  12.86627700000000  1.84028400000000 -0.55809000000000
 1  9.20650600000000 -0.11746900000000  2.84559000000000
 1  9.89669700000000  1.46839600000000  2.46321000000000
 1  10.60234900000000  0.47006200000000  3.73960400000000
 1  11.95899400000000 -2.19499400000000  1.44931200000000
 1  10.28434300000000 -2.20412800000000  1.99236100000000
 1  11.57485600000000 -1.80850100000000  3.13447500000000
 1 -9.94803100000000 -0.31077100000000 -2.56957400000000
 1 -11.53204600000000  0.42550700000000 -2.76013300000000
 1 -11.30534400000000 -1.28409700000000 -3.16433600000000
 1 -14.19661000000000 -2.84479500000000  0.03200500000000
 1  8.42918000000000 -0.06737900000000  0.80173700000000
 1 -8.80584800000000  1.77174600000000 -0.53021000000000
 1  11.19778400000000 -0.16137000000000 -2.78173800000000
 1  9.72339300000000  0.58796000000000 -2.16540400000000
 1  11.17252800000000  1.56333800000000 -2.46892100000000
 1  15.05391400000000  0.55666900000000  1.68685500000000
 1  9.50417700000000 -1.92350600000000 -1.34825400000000
 1 -5.48175200000000 -0.66721200000000  0.76431000000000
 1 -6.99339100000000 -0.77660500000000  1.66256100000000
 1 -6.87696700000000 -1.47798300000000  0.05474500000000
 1 -6.71221300000000  2.54878200000000 -0.73023300000000
 1  7.50884600000000 -3.92489800000000 -0.48747300000000
 1  6.17711200000000 -3.54758900000000 -1.58518600000000
 1  7.84049200000000 -3.53583200000000 -2.16668600000000
 1  6.60862300000000  0.07565100000000 -0.63790200000000
 1 -4.27356500000000  0.86406100000000  0.18421400000000
 1  4.63141600000000 -2.25678800000000 -1.14974800000000
 1 -4.62067500000000  3.64956200000000 -0.99314000000000
 1  4.32361000000000  0.73634100000000 -0.64973600000000
 1 -1.03257800000000  4.37621400000000 -0.53907600000000
 1 -2.40324400000000  4.69955700000000  0.52669900000000
 1 -2.55998200000000  4.94869200000000 -1.20451400000000
 1 -2.31545700000000  0.85684800000000 -0.92631900000000
 1  2.24110500000000  1.55173600000000 -0.60567200000000
 1  2.37981100000000 -2.54903600000000 -0.42169700000000
 1  0.97521700000000 -1.91482400000000 -1.27512100000000
 1  2.46596400000000 -2.24697100000000 -2.15247600000000
 1  0.14848900000000  2.69085600000000 -0.50078800000000
 1 -0.22216400000000 -0.28109800000000 -1.04309200000000

