%nproc=7
%mem=7GB
# wB97XD/Def2TZVP iop(3/107=0100000000,3/108=0100000000)

TITLE

1 2
 8 -13.91802500000000 -2.30324500000000  0.85488300000000
 8  14.71190900000000  0.95192300000000  0.68787100000000
 6 -11.78127400000000  0.12959500000000  1.29656600000000
 6 -10.94205900000000  0.18538000000000 -0.01481700000000
 6 -11.90819100000000 -1.33766900000000  1.74302800000000
 6 -12.49195700000000 -2.28280200000000  0.69565600000000
 6 -11.44396900000000 -0.80675300000000 -1.05418000000000
 6  11.13141000000000  0.10266900000000  1.69947300000000
 6 -11.09420700000000  0.93282100000000  2.40810200000000
 6 -13.16007700000000  0.75680300000000  1.03216100000000
 6  12.50002200000000  0.80826400000000  1.72300800000000
 6 -12.10745400000000 -1.90831100000000 -0.70811300000000
 6  13.44323700000000  0.30830900000000  0.64211800000000
 6  10.61046000000000 -0.03524300000000  0.25803300000000
 6 -9.46865100000000 -0.05374900000000  0.18884800000000
 6  12.83524200000000  0.59519900000000 -0.71451300000000
 6  11.37824200000000  0.21661200000000 -0.81924500000000
 6  10.16618200000000  0.94671500000000  2.55572200000000
 6  11.24116200000000 -1.29956700000000  2.33286500000000
 6 -11.11757400000000 -0.48217300000000 -2.48285500000000
 6 -8.50567700000000  0.81391200000000 -0.14308100000000
 6  9.20927600000000 -0.47554700000000  0.14078500000000
 6  10.88580600000000  0.19910200000000 -2.24217900000000
 6 -7.07020100000000  0.61505300000000  0.01129800000000
 6  8.78135100000000 -1.51602900000000 -0.58853800000000
 6 -6.59935100000000 -0.68613600000000  0.59788900000000
 6  7.39380300000000 -1.96247100000000 -0.73194500000000
 6 -6.23854900000000  1.61077800000000 -0.38217600000000
 6  7.22511100000000 -3.44472000000000 -0.93925600000000
 6  6.36792100000000 -1.08102000000000 -0.69097100000000
 6 -4.80215100000000  1.63640000000000 -0.32715300000000
 6  4.96016100000000 -1.36931500000000 -0.76170900000000
 6 -4.06605100000000  2.68943700000000 -0.74105900000000
 6 -2.61324100000000  2.80345600000000 -0.74311600000000
 6  4.00872300000000 -0.40986200000000 -0.73059800000000
 6  2.57745300000000 -0.61524400000000 -0.79079400000000
 6 -2.09145800000000  4.21722900000000 -0.72865300000000
 6 -1.81370600000000  1.70753500000000 -0.77359800000000
 6  1.76742900000000  0.47653400000000 -0.74351900000000
 6  2.06501800000000 -2.02497400000000 -0.90406000000000
 6 -0.38127700000000  1.66661400000000 -0.73342200000000
 6  0.33586100000000  0.51838400000000 -0.79018900000000
 1 -11.05568000000000  1.19148100000000 -0.43244400000000
 1 -12.52403200000000 -1.40367100000000  2.64197500000000
 1 -10.91714400000000 -1.70621400000000  2.01974700000000
 1 -12.11566400000000 -3.29438700000000  0.90043600000000
 1 -10.12899100000000  0.50596400000000  2.68343400000000
 1 -10.92143700000000  1.96482500000000  2.09487600000000
 1 -11.72185000000000  0.95415400000000  3.30140100000000
 1 -13.67985800000000  0.27146200000000  0.20854800000000
 1 -13.79464000000000  0.66948700000000  1.91530600000000
 1 -13.05266300000000  1.81856000000000  0.79728200000000
 1  12.36391700000000  1.88376300000000  1.57629300000000
 1  12.95026500000000  0.67598100000000  2.71222900000000
 1 -12.42345300000000 -2.59994200000000 -1.48602600000000
 1  13.58165800000000 -0.77519000000000  0.74723100000000
 1 -9.20230600000000 -1.01907400000000  0.60657600000000
 1  13.39973600000000  0.07481300000000 -1.49329700000000
 1  12.95118300000000  1.66433500000000 -0.92780500000000
 1  9.22329700000000  0.43264700000000  2.74255100000000
 1  9.94911300000000  1.90365100000000  2.07760200000000
 1  10.62117000000000  1.15130400000000  3.52707500000000
 1  11.95241300000000 -1.92865300000000  1.79633600000000
 1  10.27592500000000 -1.80719500000000  2.31561200000000
 1  11.56592700000000 -1.22534000000000  3.37344200000000
 1 -10.04377500000000 -0.32514800000000 -2.60975000000000
 1 -11.61217600000000  0.44574800000000 -2.78412900000000
 1 -11.43392200000000 -1.27426600000000 -3.16081000000000
 1 -14.29891500000000 -2.75864200000000  0.10227400000000
 1  8.47859400000000  0.05655500000000  0.74153300000000
 1 -8.80239200000000  1.76888000000000 -0.56949300000000
 1  11.27298200000000 -0.67135400000000 -2.78007300000000
 1  9.80172000000000  0.18511600000000 -2.31592900000000
 1  11.26132100000000  1.08056300000000 -2.76958700000000
 1  15.10974900000000  0.77359100000000  1.54125200000000
 1  9.52702200000000 -2.12307400000000 -1.09515400000000
 1 -5.51736700000000 -0.74473200000000  0.67604400000000
 1 -7.01392400000000 -0.82821500000000  1.59888400000000
 1 -6.93711100000000 -1.52761000000000 -0.01197700000000
 1 -6.70211300000000  2.50407900000000 -0.79247100000000
 1  7.53797400000000 -3.99696300000000 -0.04891500000000
 1  6.20296000000000 -3.73188900000000 -1.17278800000000
 1  7.86187900000000 -3.78369200000000 -1.76052700000000
 1  6.62284800000000 -0.02886300000000 -0.60594400000000
 1 -4.28985800000000  0.77367200000000  0.08165000000000
 1  4.65547400000000 -2.40598000000000 -0.83519900000000
 1 -4.60342400000000  3.57087800000000 -1.08335100000000
 1  4.33332200000000  0.62420900000000 -0.65074300000000
 1 -1.01379500000000  4.27837300000000 -0.85483400000000
 1 -2.35141400000000  4.71400600000000  0.20984000000000
 1 -2.55342900000000  4.79596000000000 -1.53251400000000
 1 -2.29887700000000  0.73939500000000 -0.85122700000000
 1  2.25621300000000  1.44372700000000 -0.66082400000000
 1  2.39364800000000 -2.62405500000000 -0.05144500000000
 1  0.98054900000000 -2.07419000000000 -0.94480700000000
 1  2.45393500000000 -2.50475100000000 -1.80537900000000
 1  0.16296500000000  2.60068100000000 -0.64534400000000
 1 -0.20938100000000 -0.41549900000000 -0.87352900000000

