%nproc=4
%Mem=2GB
# td(NStates=1) B3LYP/6-31G(d,p) nosymm

b-caroten-abs Single Point

0 1
C  11.93400113   0.58317098  -0.84974283
C -12.02929885  -0.00729795   1.01063533
C  13.26432485  -0.31858873  -0.69728091
C -12.79549326   1.29960423   1.30338319
C  13.13550962  -1.82059660  -0.61589810
C -13.28471468   2.19849056   0.16090395
C  10.99832041   0.05981006   0.17811828
C -11.01026733   0.43360609  -0.17310626
C  12.32626495  -2.05424106   0.68043259
C -12.03507456   2.56922389  -0.63798830
C  11.17498088  -1.13193597   1.00002918
C -10.99304293   1.58080840  -0.81824955
C  11.42244303   0.48408886  -2.27402434
C  12.55952235   1.96942769  -0.48323077
C -12.98705811  -1.05650191   0.43118413
C -11.39903498  -0.64560959   2.18693054
C   9.85137009   0.90218238   0.40026905
C  -9.93365953  -0.53293023  -0.34262644
C  10.28310831  -1.51631179   2.11967421
C -10.04513806   1.93614045  -1.96554890
C   8.53388844   0.44745378   0.37201175
C  -8.58429569  -0.36121181  -0.30869960
C   7.30456512   1.24804961   0.53364677
C  -7.53120283  -1.29526837  -0.51727083
C   7.45639617   2.72086581   0.68638414
C  -7.78815207  -2.73919265  -0.69715741
C   6.03608930   0.73809622   0.36316947
C  -6.15654300  -0.86519963  -0.29813352
C   4.77369658   1.42295021   0.41281243
C  -5.06551768  -1.73455448  -0.47378327
C   3.65828356   0.70161125   0.33995702
C  -3.78274528  -1.12702399  -0.35866998
C   2.42822486   1.22557770   0.46831561
C  -2.44909764  -1.87601413  -0.53470576
C   2.25689661   2.60386309   0.85678311
C  -2.49440381  -3.34470609  -0.86545216
C   1.23383404   0.48202223   0.18709859
C  -1.35654829  -1.10546145  -0.39699246
C   1.24100901  -0.88914642  -0.02674491
C   0.01925146  -1.56068845  -0.35229169
H  13.69432864   0.11779867   0.27288020
H  14.02324831  -0.00064703  -1.49636618
H -12.38009243   1.98735277   1.81943231
H -13.72539245   1.00164006   1.97071260
H  14.05162311  -2.53099693  -0.43222891
H  12.37800927  -2.02325200  -1.55219584
H -13.92607804   3.04788763   0.50003072
H -14.11432077   1.73292808  -0.60527853
H  13.12978726  -2.15004898   1.54089538
H  11.89254512  -3.05583640   0.49766526
H -11.52898202   3.45815206  -0.21818899
H -12.46472359   2.98650540  -1.56652774
H  11.00516627  -0.47177164  -2.70625411
H  12.14801976   0.82842798  -3.21282566
H  10.51099387   1.16181140  -2.43087282
H  12.79354525   2.34404324   0.65419214
H  11.85159559   2.79072518  -0.74506367
H  13.35888516   2.16273873  -1.17671427
H -13.82000912  -0.77280932  -0.29086733
H -13.57371725  -1.47603458   1.35583049
H -12.27191517  -1.82439992  -0.10869549
H -10.70581834   0.05497080   2.69925402
H -10.67215664  -1.51568395   1.83007064
H -12.29693949  -0.90426513   2.95666674
H  10.08662407   1.84633099   0.62250217
H -10.21033253  -1.52395404  -0.70407462
H   9.60658213  -0.74568473   2.41646733
H  10.89112160  -1.99874845   2.98838484
H   9.77882254  -2.56958330   1.79338913
H  -9.37157215   1.34455370  -2.26468445
H  -9.42946832   2.85067913  -1.53144062
H -10.69055026   2.21090991  -2.82492858
H   8.35677177  -0.61164931   0.31431523
H  -8.11601307   0.47993288   0.07737820
H   7.95444855   2.71291035   1.65829702
H   6.38720061   3.29766837   0.73606996
H   8.10845150   3.16295531  -0.05708795
H  -8.37476194  -2.65077256  -1.71609773
H  -8.32739111  -2.99849422   0.22231001
H  -6.96770679  -3.44122256  -0.91367899
H   6.08702531  -0.29685757   0.27916744
H  -6.17412148   0.25757101   0.02775100
H   4.77677645   2.47392166   0.62031116
H  -5.14004758  -2.71060262  -0.37296954
H   3.78848486  -0.35303294   0.09173714
H  -3.83205716  -0.12329909  -0.35761833
H   2.65522805   2.95391505   1.81399405
H   1.06917012   2.76594546   0.83780397
H   2.61697160   3.36264119   0.05163935
H  -2.83525598  -3.60216004  -1.80464678
H  -3.06756524  -3.76523134  -0.11986665
H  -1.59361913  -3.71019529  -0.80496816
H   0.34852825   0.93337626   0.47179109
H  -1.47503044  -0.11601910  -0.02052400
H   1.91765569  -1.35394004   0.08861434
H   0.32042442  -2.65760462  -0.55100820




