%nproc=4
%Mem=2GB
# td(NStates=1) B3LYP/6-31G(d,p) nosymm

b-caroten-abs Single Point

0 1
C  12.09732654   0.64635169  -0.79081742
C -12.14999301  -0.00194775   0.88945875
C  13.36782080  -0.27835509  -0.76307166
C -12.93986069   1.28503290   1.19777656
C  13.03815387  -1.72193266  -0.67685933
C -13.23544818   2.13712895   0.12621389
C  11.02861036   0.07640597   0.17798116
C -10.95304676   0.51524226  -0.11222595
C  12.21737113  -2.12434353   0.54411384
C -11.96223919   2.70749113  -0.51839769
C  11.27121472  -1.18348278   0.81353127
C -10.94686962   1.66328731  -0.74541269
C  11.54843023   0.68796088  -2.18781632
C  12.43014318   2.02255690  -0.36143189
C -12.97200101  -0.91743113   0.03851600
C -11.53544412  -0.68825087   2.11706745
C   9.84080787   1.02562738   0.44592147
C  -9.87043655  -0.51649290  -0.27912285
C  10.31762754  -1.76132183   1.94240549
C  -9.89140716   2.11853814  -1.67488144
C   8.58709578   0.54475748   0.42934675
C  -8.58973489  -0.25872346  -0.43889579
C   7.38796451   1.32530445   0.54451806
C  -7.62721934  -1.45566642  -0.57090204
C   7.57014054   2.82622970   0.68237373
C  -7.95423482  -2.82303015  -0.64222447
C   6.12030542   0.71811699   0.29860935
C  -6.23736493  -1.04227802  -0.49848024
C   4.91036724   1.33895337   0.35252518
C  -4.98346343  -1.73019636  -0.46838438
C   3.75141415   0.63710989   0.29789794
C  -3.82093974  -1.24480033  -0.40108575
C   2.30321232   1.22972173   0.22818739
C  -2.50673354  -1.93538439  -0.36806528
C   2.15487827   2.69650266   0.48504149
C  -2.50962205  -3.34188620  -0.48333867
C   1.18211730   0.43510896   0.21715593
C  -1.40432994  -1.17226448  -0.02472826
C   1.10122821  -1.01096090   0.11686493
C  -0.06193336  -1.66241012   0.00206871
H  13.88420552  -0.10186851   0.16987943
H  14.16215209   0.06727990  -1.59549021
H -12.48711974   1.82241321   2.11736096
H -13.88419747   0.85395957   1.67718583
H  14.04298186  -2.21030365  -0.57715545
H  12.62526754  -2.08412918  -1.51017364
H -13.92243021   2.93727555   0.41603606
H -13.89783231   1.65499772  -0.65966243
H  13.00579421  -2.04520142   1.37036673
H  11.86831261  -3.15665811   0.51570904
H -11.40963044   3.40370789   0.12306924
H -12.12971885   3.12985693  -1.48959266
H  11.21965518  -0.38705473  -2.44699037
H  12.21499528   1.30800019  -2.69060689
H  10.57196271   1.08742779  -2.37618736
H  12.58322652   2.14365616   0.82734087
H  11.40956297   2.64318332  -0.45184995
H  13.30932862   2.26112117  -0.95787378
H -13.23848253  -0.50220008  -0.88116660
H -14.05601327  -1.19150410   0.47037576
H -12.38230064  -1.87523864  -0.09577395
H -10.87811130   0.02775269   2.70639641
H -11.04229573  -1.76629377   1.89914139
H -12.31311278  -0.92487959   2.95649556
H  10.15779893   2.08082306   0.64001990
H -10.27823760  -1.58876233  -0.33453297
H   9.52827713  -1.05301683   2.47473540
H  11.01430913  -2.18618498   2.67361252
H   9.88639511  -2.85043049   1.47971819
H  -9.37070610   1.26832753  -2.18520799
H  -9.19069240   2.68596640  -1.27145319
H -10.53533735   2.69373824  -2.39690344
H   8.49115288  -0.62583342   0.43767416
H  -8.25623180   0.62884426  -0.27814661
H   8.07440048   2.88229703   1.62902857
H   6.64113783   3.49704276   0.64832259
H   8.16116300   3.06457769  -0.17386342
H  -8.37106067  -3.10136936  -1.58907319
H  -8.24692067  -3.28900203   0.35912527
H  -6.92290220  -3.29777707  -0.71166187
H   6.04017852  -0.44754165  -0.04737807
H  -6.08379712   0.00120602  -0.27284636
H   4.74780556   2.37505323   0.42018987
H  -4.99268188  -2.80275653  -0.68662530
H   3.76138594  -0.46205243   0.42150989
H  -3.81861053  -0.23915714  -0.16188355
H   2.44578426   2.95150459   1.44839726
H   1.02561423   2.82031124   0.45191355
H   2.65861097   3.44340079  -0.30438054
H  -3.26455416  -3.61951169  -1.34488711
H  -3.05275123  -3.92018316   0.47003800
H  -1.62013677  -4.10923942  -0.72589810
H   0.16576934   1.07683289   0.27283631
H  -1.71564467  -0.01222178   0.11525495
H   2.13186417  -1.49641902   0.09708730
H   0.14034732  -2.73752289   0.11479470




