%nproc=4
%Mem=2GB
# td(NStates=1) B3LYP/6-31G(d,p) nosymm

b-caroten-abs Single Point

0 1
C  12.14657400   0.54399500  -0.69881100
C -12.11685900  -0.03958400   0.86821100
C  13.43587300  -0.30340000  -0.59001000
C -12.99500100   1.15608500   1.30285600
C  13.15685800  -1.80327600  -0.55241200
C -13.39403900   2.05487900   0.13632900
C  11.04206100   0.00735500   0.24462200
C -10.99332200   0.42117700  -0.09365200
C  12.31562600  -2.12706000   0.68023700
C -12.14117400   2.62691800  -0.52664100
C  11.15292000  -1.17945500   0.89431600
C -11.03205800   1.61378200  -0.74126300
C  11.62412300   0.52874900  -2.15521400
C  12.52586600   1.99944900  -0.33481000
C -12.99409200  -1.10881300   0.17170100
C -11.51132000  -0.65826400   2.14851800
C   9.85937400   0.87886400   0.37999500
C  -9.91193100  -0.56457900  -0.27912200
C  10.17823700  -1.68188300   1.93365100
C -10.00029800   2.07260900  -1.74535100
C   8.56760300   0.48043800   0.29793800
C  -8.58041600  -0.32134700  -0.24677100
C   7.39431800   1.33199700   0.41387400
C  -7.52106100  -1.30524900  -0.40603100
C   7.59950300   2.80362800   0.67563000
C  -7.90811800  -2.73988900  -0.66722400
C   6.16098500   0.75611000   0.27841000
C  -6.22390100  -0.88177400  -0.30888300
C   4.87349300   1.38668100   0.35341000
C  -5.02388200  -1.66022200  -0.42618400
C   3.70288400   0.70434800   0.20050700
C  -3.77614800  -1.12367300  -0.30562300
C   2.37698600   1.27292300   0.26512100
C  -2.52000600  -1.82941300  -0.40719900
C   2.24628400   2.75633500   0.52626700
C  -2.55454600  -3.31473500  -0.67649900
C   1.23451500   0.52658400   0.10083000
C  -1.35826900  -1.11428000  -0.25294900
C   1.13627800  -0.88052800  -0.15480300
C  -0.01539600  -1.60760200  -0.31244000
H  13.96894200  -0.02429500   0.32957100
H  14.09986200  -0.04624300  -1.42461600
H -12.43635000   1.75609800   2.03435200
H -13.88142400   0.77507700   1.82561900
H  14.09378000  -2.37182300  -0.53554200
H  12.62118300  -2.11100000  -1.45876700
H -14.04611800   2.86640000   0.47962400
H -13.97216200   1.48325800  -0.59977900
H  12.95036200  -2.11493400   1.58118000
H  11.92545500  -3.15307900   0.62144400
H -11.74207900   3.45279300   0.08483000
H -12.39786100   3.08492200  -1.49098800
H  11.41629500  -0.48922700  -2.49867300
H  12.36119300   0.97338700  -2.83426000
H  10.69428700   1.09888300  -2.24280500
H  12.78045900   2.09098100   0.72659500
H  11.72593100   2.71089100  -0.55843000
H  13.40143700   2.30730100  -0.91728900
H -13.48769300  -0.70991000  -0.71899300
H -13.76827400  -1.47195800   0.85779300
H -12.40396800  -1.97595100  -0.14117500
H -10.83509100   0.04639400   2.64340900
H -10.94474600  -1.56999300   1.93983800
H -12.30936000  -0.91532100   2.85471900
H  10.05593400   1.94139900   0.50092100
H -10.23555300  -1.59890000  -0.38622000
H   9.50922500  -0.90405300   2.30242400
H  10.73185900  -2.09802100   2.78570000
H   9.55932800  -2.50150000   1.54378400
H  -9.34964700   1.26687400  -2.08503100
H  -9.36195100   2.86478000  -1.32953800
H -10.49735000   2.50994600  -2.62026700
H   8.36409200  -0.57219800   0.10950400
H  -8.24604800   0.69805900  -0.06347500
H   8.15767900   2.95964100   1.60617500
H   6.66119300   3.35295800   0.75420300
H   8.18762300   3.26338000  -0.12777100
H  -8.52047800  -2.81940900  -1.57306400
H  -8.51011700  -3.13812700   0.15860700
H  -7.04447400  -3.39348700  -0.79114800
H   6.14135500  -0.31773200   0.09016700
H  -6.07015400   0.18061500  -0.11723200
H   4.83642700   2.45555900   0.54093200
H  -5.11899700  -2.72483600  -0.61858900
H   3.77733300  -0.36430100   0.01361600
H  -3.70368800  -0.05329900  -0.11133300
H   2.70300600   3.03603900   1.48344700
H   1.19799200   3.06268200   0.55272500
H   2.74941200   3.34526500  -0.25030400
H  -3.07130400  -3.52644100  -1.61989200
H  -3.10394200  -3.84007100   0.11348600
H  -1.56028700  -3.75665600  -0.73773600
H   0.29599200   1.07084800   0.17354800
H  -1.47911400  -0.04987200  -0.06273900
H   2.06455500  -1.43950300  -0.23435800
H   0.11489200  -2.66957700  -0.50139100




