--Link1--
%Mem=30GB
%CPU=0-29
%Chk=lutein-s1.chk
#n wB97XD/Def2TZVP Opt Td

lutein-s1

  0  1
O,-14.106864397959184,-1.9985207653061225,0.517447
O,14.816015602040816,0.9117962346938776,0.154041
C,-11.747020397959185,0.04691323469387759,1.3018
C,-10.965991397959185,0.3199522346938776,-0.017128
C,-11.970810397959184,-1.4674937653061224,1.441587
C,-12.701681397959184,-2.111689765306122,0.268491
C,-11.592727397959184,-0.3975547653061224,-1.205101
C,11.121077602040815,0.9812372346938776,1.077203
C,-10.950884397959184,0.5502742346938776,2.509493
C,-13.083992397959184,0.8011932346938776,1.259232
C,12.542578602040816,1.5033972346938775,0.806138
C,-12.335757397959185,-1.4936597653061225,-1.052313
C,13.508174602040816,0.4109362346938776,0.386811
C,10.689640602040816,-0.03823576530612241,0.004149
C,-9.507977397959184,-0.05385576530612241,0.039924
C,13.024607602040815,-0.19014376530612243,-0.914137
C,11.553495602040815,-0.5218847653061224,-0.919412
C,10.185527602040816,2.2045422346938777,1.082866
C,11.056058602040816,0.3159082346938776,2.464387
C,-11.290641397959185,0.18124723469387757,-2.557418
C,-8.494613397959185,0.8078382346938776,-0.163775
C,9.285090602040816,-0.4445797653061224,0.069162
C,11.164928602040815,-1.3926697653061224,-2.083953
C,-7.0823873979591845,0.4952442346938776,-0.149107
C,8.809819602040816,-1.7043627653061224,-0.09859
C,-6.671401397959184,-0.9247687653061224,0.111114
C,7.429508602040816,-2.1236177653061223,-0.059377
C,-6.187856397959184,1.5119172346938774,-0.371434
C,7.162441602040816,-3.5951157653061223,0.127818
C,6.3916936020408155,-1.2294507653061224,-0.186576
C,-4.7758793979591845,1.4422702346938774,-0.400866
C,5.0159246020408155,-1.5339087653061225,-0.102198
C,-3.9818923979591836,2.5474002346938778,-0.63811
C,-2.5712353979591835,2.608086234693878,-0.692522
C,4.024728602040816,-0.5872767653061224,-0.264836
C,2.6338976020408165,-0.8076227653061224,-0.190474
C,-1.930114397959184,3.9418362346938776,-0.968526
C,-1.7647613979591839,1.4802182346938775,-0.499836
C,1.7789336020408162,0.2820472346938776,-0.374381
C,2.1211726020408164,-2.1944647653061224,0.086321
C,-0.37302739795918377,1.4544492346938775,-0.536402
C,0.38607560204081626,0.3009842346938776,-0.337392
H,-11.018201397959183,1.3998092346938775,-0.211548
H,-12.540885397959183,-1.6822007653061226,2.351053
H,-10.998920397959184,-1.9603877653061226,1.557174
H,-12.439280397959184,-3.181264765306122,0.241379
H,-10.001603397959185,0.02090623469387759,2.623761
H,-10.723950397959184,1.6168922346938774,2.412781
H,-11.529693397959184,0.4134722346938776,3.428222
H,-13.693598397959184,0.5076392346938776,0.405297
H,-13.667910397959185,0.5915882346938776,2.15998
H,-12.908762397959183,1.8814442346938776,1.215167
H,12.520716602040816,2.2481672346938777,0.001568
H,12.910112602040815,2.0172732346938775,1.703988
H,-12.740830397959185,-1.9843727653061225,-1.938093
H,13.538535602040817,-0.3748797653061224,1.156641
H,-9.291959397959184,-1.1037477653061225,0.2244
H,13.602942602040816,-1.0919447653061225,-1.14844
H,13.250208602040816,0.5218832346938777,-1.720762
H,9.187407602040816,1.9671442346938774,1.457526
H,10.085767602040816,2.631638234693878,0.080845
H,10.597650602040815,2.9779452346938777,1.73849
H,11.755970602040817,-0.5198517653061224,2.545786
H,10.054677602040815,-0.07692776530612241,2.658719
H,11.295392602040815,1.0396942346938776,3.25057
H,-10.210636397959185,0.2785552346938776,-2.706043
H,-11.715053397959185,1.1876772346938775,-2.649347
H,-11.697165397959184,-0.4348247653061224,-3.362424
H,-14.572883397959185,-2.2528117653061224,-0.287962
H,8.573703602040815,0.3254102346938776,0.353538
H,-8.743927397959185,1.8511342346938775,-0.356796
H,11.457038602040816,-2.437377765306122,-1.921485
H,10.095719602040816,-1.3713207653061226,-2.29066
H,11.701446602040816,-1.0614367653061225,-2.980519
H,15.142580602040816,1.2866642346938775,0.980311
H,9.536620602040816,-2.501520765306122,-0.235575
H,-5.591006397959184,-1.0608307653061224,0.096032
H,-7.036635397959184,-1.2626057653061225,1.087476
H,-7.103264397959184,-1.5978557653061225,-0.637852
H,-6.612751397959184,2.4997112346938777,-0.547983
H,6.7788936020408155,-3.8081117653061223,1.133043
H,6.420931602040816,-3.9704597653061224,-0.584088
H,8.075409602040816,-4.180491765306122,3.27E-4
H,6.640114602040816,-0.18994376530612242,-0.388781
H,-4.303300397959184,0.4810102346938776,-0.229424
H,4.728348602040816,-2.559807765306122,0.106608
H,-4.505159397959184,3.4878442346938776,-0.803445
H,4.343621602040816,0.43427323469387763,-0.467826
H,-1.318034397959184,3.9131952346938776,-1.877281
H,-1.267232397959184,4.246089234693878,-0.150402
H,-2.6807353979591837,4.723507234693877,-1.097063
H,-2.256812397959184,0.5314072346938776,-0.3027
H,2.2639626020408166,1.2377702346938775,-0.569849
H,2.4591066020408165,-2.5483137653061223,1.066215
H,1.0336706020408162,-2.249426765306122,0.072851
H,2.4968896020408162,-2.904465765306122,-0.65757
H,0.16553460204081621,2.379265234693878,-0.730085
H,-0.1566563979591838,-0.6206397653061224,-0.14345
