%nproc=4
%Mem=4GB
# td=(NStates=1) CAM-B3LYP/6-31G(d,p) 

TD

0 1
 8 -14.13793966916692 -2.04798318001800  0.09158941424142
 8  14.85079691649165  1.08589617621762 -0.15040444454445
 6 -11.95338819841984 -0.10490441554155  1.16472129212921
 6 -11.04828179067907  0.33912668366837 -0.06902318951895
 6 -12.09488496909691 -1.55658014241424  1.23291113241324
 6 -12.70896428992899 -2.18551961676168  0.02318646954695
 6 -11.55645093399340 -0.25932341064106 -1.23124861476148
 6  11.06262959355936  1.04469611211121  0.88257853755376
 6 -11.35059653285328  0.49680141894189  2.43388043874387
 6 -13.31840800320032  0.66064171107111  1.01348242504250
 6  12.56086326682668  1.53967339383938  0.52364975117512
 6 -12.17025801170117 -1.46509437723772 -1.24343711241124
 6  13.55724734563456  0.52649032163216  0.15511283018302
 6  10.60269974427443 -0.00105951615162 -0.18720513541354
 6 -9.57637640154015  0.10134728652865  0.07953796139614
 6  13.10633861146115 -0.26944416381638 -1.16345193149315
 6  11.55890897969797 -0.52037708300830 -1.03286834563456
 6  10.15796268186819  2.20438975097510  0.94124683808381
 6  11.16276710921092  0.29665884128413  2.27882844414441
 6 -11.16564106160616  0.40000164166417 -2.46119837803780
 6 -8.55863196349635  0.98688367076708 -0.09708333083308
 6  9.32958788808881 -0.46708448424843 -0.03003291949195
 6  11.11093103860386 -1.45930889768977 -2.18660826552655
 6 -7.09946126902690  0.56623386518652 -0.07379946924692
 6  8.88699515591559 -1.81153095059506 -0.00474561556156
 6 -6.81738315981598 -0.86570532743274  0.30594348294829
 6  7.41375986348635 -2.14446731873187  0.09619855755576
 6 -6.13574335033503  1.61994556905691 -0.17692954955496
 6  7.21122431663166 -3.69174289648965  0.13396361456146
 6  6.42211948094809 -1.27475776447645  0.05741339893989
 6 -4.68927290099010  1.46331987118712 -0.35883679707971
 6  4.96819766566657 -1.52817065996600  0.13874609440944
 6 -3.91794316671667  2.50082310851085 -0.66383757275728
 6 -2.49866030413041  2.61130908850885 -0.55947869566957
 6  4.03117708320832 -0.57115762186219  0.09949043264326
 6  2.58353540214021 -0.86279075057506  0.21435648304830
 6 -1.84616316651665  3.86324090669067 -1.09211835923592
 6 -1.76301338683868  1.51611435583558 -0.26854287068707
 6  1.81901044604460  0.27166872837284 -0.00730929282928
 6  2.02103542464246 -2.22521530883088  0.61284365226523
 6 -0.36260851975198  1.42508382968297 -0.26760011981198
 6  0.37263209400940  0.26553822162216 -0.00481374217422
 1 -11.04321106260626  1.45309709500950 -0.26114795999600
 1 -12.59238271137114 -1.85917593129313  2.23743163786379
 1 -11.09774744434444 -1.96796599159916  1.48363164576458
 1 -12.13607724132413 -3.13098220552055  0.08077293939394
 1 -10.41839724102410  0.03767544314431  2.71998062196220
 1 -11.19724989158916  1.55720879787979  2.58920364226423
 1 -12.09223681598160  0.35230864986499  3.41616579437944
 1 -13.96976817861786  0.43838984128413  0.08344481478148
 1 -14.01676744734474  0.27192880028003  1.92895689768977
 1 -13.16778546394639  1.72854647644764  1.15811629492949
 1  12.32571993869387  2.36134108360836 -0.26187834463446
 1  12.77132155925592  2.41130516941694  1.38363596479648
 1 -12.22169564816482 -2.02387918441844 -2.09973416411641
 1  13.72966255105511 -0.31886163196320  1.02218255415542
 1 -9.13830619631963 -0.76412127112711  0.21821938193819
 1  13.92720786488649 -1.25085812511251 -1.15639079507951
 1  13.14984140164017  0.47283586148615 -2.10542046584658
 1  9.21478817641764  1.97596764856486  1.56448169556956
 1  10.16629849144915  2.50972357475748 -0.03254633913391
 1  10.55430910421042  3.02127709940994  1.47978412941294
 1  11.60664350565057 -0.73547079567957  2.14954137553755
 1  10.08022299289929  0.03841130013001  2.56713984208421
 1  11.64658555765577  0.99465726252625  3.08592353535354
 1 -10.05671816981698  0.79574948564857 -2.26603399909991
 1 -11.73514257055706  1.32859885838584 -2.73585065036504
 1 -11.09870771587159 -0.27747649894990 -3.40003776137614
 1 -14.63259653295330 -2.38664761736174 -0.72516071987199
 1  8.57417648564856  0.29154938013801  0.18677132333233
 1 -8.60656582548255  1.90938259105911 -0.41007632803280
 1  11.54986072057206 -2.47787928392839 -2.13422627412741
 1  10.18943180958096 -1.60321642334233 -2.33918985298530
 1  11.56345563926393 -1.07927101720172 -3.08282423052305
 1  15.30263944424442  1.19563766356636  0.69740770967097
 1  9.70415019131913 -2.58322140384038 -0.10935737823782
 1 -5.62880734173417 -1.10346749744974  0.35024242104210
 1 -7.09296819491949 -1.18542051525153  1.29160141254125
 1 -7.39220545574557 -1.42984143234323 -0.45545376017602
 1 -6.49543182968297  2.65211400650065 -0.13019622132213
 1  6.84254780378038 -4.27585100770077  0.97321701740174
 1  6.24140148534853 -3.95538072587259 -0.38689828102810
 1  8.10154005140514 -4.35774195879588 -0.29111214391439
 1  6.58154658155816 -0.27264450385039 -0.07389951185118
 1 -4.41229346094609  0.39565923112311 -0.48718477607761
 1  4.58198180168017 -2.66867612061206  0.30352269146915
 1 -4.40585663136314  3.51082906470647 -0.86666632213221
 1  4.40950102630263  0.49311665056506  0.02991377397740
 1 -1.44036379457946  3.71506295299530 -1.90066833873387
 1 -1.15477831623162  4.01371852915292 -0.23861582138214
 1 -2.67459694779478  4.56513892939294 -0.98341663536354
 1 -2.47864674507451  0.51547817331733 -0.04590932093209
 1  2.21972101420142  1.26139012821282 -0.38067508260826
 1  2.64751327902790 -2.56078248064807  1.48668704720472
 1  0.82202727402740 -2.22438172927293  0.83571228612861
 1  2.18635138453845 -3.09888767596760 -0.32452669566957
 1  0.30574645954595  2.36953679337934 -0.34738172967297
 1 -0.10274317031703 -0.58702887268727  0.35462480748075

