%nproc=4
%Mem=4GB
# td=(NStates=1) CAM-B3LYP/6-31G(d,p) 

TD

0 1
 8 -14.09017489268927 -2.17155553725373  0.37825808110811
 8  14.80229206600660  0.89637722432243 -0.29746915101510
 6 -11.79842270187019 -0.08967289238924  1.25529034903490
 6 -10.98646560906091  0.27271004200420 -0.05804209140914
 6 -11.97150263086309 -1.66353083748375  1.28146598789879
 6 -12.66559995349535 -2.18490955575558  0.06682083298330
 6 -11.51161645054505 -0.39171664996500 -1.30293578347835
 6  11.16113944454445  0.87647929042904  1.05095537523752
 6 -11.03544501770177  0.40744248304830  2.46509356005601
 6 -13.19134529692969  0.46907255415542  1.15738681548155
 6  12.59906708720872  1.41003042954295  0.72946033223322
 6 -12.29599058495850 -1.52195006280628 -1.25945871457146
 6  13.55544716561656  0.32579025162516  0.17470478937894
 6  10.71843131743174 -0.02688209840984 -0.07984439933993
 6 -9.48925768966897  0.04422157395740  0.05147515511551
 6  12.91934991259126 -0.25732295169517 -1.21982756905691
 6  11.45580866966697 -0.56980202550255 -1.06068112691269
 6  10.20367725332533  2.10458977097710  1.07292000540054
 6  11.23444427692769  0.14104327972797  2.40463102440244
 6 -11.19007350485048  0.31372301380138 -2.55197745594559
 6 -8.56261236153616  0.97497247964796 -0.15840946344634
 6  9.26220114941494 -0.44027180298030  0.15535561936194
 6  10.99843978947895 -1.54880784758476 -2.19144874957496
 6 -7.13739506240624  0.63037027882788 -0.08674076337634
 6  8.75767222362236 -1.64003380088009  0.04298915791579
 6 -6.73703512501250 -0.75079383628363  0.13245613421342
 6  7.41405989348935 -2.00529340134013  0.17163610131013
 6 -6.17435721172117  1.72472604710471 -0.28426028262826
 6  7.08592178637864 -3.46106982918292  0.58663888208821
 6  6.31324859385939 -1.21555184388439 -0.01940428282828
 6 -4.81197517121712  1.54844838403840 -0.27504841824182
 6  5.03458430433043 -1.44213205610561  0.08718093789379
 6 -3.97834920732073  2.65629865606561 -0.62443363236324
 6 -2.54788522662266  2.71103906150615 -0.64788753655366
 6  3.98834279977998 -0.54342484858486 -0.12942245864586
 6  2.63724077267727 -0.67141161266127 -0.01053600620062
 6 -1.86984553475348  3.94747933053305 -1.03583273067307
 6 -1.73639072457246  1.55169791419142 -0.36836285268527
 6  1.75736428142814  0.36544810631063 -0.17137569946995
 6  2.10833415451545 -2.09592237953795  0.19121148904890
 6 -0.45982824172417  1.48369969126913 -0.38349170897090
 6  0.38036286708671  0.37685935373537 -0.04843810461046
 1 -11.01773851535154  1.40773255855586  0.00727888268827
 1 -12.53338681178118 -2.11287130083008  2.28485638033803
 1 -10.81551922152215 -2.13950314531453  1.31496477907791
 1 -12.21763539713971 -3.21490059735974 -0.15518065596560
 1 -10.16220162146215 -0.19968829322932  2.85572419631963
 1 -10.69901006760676  1.44579765676568  2.20379510141014
 1 -11.86477406970697  0.49860327932793  3.37912209000900
 1 -13.81162236403640  0.22627863016302  0.24808127842784
 1 -13.77756352695270  0.32693430083008  2.08998300030003
 1 -13.34722340774077  1.60315393719372  1.25178566186619
 1  12.50918828552855  2.01534648414841 -0.08554071087109
 1  13.01359578667867  2.08965300420042  1.47122472367237
 1 -12.55827930653065 -1.96881367786779 -2.09913410411041
 1  13.68194777957796 -0.45139488528853  0.85045538143814
 1 -8.96558892459246 -0.98716357535754  0.33610117011701
 1  13.60522566666667 -1.03438647794779 -1.64782993899390
 1  12.98765518301830  0.43042162006201 -2.04126405020502
 1  9.34981167876788  1.73119317111711  1.79340458785879
 1  9.83195505710571  2.49811241364136  0.14487140264026
 1  10.58832250555056  2.70538551025102  1.79631578257826
 1  11.89108194949495 -0.59994724332433  2.32817923932393
 1  10.39800477107711 -0.11394393539354  2.62317544564457
 1  11.55990688978898  0.81319911671167  3.09796473947395
 1 -10.17719021702170  0.66688659935994 -2.69842723842384
 1 -11.90048910521052  1.21625762426243 -2.65426249154916
 1 -11.52095994109411 -0.45296404770477 -3.52344010161016
 1 -14.64455772907291 -2.72554150675067 -0.40888909270927
 1  8.47281634963496  0.23517374257426  0.43161580778078
 1 -8.71212638153815  1.96376802960296 -0.79528484888489
 1  11.39411514601460 -2.55093658965897 -1.89666251775178
 1  9.96351921832183 -1.62140824252425 -2.48796473047305
 1  11.49903919761976 -1.21205429552955 -3.01985793389339
 1  15.26342552285229  1.65223332313231  0.36526449534954
 1  9.30994077037704 -2.60450353205321 -0.21039748224822
 1 -5.78657311831183 -0.95572272297230  0.17257465426543
 1 -7.31297019511951 -1.01941391459146  1.02001425382538
 1 -7.15127136233623 -1.38949739793979 -0.68971718651865
 1 -6.58115040154015  2.67509630473047 -0.33728693039304
 1  6.95420896989699 -3.56407983058306  1.64777447314731
 1  6.20606795199520 -4.02661784958496  0.18336874567457
 1  7.93373327072707 -4.09614579917992  0.22687965526553
 1  6.37443587048705 -0.22847008640864 -0.42135425732573
 1 -4.55472770437044  0.46634629982998 -0.22850890849085
 1  4.70768437193719 -2.38699795279528  0.71131347054705
 1 -4.60695674137414  3.66833481528153 -0.66599625512551
 1  4.51098117431743  0.43329066796680 -0.11084030143014
 1 -1.55710546874687  3.87776922362236 -1.98081635353535
 1 -1.12890572897290  4.10538769606961 -0.46700866066607
 1 -2.67799728782878  4.62215463096310 -1.27067536123612
 1 -2.30825970637064  0.73546017151715 -0.26528125812581
 1  2.29170821292129  1.28818280748075 -0.29143615871587
 1  2.40659918761876 -2.39533593599360  1.30431881038104
 1  1.07532260356036 -2.19816910801080  0.17448616351635
 1  2.63394614401440 -2.86530431763176 -0.43660790379038
 1  0.14636052095210  2.36101594129413 -0.59835682718272
 1 -0.17935083108311 -0.45702587238724  0.07788713371337

