%nproc=4
%Mem=4GB
# td=(NStates=1) CAM-B3LYP/6-31G(d,p) 

TD

0 1
 8 -13.93637951315131 -1.96285466716672  0.64811506680668
 8  14.63397523432343  0.95957354395440 -0.01535093919392
 6 -11.60071293089309  0.01864793969397  1.35658047804780
 6 -10.86871383388339  0.32113488448845 -0.00713700090009
 6 -11.81703718431843 -1.38619310371037  1.41744958625863
 6 -12.59897329082908 -2.06582764756476  0.29136328722872
 6 -11.61505679457946 -0.40956843514351 -1.18033352325233
 6  11.12867619821982  0.89729137163716  1.18630891059106
 6 -10.64018549174918  0.59044078287829  2.48935598629863
 6 -12.87934409680968  0.69798544544454  1.39610068686869
 6  12.49702688318832  1.49008843534353  0.78892627882788
 6 -12.35305629152915 -1.45094296209621 -1.04615738443844
 6  13.40122174307431  0.45787345994599  0.22480979987999
 6  10.67571704600460 -0.07115652585259  0.07981156625663
 6 -9.36979574347435 -0.09967281548155 -0.06110610301030
 6  12.85801377897790 -0.05526274567457 -1.09682526882688
 6  11.38332142094209 -0.40655570087009 -1.01296635543554
 6  10.18058494409441  2.10455976797680  1.29788250165017
 6  11.17739857235724  0.11610078547855  2.50265082638264
 6 -11.34562906040604  0.08813045454545 -2.53360561876188
 6 -8.41969807010701  0.85407038943894 -0.29975359785979
 6  9.22243717301730 -0.58117589338934  0.25010509430943
 6  10.89982992849285 -1.18246121292129 -2.20692029672967
 6 -7.03431475437544  0.43398063986399 -0.30322241154115
 6  8.71453791019102 -1.86756655415542  0.09563442244224
 6 -6.73737515901590 -1.04553331023102 -0.11663877527753
 6  7.39880836833683 -2.17895076707671  0.10276921462146
 6 -6.18201797779778  1.48182175667567 -0.57935979257926
 6  7.15103829802980 -3.74033775597560  0.32393261146115
 6  6.26536380538054 -1.28925921462146 -0.04820716311631
 6 -4.78421239493949  1.34649818901890 -0.55955686908691
 6  4.87089793569357 -1.64163200610061  0.06661888168817
 6 -4.06668804120412  2.54878790499050 -0.71813300230023
 6 -2.60525096319632  2.66085404300430 -0.79740248804880
 6  3.94910887638764 -0.57510801690169 -0.15638515491549
 6  2.55059210781078 -0.74380885238524 -0.12064701730173
 6 -1.99783833403340  4.08265284788479 -0.73857300470047
 6 -1.81296838233823  1.60305304970497 -0.65626164256426
 6  1.79339788478848  0.40670223172317 -0.38009657155716
 6  1.93318663976398 -2.09807259455946  0.03286565446545
 6 -0.39193145204520  1.53022434373437 -0.62928628842884
 6  0.41254608540854  0.43481514931493 -0.40962422322232
 1 -10.98433517501750  1.28917070237024 -0.28716056125613
 1 -12.41810528362836 -1.62422243594359  2.22556045074507
 1 -10.79730740034003 -1.73411260626063  1.52819610221022
 1 -12.19026265986599 -3.14524363166317  0.51008587068707
 1 -9.65213061436144  0.06946862246225  2.48969759365937
 1 -10.67272743934393  1.65373845084508  2.50694541644164
 1 -10.96009360166017  0.38991241024102  3.57957213501350
 1 -13.63295449724972  0.09363536583658  0.59198566886689
 1 -13.35000077067707  0.46669827722772  2.31575557755776
 1 -12.84961364676468  1.88782240404040  1.35457594089409
 1  12.49258662536254  2.33887883738374  0.01499934313431
 1  13.06073050015001  1.91299533843384  1.68203580478048
 1 -12.94638811741174 -2.04903169966997 -1.72428661936194
 1  13.51627121192119 -0.33167291309131  0.95391572747275
 1 -9.05951831753175 -1.07234209320932  0.10394795479548
 1  13.47559270337034 -0.91779481878188 -1.48702385838584
 1  13.12025844334434  0.91058963686369 -1.93220314411441
 1  9.34598129572957  1.98241829362936  1.60738598599860
 1  9.98922078367837  2.62240484288429  0.35019193469347
 1  10.66031970527053  2.81395636733673  2.05330148114811
 1  11.86808965026503 -0.68739598819882  2.37454387578758
 1  10.21686665726573 -0.24841738273827  2.84250737883788
 1  11.68428932803280  0.69788758555856  3.33847879087909
 1 -10.15924842284229  0.07294720542054 -2.90697809350935
 1 -11.61138019431943  1.20021602010201 -3.01535860116012
 1 -11.75767361246124 -0.67250600190019 -3.36668442604260
 1 -14.35928920222022 -2.10411936453645 -0.22299050285028
 1  8.48238730673067  0.11178140334033  0.61882452865287
 1 -8.74318948784879  1.75719737253725 -0.56462178257826
 1  11.13257899239924 -2.27986948294829 -2.05661851335134
 1  9.82182504890489 -0.94749085078508 -2.47760369436944
 1  11.40469976367637 -0.88621171127113 -2.95441138923892
 1  14.92702188248825  1.68854695449545  0.54386235513551
 1  9.30798057435744 -2.68299138083808 -0.28194463696370
 1 -5.50755521652165 -1.02165931663166 -0.01786438963896
 1 -7.36348524662466 -1.44186615981598  0.94588684108411
 1 -7.00392662786279 -1.69601805000500 -0.93740195499550
 1 -6.74724701120112  2.16284507960796 -0.76905010671067
 1  7.17680122912291 -3.65853927652765  1.42686238193819
 1  6.05907325252525 -3.86177136493649 -0.09024861606161
 1  8.08142804020402 -4.25788197279728  0.00460742804280
 1  6.46393482038204 -0.15499273867387 -0.14980710261026
 1 -4.24281651325132  0.39381904710471 -0.29511556915692
 1  4.47127073057306 -2.54588384138414  0.10014235343534
 1 -4.61827787348735  3.48818680048005 -0.77831748724872
 1  4.25895597179718  0.47781512041204 -0.54261347874787
 1 -1.23949370757076  4.15814726142614 -1.56318459035904
 1 -1.41904474287429  4.24840199749975  0.12511055125513
 1 -2.68695818391839  4.79848226372637 -0.89355764946495
 1 -2.31231011141114  0.61877850335033 -0.69029375937594
 1  2.41569061116112  1.26051004020402 -0.91072808790879
 1  2.36381490919092 -2.46349275167517  0.93987236573657
 1  0.79810488178818 -1.85671496259626  0.29563827872787
 1  2.19268201760176 -2.81685947314731 -0.76780102310231
 1  0.03046893179318  2.62183202290229 -0.47391438293829
 1 -0.26219911591159 -0.59394956475648 -0.16655731073107

