%nproc=4
%Mem=4GB
# td=(NStates=1) CAM-B3LYP/6-31G(d,p) 

TD

0 1
 8 -14.04543041824182 -1.97439582128213  0.61438169346935
 8  14.86313815061506  0.80355794239424  0.34091468736874
 6 -11.75099795939594  0.02409848474847  1.34457927792779
 6 -10.90617758025803  0.30523329432943  0.07488120092009
 6 -11.89413489408941 -1.40874535893589  1.58450629192919
 6 -12.63289668316832 -2.13622468726873  0.49695384628463
 6 -11.54001929082908 -0.50094757305731 -1.07659314921492
 6  11.13389672027203  0.83850549304930  1.25906618631863
 6 -10.92863433663366  0.75252699149915  2.52839989068907
 6 -13.06535269766977  0.76032167906791  1.31324240104010
 6  12.50065724622462  1.36998642514251  1.09303668986899
 6 -12.18384937083708 -1.66687455525553 -0.89612238093809
 6  13.50377199809981  0.37415508810881  0.41275859475948
 6  10.69258873317332 -0.02096150635063  0.08022160726073
 6 -9.46071483538354 -0.20897374557456  0.13114312191219
 6  12.96754473207321 -0.23115033443344 -0.87431301760176
 6  11.51843493229323 -0.44413945924592 -0.96050110891089
 6  10.20085697129713  2.10334964696470  1.38562127552755
 6  11.05879671217122  0.08738791419142  2.56908747004700
 6 -11.25028952645265  0.01711335283528 -2.46354861306131
 6 -8.56804290459046  0.69888487088709 -0.22375599809981
 6  9.27010193949395 -0.37505528132813  0.10701078487849
 6  10.92246219171917 -1.27973093989399 -2.05734533923392
 6 -7.08803012591259  0.45799304110411 -0.24712680198020
 6  8.70698715511551 -1.60861065856586 -0.06908204920492
 6 -6.55826724822482 -0.93852260916092  0.24825771437144
 6  7.34512299979998 -2.05346821882188 -0.07055811811181
 6 -6.26990676667667  1.45838941344134 -0.51068292489249
 6  7.04810800500050 -3.51483520572057  0.01360157835784
 6  6.34054132313231 -1.16872716141614 -0.22041438383838
 6 -4.77538151185119  1.49396293549355 -0.57795870927093
 6  5.01842268816882 -1.50257810071007 -0.07692547274727
 6 -3.99876124852485  2.63154618081808 -0.81450263926393
 6 -2.64580501860186  2.74474243184318 -0.88858160596060
 6  4.01578554405441 -0.54396490259026 -0.28224774117412
 6  2.63489053765377 -0.76940141164116 -0.50847580018002
 6 -2.00323887408741  4.12754733733373 -1.14972411981198
 6 -1.77129421492149  1.51890463486349 -0.73171918831883
 6  1.70843938893889  0.31979354085409 -0.48072663456346
 6  2.10339366046605 -2.13101588888889 -0.42001963406341
 6 -0.44770702960296  1.47379870117012 -0.74676803660366
 6  0.33861869266927  0.34547621542154 -0.53771703250325
 1 -10.85725246674667  1.46678846414642  0.01529968476848
 1 -12.75417889098910 -1.48890890459046  2.65044293899390
 1 -11.03708137773777 -2.01485068006801  1.79915319791979
 1 -12.30601423502350 -3.22377148444844  0.62067692979298
 1 -9.81030643194319  0.39856153175318  2.59353797769777
 1 -10.99303947054706  1.85682875987599  2.36699142104210
 1 -11.54572216451645  0.31156457545755  3.50409458725873
 1 -14.12828403020302  0.49763576587659  0.65859232953295
 1 -13.58432420302030  0.85832744014401  2.34868887088709
 1 -12.85987467286729  1.81922554435444  1.33597408070807
 1  12.35711307800780  2.14147909740974  0.37726556975698
 1  13.09183361046104  1.95375941484148  1.94948254945495
 1 -12.67830130873087 -2.08747554405441 -1.80744493519352
 1  13.57963754855486 -0.48171791759176  1.10074040994099
 1 -9.54646701240124 -1.21797665666567  0.18440600060006
 1  13.57647279137914 -1.22775581488149 -1.01023617961796
 1  13.26775319281928  0.55015359325933 -1.52327225102510
 1  9.33139983758376  1.80111016281628  1.67331257865787
 1  10.25345720732073  2.82733533593359  0.49270618611861
 1  10.63834750805080  2.85586055775578  2.15509166016602
 1  11.55654849614961 -0.79814706330633  2.52456887828783
 1  9.84478944954495 -0.20180272127213  2.76099922802280
 1  11.56538743784378  0.84982277907791  3.26927187018702
 1 -10.33735623362336  0.36280619131913 -2.52111950765076
 1 -12.08556761306131  0.83703970247025 -2.54771183648365
 1 -11.67436528162816 -0.59370812211221 -3.20284804240424
 1 -14.67771104440444 -2.30252920552055  0.05694749094909
 1  8.61598066606661  0.55131535673567  0.51763440964096
 1 -8.89600476937694  1.76088774157416 -0.42161748214822
 1  11.55482121662166 -2.22873436943694 -2.20403325482548
 1  9.83007587398740 -1.39039514121412 -2.10958689268927
 1  11.38817811151115 -0.64187727782778 -2.82220816891689
 1  15.00572975327533  1.15955405520552  1.13982195109511
 1  9.43569334563456 -2.39998308000800 -0.13459990249025
 1 -5.44377883888389 -0.82441959265927  0.25754315111511
 1 -7.02008090619062 -1.04738671187119  1.28889114151415
 1 -7.01827806300630 -1.85334378257826 -0.40005822062206
 1 -6.76345863236324  2.46328512361236 -0.70732393409341
 1  6.65391894089409 -3.88208163076308  0.93316301200120
 1  6.52858020322032 -3.70755594339434 -0.81606119731973
 1  8.03537343474347 -4.07843402800280 -0.26018905160516
 1  6.59748817571757 -0.15043228262826 -0.60891301320132
 1 -4.28814104570457  0.59636930213021 -0.35528158575858
 1  4.66518012151215 -2.45917517051705  0.12837517671767
 1 -4.45234127982798  3.61721970377038 -0.76235589108911
 1  4.17530760696070  0.59040637953795 -0.45640485788579
 1 -1.22702246044604  4.25615706240624 -2.13024129602960
 1 -1.41492433083308  4.27093425072507 -0.38972093189319
 1 -2.92559204730473  5.02154456995700 -1.26806510021002
 1 -2.26501538193819  0.63381000650065 -0.45295002500250
 1  2.17008605070507  1.32921691089109 -0.58462547764777
 1  1.95999452715272 -2.50620702310231  0.68855723422342
 1  1.09074414571457 -2.24110340144014 -0.82327361246125
 1  2.74231698109811 -2.82614040124012 -1.04689893289329
 1  0.29798568346835  2.43264310401040 -0.79076606810681
 1 -0.20462335833583 -0.53764393419342 -0.59735039003900

