%nproc=4
%Mem=4GB
# td=(NStates=1) CAM-B3LYP/6-31G(d,p) 

TD

0 1
 8 -14.22340821602160 -1.83025140684068  0.45955621092109
 8  14.87834967176718  0.91880946754675  0.39708030393039
 6 -11.83030589018902  0.02631870677068  1.38283310331033
 6 -11.02457942044204  0.36569934093409 -0.01066735393539
 6 -12.13163864446445 -1.52369685408541  1.43577141844184
 6 -12.80103349684969 -2.03430449524952  0.25023917481748
 6 -11.72772806170617 -0.31432891119112 -1.14164965486549
 6  11.13586691729173  0.98219986248625  1.08628890859086
 6 -11.02407388058806  0.51937367616762  2.57074412511251
 6 -13.17344350675068  0.79355500240024  1.30351142794279
 6  12.47581476197620  1.59168859535954  0.74289167536754
 6 -12.44500548644865 -1.37958582638264 -1.13433620232023
 6  13.56210783168317  0.57173484608461  0.49420673957396
 6  10.72133160746075 -0.08634804500450  0.04902848794879
 6 -9.61803056695670 -0.11242409060906  0.06139614721472
 6  13.11288926652665 -0.07223444284428 -0.84282986928693
 6  11.68413150195019 -0.51732677797780 -0.94415947474747
 6  10.15149203480348  2.24119343134313  1.03715642904290
 6  10.99894072657266  0.29124830023002  2.43065362666267
 6 -11.46017051455146  0.29679132063206 -2.59046130433043
 6 -8.60303640394040  0.78214319671967 -0.18458208070807
 6  9.32437736703670 -0.39683745954595  0.01678176197620
 6  11.31413135863586 -1.38115108190819 -2.20466007070707
 6 -7.14365568846885  0.50402764456446 -0.15274736403640
 6  8.89040549694970 -1.72809260676068 -0.16133127412741
 6 -6.57832925442544 -0.88285704260426  0.22842573117312
 6  7.46880536803680 -2.22668554055406 -0.21301236353635
 6 -6.22266204220422  1.46440001450145 -0.47604946154615
 6  7.15079827402740 -3.67302102430243 -0.02332211401140
 6  6.44573184218422 -1.30012030073007 -0.36040838323832
 6 -4.82189616331633  1.37037057625763 -0.41035194859486
 6  5.02083292919292 -1.52613045594559 -0.12365014521452
 6 -3.99151052345235  2.48665169136914 -0.67803899289929
 6 -2.64119455755576  2.52748070567057 -0.68191093889389
 6  4.05593955945595 -0.61101160726073 -0.20631014741474
 6  2.72409945854585 -0.75853032453245  0.05123017041704
 6 -2.00124867506751  3.87740232283228 -1.13434258165817
 6 -1.79031611711171  1.42896564096410 -0.50371638803880
 6  1.74848339333933  0.26844840634063 -0.37853641554155
 6  2.20041336243624 -2.17262004930493  0.42805517341734
 6 -0.35455771467147  1.42266358765877 -0.52763612341234
 6  0.39363419421942  0.21511317911791 -0.38782204300430
 1 -10.98354509600960  1.40964274957496 -0.14186603180318
 1 -12.60965443854385 -1.60838085178518  2.45889378407841
 1 -11.16986465606561 -1.92852204720472  1.68173145574557
 1 -12.47723135673567 -3.20588969626963  0.05928079017902
 1 -10.06097149844985 -0.04270259465947  2.62619124302430
 1 -10.79407957455746  1.60677375437544  2.32068679057906
 1 -11.38697628992899  0.38804222322232  3.63724790259026
 1 -13.79155035683568  0.50062606490649  0.40602707300730
 1 -13.60225599619962  0.26029763716372  2.20817481948195
 1 -12.77801648704870  1.83301692349235  1.39372985628563
 1  12.69560692739274  2.43684863436344 -0.08142029882988
 1  12.74562898999900  2.25527956685669  1.57235483668367
 1 -12.56472995159516 -1.87176397289729 -2.18528271897190
 1  13.50034961976198 -0.29876962276228  1.18066840274027
 1 -9.40695306100610 -1.11853671267127  0.50639819981998
 1  13.88113325742574 -0.88930196949695 -1.11606676267627
 1  13.30436685418542  0.54624320222022 -1.72698262206221
 1  9.24660135773577  2.05476552835284  1.40110535793579
 1  10.12822468406841  2.66693929632963  0.11519843534353
 1  10.68529220252025  2.85554052575258  1.55918206920692
 1  11.90954379567957 -0.51911916051605  2.55605202660266
 1  10.03613858445845 -0.25096763776378  2.44179730783078
 1  11.19638053715371  0.85375317211721  3.46969191219122
 1 -10.35801829982998  0.50905081578158 -2.87713510921092
 1 -11.99799885618562  1.26951294979498 -2.69156622192219
 1 -11.90642848794879 -0.35591434273427 -3.23549130673067
 1 -14.82087536083608 -2.05281423402340 -0.26033423722372
 1  8.59365843384338  0.37662788798880  0.05556820302030
 1 -8.64600976987699  1.65507716051605 -0.66618193859386
 1  11.77591332583258 -2.46585808180818 -2.09909276077608
 1  10.19379224562456 -1.40352645434543 -2.38479441344134
 1  11.78805809950995 -0.84159724982498 -3.03424937303730
 1  15.41093027332733  1.33966206600660  1.05262323122312
 1  9.65113488978898 -2.48572165386539 -0.64957139963996
 1 -5.62100656165617 -0.83297044774477  0.48615601240124
 1 -7.01647054515452 -1.00606257945795  1.21527377977798
 1 -7.01915815101510 -1.68428687688769 -0.50880909570957
 1 -6.46605889238924  2.52984177927793 -0.81320452215221
 1  6.48521207020702 -3.72658608120812  0.81876157185719
 1  6.60836818201820 -4.26853204100410 -1.08999859105911
 1  8.01527142454245 -4.37748393299330  0.29355632293229
 1  6.77146557345735 -0.27387462686269 -0.65490761266127
 1 -4.36642887448745  0.27777744294429 -0.21912797039704
 1  4.78723232673267 -2.51148040104010  0.10351269046905
 1 -4.48309435513551  3.41759974177418 -1.02201185668567
 1  4.29778985518552  0.23680101900190 -0.48530774817482
 1 -1.62372213041304  3.77078852555255 -2.21611988388839
 1 -1.19739257765777  4.20309746704671 -0.39991195099510
 1 -2.84070355845585  4.58142055755576 -0.96143443714371
 1 -1.96827570797080  0.38826545204520 -0.41040577057706
 1  2.04086312841284  1.18520250945095 -0.71170818591859
 1  2.55813434113411 -2.48339474187419  1.35151352985299
 1  1.15009008030803 -2.28809810091009  0.81809052395239
 1  2.31242399179918 -2.90838862606261 -0.35929017201720
 1  0.12430831573157  2.37136697639764 -0.71355834733473
 1 -0.15110800680068 -0.73613378317832 -0.16134678967897

