%nproc=4
%Mem=4GB
# td=(NStates=1) CAM-B3LYP/6-31G(d,p) 

TD

0 1
 8 -14.26360223542354 -1.87157553925393  0.48924918021802
 8  14.74110594739474  0.97751533813381  0.04560515641564
 6 -11.77077993759376  0.06825290019002  1.29142396239624
 6 -11.06112307480748  0.33580635163516 -0.07709399659966
 6 -12.03277875847585 -1.48395287968797  1.47203504480448
 6 -12.84766816031603 -2.08678974377438  0.23464761566157
 6 -11.68585387428743 -0.38955643394339 -1.36972246214621
 6  11.24053738433843  0.93214485698570  1.10549082878288
 6 -10.94547602080208  0.51616335513551  2.45005205590559
 6 -13.08945510791079  0.86402204910491  1.27272834963496
 6  12.54030121062106  1.50657008350835  0.74080146634663
 6 -12.41052203810381 -1.50691855965597 -1.01938470717072
 6  13.51884350525052  0.49281695429543  0.25166248514851
 6  10.73231270557056 -0.01008041824182  0.01801538663866
 6 -9.57109587348735  0.09592674447445 -0.04118411081108
 6  13.06937491509151 -0.16202342174217 -1.06933251955195
 6  11.51473456225622 -0.44448949424943 -1.06864192299230
 6  10.18921580718072  2.15868518051805  1.33340605400540
 6  11.25582641514151  0.32245142054205  2.54504506580658
 6 -11.33097759525953  0.13048468996900 -2.74227648584859
 6 -8.50989709000900  0.97031201360136 -0.16566018851885
 6  9.30498542784278 -0.40334811061106  0.13915399919992
 6  11.15855580108011 -1.35704867166717 -2.18315792049205
 6 -7.17178850175018  0.50750799259926 -0.12829491879188
 6  8.83380983738374 -1.65369516701670 -0.13938907990799
 6 -6.80934235573557 -0.97611636853685 -0.06660377177718
 6  7.42747123462346 -2.13186605860586 -0.07477854015402
 6 -6.22159193519352  1.51279485398540 -0.14346620322032
 6  7.25107830203020 -3.55852957515752  0.07522774097410
 6  6.44757202620262 -1.30584087278728 -0.30813315571557
 6 -4.78310228392839  1.40830436963696 -0.32923383678368
 6  5.05381622752275 -1.51953979687969 -0.03614139433943
 6 -3.98336970937094  2.49151217741774 -0.60945213421342
 6 -2.57392783088309  2.56407436503650 -0.65487823562356
 6  4.00111407690769 -0.64817532363236 -0.26353586998700
 6  2.57768481708171 -0.86518098959896 -0.07385233783378
 6 -2.01296984718472  3.95050963356336 -0.91294044144414
 6 -1.71973905940594  1.46659940434043 -0.47902391879188
 6  1.76895544054405  0.19027058855886 -0.35404396629663
 6  2.18855217631763 -2.17797058435844  0.65427779567957
 6 -0.37781003990399  1.36387770907091 -0.66194955475548
 6  0.37955278607861  0.23288495629563 -0.20766402720272
 1 -11.03997073857386  1.41394317961796 -0.26230807600760
 1 -12.65640911401140 -1.61953196689669  2.29604749944994
 1 -11.11058872847285 -2.00266946194619  1.77470075267527
 1 -12.52668630223022 -3.25021412871287  0.23703856595660
 1 -9.82001740304031 -0.06046437083708  2.42129075297530
 1 -10.76710687728773  1.47674075107511  2.45601032293229
 1 -11.56842443474347  0.08419183818382  3.37696187398740
 1 -13.64840604240424  0.46062206450645  0.43852032233223
 1 -13.62649842044204  0.77313892129213  2.12402640464046
 1 -12.74576326172617  1.97935155695570  0.92826330963096
 1  12.49717708440844  2.21242619211921  0.10155799899990
 1  12.99412383948395  1.90109414831483  1.60166776797680
 1 -12.97634111271127 -2.21221801830183 -1.86848103880388
 1  13.62260184498450 -0.43921366716672  0.75502583848385
 1 -9.19273163886389 -0.95063992299230 -0.00457289728973
 1  13.64032917701770 -1.19460249954995 -1.22917807380738
 1  13.12428884638464  0.53772235013501 -1.97270719451945
 1  9.40205690329033  1.89160921272127  1.81487673507351
 1  9.80595245684568  2.48109071147115  0.26506342184218
 1  10.90873454675467  2.91490646234623  2.02797894889489
 1  11.94531737303731 -0.55629287788779  2.99340576197620
 1  10.18563353395339 -0.32993553455346  2.55777890599060
 1  11.54550544964496  1.22969076587659  3.11755669866987
 1 -10.25144764276428 -0.16125621492149 -3.04374176987699
 1 -11.48812786908691  1.27221321982198 -3.08810587588759
 1 -11.96722456755676 -0.65845459675968 -3.29037679527953
 1 -14.66528980228023 -2.27283623622362 -0.25579378317832
 1  8.65849491749175  0.32182240744074  0.53736638283828
 1 -8.61661683058306  2.01380303310331 -0.39075439583958
 1  11.50789652415242 -2.29845134113411 -2.08171102260226
 1  10.11152401880188 -1.34800090179018 -2.38079401340134
 1  11.57231652535254 -1.12570566066607 -3.22219816791679
 1  15.06814599489949  1.45080318011801  0.84793276217622
 1  9.55831560786079 -2.54595767746775 -0.40395683818382
 1 -5.57799226022602 -1.30535768646865 -0.20304290749075
 1 -7.16368526662666 -1.34274624782478  0.87089934233423
 1 -7.38532476767677 -1.66566501470147 -0.91519973477348
 1 -6.63278556505651  2.53611240634063 -0.25125832753275
 1  6.71395494449445 -3.87461088368837  0.95745544124413
 1  6.56312365756576 -3.90976616441644 -0.53691328252825
 1  8.33587348474848 -4.03499968456846  0.12151911921192
 1  6.69064749164916 -0.14789202860286 -0.54808693059306
 1 -4.39230146174617  0.45440510571057 -0.31302736033603
 1  4.74694829832983 -2.53673292629263  0.19107144634463
 1 -4.50221626732673  3.45586356815682 -0.78190784628463
 1  4.32834291049105  0.32032937183718 -0.48476769416942
 1 -1.45158491669167  3.88670011671167 -1.83720199209921
 1 -1.13976681508151  4.33729088638864 -0.26809876967697
 1 -2.67658714681468  4.68370078557856 -1.12397069076908
 1 -2.37717659805981  0.67058368386839 -0.26895162516252
 1  2.26613565566557  1.15730972017202 -0.53488050315032
 1  2.68297682538254 -2.36631303370337  1.51966034453445
 1  1.10309538083808 -2.25622491359136  0.97674638953895
 1  2.39088183758376 -3.06106389358936 -0.05828007100710
 1  0.37993387828783  2.09601944164416 -0.98702569406941
 1 -0.23936683268327 -0.64812498229823  0.11319066406641

