%nproc=4
%Mem=4GB
# td=(NStates=1) CAM-B3LYP/6-31G(d,p) 

TD

0 1
 8 -14.09144501970197 -2.14149253095310  0.39004926022602
 8  14.78697053385338  0.66244383098310  0.47722831873187
 6 -11.75988884848485 -0.08539246434643  1.38703352335234
 6 -10.94993195569557  0.34385715671567  0.04724843764376
 6 -11.98798427902790 -1.62053653805381  1.35516335763576
 6 -12.71182457595760 -2.18034909970997  0.14790894179418
 6 -11.60459574847485 -0.31764924322432 -1.16460195009501
 6  11.04972830343034  1.07486912941294  0.91013129282928
 6 -11.01061253445345  0.30993273207321  2.67718476917692
 6 -13.11290745314531  0.61015666256626  1.23419449624962
 6  12.48613579407941  1.57233666016602  0.72941032723272
 6 -12.43192417831783 -1.43268113591359 -1.07312008070807
 6  13.41307292819282  0.36525419801980  0.61564888378838
 6  10.79230870517052 -0.06117552775278 -0.01634804970497
 6 -9.56831559545955 -0.01032388058806  0.10559056665667
 6  13.10184816241624 -0.29342656205621 -0.82621820812081
 6  11.69067215601560 -0.68992403770377 -0.78681374017402
 6  10.02406929252925  2.20770008200820  0.61416412981298
 6  10.83236406890689  0.53177235263526  2.35157571887189
 6 -11.12770726822682  0.40239188068807 -2.47119937813781
 6 -8.55469156945695  0.89415439783978 -0.10968459095910
 6  9.26592152145214 -0.44339211501150 -0.03977389358936
 6  11.45463540904090 -1.61906487328733 -2.01522112681268
 6 -7.20289161206121  0.61172841464146 -0.07066915621562
 6  8.79152560896090 -1.71508130563056 -0.25972111311131
 6 -6.58970039153915 -0.76392514941494  0.19605249384939
 6  7.43971245874587 -2.14613748574858 -0.11069213151315
 6 -6.26339611561156  1.67843141764176 -0.23532538913891
 6  7.11846504070407 -3.55391911411141  0.26746696489649
 6  6.43465073407341 -1.22275256395640 -0.29036137853785
 6 -4.90231420512051  1.67980151935194 -0.25852676607661
 6  5.02322316821682 -1.43326116901690 -0.10478825902590
 6 -3.97892926532653  2.63801682788279 -0.60038122712271
 6 -2.60864130223022  2.69973793139314 -0.71180392819282
 6  4.04354832033203 -0.49052955905591 -0.42286180258026
 6  2.67280432903290 -0.73716818831883 -0.22601755435544
 6 -1.97418596879688  3.97353193579358 -1.12446159355936
 6 -1.79384647014701  1.54733747814781 -0.42204822122212
 6  1.73702224722472  0.29366092759276 -0.44525308720872
 6  2.03704702580258 -2.15497828512851  0.05656802470247
 6 -0.44482674157416  1.32765408670867 -0.57416077587759
 6  0.36645147594759  0.23702537033703 -0.35431869266927
 1 -11.04052079357936  1.32573435873587 -0.06880872607261
 1 -12.65440891399140 -1.87885789948995  2.26359425412541
 1 -11.23740140974097 -2.03069226422642  1.51714499709971
 1 -12.35717935153515 -3.19854896219622  0.05073993609361
 1 -10.26931233253325 -0.43522184658466  3.01957058095810
 1 -10.71492165876588  1.41294437143714  2.50669539143914
 1 -11.76487407970797  0.19518293729373  3.38819299709971
 1 -13.50878208000800  0.45823182548255  0.32822929322932
 1 -13.62963873447345  0.13580518791879  2.09632363436344
 1 -12.97431611701170  1.76422004380438  1.37970845414541
 1  12.71614898159816  2.09546449594960 -0.17975013181318
 1  12.68027245434543  2.23280731963196  1.76368396959696
 1 -12.82746622522252 -2.05094189068907 -2.01554574527453
 1  13.29346893169317 -0.31090083588359  1.45422575847585
 1 -9.13806617231723 -1.01947680668067  0.16588414841484
 1  13.79166431053105 -1.24085712501250 -0.86841199719972
 1  13.31933835133513  0.44979355725573 -1.60980090389039
 1  9.12138883648365  1.85300535233523  1.20542578997900
 1  9.76275813741374  2.42249485188519 -0.42383546804681
 1  10.37513118641864  3.31440641234123  0.99973612461246
 1  11.62874571587159 -0.12331958055806  2.31174759615962
 1  9.91817678827883  0.06438389738974  2.45582871097110
 1  10.96044694379438  1.40074787158716  3.13580852385238
 1 -9.97349984798480  0.38083799449945 -2.49803719941994
 1 -11.38257731403140  1.43026902540254 -2.50590765606561
 1 -11.27869571467147 -0.22567131843184 -3.26536429402940
 1 -14.54231750505051 -2.96437539013901 -0.32806100990099
 1  8.61413048104811  0.30125035023502  0.27307995419542
 1 -8.86330149904991  1.96462811561156 -0.31365668606861
 1  11.85523125762576 -2.50245174117412 -1.66084893639364
 1  10.36624949134914 -1.59407550925093 -2.13821975597560
 1  12.01030032373237 -1.41232432253225 -3.00241618971897
 1  15.19278845914591  1.08718681848185  1.31112908180818
 1  9.47353713001300 -2.72637571927193 -0.38768521102110
 1 -5.62579704070407 -0.60122727342734  0.12903029982998
 1 -7.27189608770877 -1.29500147334733  1.03244549694970
 1 -6.85879211441144 -1.48744719291929 -0.67529574437444
 1 -6.68613089958996  2.56959575467547 -0.30961416311631
 1  6.40020356935694 -3.77150057265727  1.08997869356936
 1  6.56125347054705 -3.90344553235324 -0.55449504070407
 1  7.95749564696470 -4.07613379797980  0.49240620792079
 1  6.68544697159716 -0.07634487388739 -0.39095121702170
 1 -4.46193842544255  0.78825849104910 -0.08702476007601
 1  4.65831943544354 -2.45330458345835  0.37233957315732
 1 -4.46974302000200  3.68718670047005 -0.75587524302430
 1  4.18306838303830  0.58091543044304 -0.43124234163416
 1 -1.09364912311231  3.78593003970397 -1.97922619451945
 1 -1.38263110151015  4.37626478377838 -0.33986594639464
 1 -2.82794228232823  4.82138455395540 -1.67176547024702
 1 -2.29285816621662  0.58242486798680  0.05744101410141
 1  2.30073911601160  1.17777176637664 -0.82808982408241
 1  2.09016754445445 -2.40900730313031  1.15662404090409
 1  1.03444851615162 -2.17851714281428 -0.16690797589759
 1  2.81812456185619 -2.70716850405041 -0.44901914491449
 1  0.15676156105611  2.33007284698470 -0.62767975947595
 1 -0.13712660866087 -0.66907707750775 -0.18481913691369

