%nproc=4
%Mem=4GB
# td=(NStates=1) CAM-B3LYP/6-31G(d,p) 

TD

0 1
 8 -14.13673954915492 -1.91113949564956  0.54692494779478
 8  14.80062189898990  0.87684527112711  0.22669326522652
 6 -11.70494335393539 -0.02253617871787  1.35998081808181
 6 -10.99006596909691  0.29800257125713 -0.00134642184218
 6 -11.93490897149715 -1.53578806320632  1.47290513181318
 6 -12.79245263876388 -2.16739780458046  0.29088323922392
 6 -11.66498178707871 -0.54050152845285 -1.15575106500650
 6  11.09257258785878  0.90056169866987  1.03409368906891
 6 -10.80757223042304  0.36729846864686  2.52240929162916
 6 -13.02791895429543  0.88945459235924  1.39991106790679
 6  12.62674985548555  1.37199662616262  0.77323470967097
 6 -12.44179516541654 -1.63778164596460 -1.03680644934493
 6  13.46487810871087  0.35138281088109  0.40856817571757
 6  10.71434090839084 -0.09387879807981 -0.00751716661666
 6 -9.50477924182418 -0.19808265646565 -0.02180217261726
 6  13.04357233483348 -0.33904112351235 -0.93990957725773
 6  11.54209729852985 -0.64990003530353 -0.87718277707771
 6  10.26158304390439  2.16093540554055  0.99944265766577
 6  11.01225205770577  0.41521069646965  2.56021658295830
 6 -11.29025352285229  0.17752939443944 -2.45126738493849
 6 -8.59272537283728  0.71965694809481 -0.04044766726673
 6  9.34979990929093 -0.52946072187219  0.04839492329233
 6  11.18499844534453 -1.45925889268927 -2.05479508420842
 6 -7.11062238513851  0.46734397619762 -0.20947303660366
 6  8.85371182758276 -1.66422622012201 -0.11059620062006
 6 -6.71680310181018 -0.88765752265227 -0.08721583298330
 6  7.40066855435543 -2.05736860886089  0.07144608230823
 6 -6.15664544054405  1.58053162766277 -0.48275013161316
 6  7.05390858505851 -3.48415213741374  0.31402162036204
 6  6.40842811181118 -1.14981527022702 -0.10940328272827
 6 -4.87746171987199  1.45190873007301 -0.52916382978298
 6  4.97906875277528 -1.36058390129013 -0.02380016021602
 6 -4.05823719611961  2.55189821602160 -0.65091628062806
 6 -2.65949638773877  2.65891384898490 -0.73523627142714
 6  4.00915488098810 -0.41063156925693 -0.18667818421842
 6  2.62837988658866 -0.66011048254825 -0.29632458505851
 6 -1.99886843704370  4.05335991859186 -0.79737888528853
 6 -1.82721980748075  1.55534827922792 -0.54603061946195
 6  1.74519306430643  0.38462002350235 -0.45128369026903
 6  2.18204152525253 -2.11843463076308 -0.24248188028803
 6 -0.38708096699670  1.58252957425743 -0.63020638043804
 6  0.45698052885289  0.42002367016702 -0.50482374317432
 1 -11.20764750625062  1.36991877717772 -0.23612545774577
 1 -12.41763523662366 -1.63715372907291  2.29014690939094
 1 -11.17911558115811 -2.31689088408841  1.57752103470347
 1 -12.62250588418842 -3.26644575187519  0.38119298139814
 1 -9.82780818211821  0.01088276387639  2.47358598249825
 1 -10.62643280988099  1.27504058105811  2.47132185408541
 1 -11.30074766706671  0.39207262626263  3.48592277007701
 1 -13.73806500830083  0.76327232953295  0.58775524582458
 1 -13.39126489708971  0.73088469586959  2.44578858085809
 1 -12.51342002740274  1.85384900670067  1.38655913921392
 1  12.62983034973497  2.32307725722572  0.17268511171117
 1  12.79806423352335  1.87577161606161  1.61328893009301
 1 -12.94301778037804 -1.90003680018002 -2.00791498219822
 1  13.55485507030703 -0.41511125692569  1.10317065296530
 1 -9.49363172887289 -1.24101896089609 -0.13777621762176
 1  13.75904104820482 -1.23047608690869 -0.94658981498150
 1  13.19779619711971  0.23450202810281 -1.96396632043204
 1  9.33619031663166  1.93884393619362  1.39729497689769
 1  9.95471733333333  2.62978558095810 -0.00957404190419
 1  10.86915058835883  2.67756272797280  1.70287643864386
 1  11.88028086938694 -0.37565481408141  2.75222164356436
 1  10.23830880148015 -0.31553409440944  2.92843597169717
 1  11.30970186928693  1.22095989278928  3.13881882488249
 1 -10.23953645164517  0.16486639733973 -2.57202459815982
 1 -11.64878393469347  1.39582558105811 -2.29281634693469
 1 -11.83530137523752 -0.12444119541954 -3.43535129272927
 1 -14.81461473477348 -1.93250220282028 -0.34940314411441
 1  8.54914398239824  0.26959718491849  0.28407105330533
 1 -9.09937510641064  1.61125277807781 -0.13034835523552
 1  11.40325606010601 -2.56895839183918 -1.83181603310331
 1  10.24541740814082 -1.58633473517352 -2.35852178617862
 1  11.80577987168717 -1.25230832093209 -2.79939588768877
 1  14.87441662196220  1.48268636843684  1.03655162406241
 1  9.56378615491549 -2.52221530323032 -0.04671111361136
 1 -5.62274673567357 -1.17450460116012 -0.25691829502950
 1 -6.94607350545054 -1.33719569276928  0.95385763816382
 1 -7.34960119531953 -1.62468091629163 -0.74659287408741
 1 -6.85106739323932  2.50738953405340 -0.54481768346835
 1  6.22590613961396 -3.61984540714071  1.33567326302630
 1  6.51819916511651 -4.02632782058206 -0.56343593479348
 1  7.95451534893489 -4.16695287988799  0.74332129942994
 1  6.44557298419842 -0.06728396779678 -0.11940406230623
 1 -4.32448468006801  0.43945361056106 -0.39644570217022
 1  4.50182378587859 -2.30800005300530 -0.01196885768577
 1 -4.54768081378138  3.38271625342534 -0.74404405990599
 1  4.44818489468947  0.59738707760776 -0.20732995039504
 1 -1.19617937613761  4.18027947464746 -1.63125139703970
 1 -1.65108794719472  4.21833899119912  0.14311235143514
 1 -2.70494998309831  4.84679709520952 -0.96804509820982
 1 -2.20641952235224  0.61781840734073 -0.25622035203520
 1  2.13430247234724  1.24544853405341 -0.69490650575057
 1  2.15138366606661 -2.29929633203320  0.95696407490749
 1  1.13372844414441 -2.18271756285629 -0.42043332843284
 1  2.98259100850085 -2.92274006120612 -0.60413465646565
 1 -0.09627374247425  2.57728756845685 -0.84971196269627
 1 -0.06796969296930 -0.34765493529353 -0.46527718271827

