%nproc=4
%Mem=4GB
# td=(NStates=1) CAM-B3LYP/6-31G(d,p) 

TD

0 1
 8 -14.07976385158516 -2.01920030173017  0.42656291159116
 8  14.74907674447445  0.92356994359436  0.29454004990499
 6 -11.74155701530153  0.07543361826183  1.28397321732173
 6 -10.94433139563956  0.36133890489049 -0.11575786298630
 6 -12.01790727132713 -1.35477996239624  1.35324316561656
 6 -12.67886127962796 -2.04308537333733  0.20875502640264
 6 -11.58228351725172 -0.32169964826483 -1.30254574447445
 6  11.07832116271627  1.13008465096510  0.88670895059506
 6 -11.03868534173417  0.50126186498650  2.47063411411141
 6 -13.06806296869687  0.84646029292929  1.10829190599060
 6  12.58663584408441  1.49480890739074  0.77682506870687
 6 -12.31476246214621 -1.40225809360936 -1.07679044774477
 6  13.50805242614261  0.31809948254826  0.49692701160116
 6  10.63825329962996  0.03584417421742 -0.14792120702070
 6 -9.54665342924292 -0.02322517071707  0.01455146274627
 6  12.98610658825882 -0.22160938033803 -0.89772535883588
 6  11.53912700150015 -0.53348839413941 -0.95160021882188
 6  10.08900578617862  2.31555086708671  0.91282399579958
 6  10.83038387088709  0.49800897629763  2.34091465276528
 6 -11.22717721522152  0.16834847634763 -2.60529278747875
 6 -8.58109420972097  0.91785676807681  0.00968734623462
 6  9.25755068436844 -0.33170094589459  0.02409249304930
 6  11.15798574407441 -1.40027299409941 -2.11409101380138
 6 -7.16104742764276  0.46729397119712  0.00130804150415
 6  8.86699315571557 -1.69497929542954 -0.03898903990399
 6 -6.67853927542754 -0.88271702860286  0.27401028962896
 6  7.47932642014201 -2.14804767676768 -0.11312237453745
 6 -6.19434921092109  1.46656023052305 -0.24636649324932
 6  7.29782297649765 -3.61753547574757  0.09844006220622
 6  6.42582985198520 -1.30160044874487 -0.30633297569757
 6 -4.81383535723572  1.42488602780278 -0.28308922232223
 6  5.08893973987399 -1.64860270317032 -0.14703248344834
 6 -3.91452282468247  2.50529355555556 -0.46837802680268
 6 -2.55238567666767  2.48680663826383 -0.54376712451245
 6  3.94896886238624 -0.72559306540654 -0.26553607000700
 6  2.52467951655166 -0.86573104460446 -0.15585053765377
 6 -1.87314586478648  3.79166374897490 -0.91140028742874
 6 -1.82451953745375  1.39063180758076 -0.28841485788579
 6  1.68850739573957  0.31571313281328 -0.30440900280028
 6  2.06970029112911 -2.18650143744374  0.22035440334033
 6 -0.43715597449745  1.39425074637464 -0.53851721152115
 6  0.38341317211721  0.19042070987099 -0.35901916271627
 1 -10.86132287378738  1.47095888118812 -0.22012385758576
 1 -12.48792226532653 -1.50217023072307  2.25781367606761
 1 -10.91498916851685 -1.86801599659966  1.55561884448445
 1 -12.39646327992799 -3.19359846714671  0.20105496759676
 1 -10.01398679998000  0.29537121272127  2.69770839473947
 1 -10.75820598719872  1.66383946094609  2.31803652555256
 1 -11.98479607190719  0.75751917091709  3.40915509330933
 1 -13.70827202900290  0.20004600690069  0.46051252155216
 1 -13.45637140774078  0.78584019141914  2.01089509150915
 1 -12.95991467686768  2.03211683348335  0.70229071237124
 1  12.77154452115212  2.10584553405341 -0.09170132693269
 1  12.83354778187819  2.02390642954295  1.60320792199220
 1 -12.80945442404241 -1.66771356785679 -2.03004719541954
 1  13.50934051885189 -0.54168391419142  1.19686002190219
 1 -9.37922028772877 -1.18684354335434  0.13456101610161
 1  13.50797594169417 -1.15198823812381 -1.26901205720572
 1  13.33449986748675  0.54469304720472 -1.60659058285829
 1  9.15516221382138  2.21442149394939  1.24769001640164
 1  9.96877873947395  2.67021962436244 -0.15864894939494
 1  10.47311098439844  3.16594156585659  1.46406255725573
 1  11.51582442374237 -0.31791904050405  2.43123954535454
 1  9.94286925752575  0.23634109310931  2.68949207730773
 1  10.93054395349535  1.25257305410541  2.90753569656966
 1 -10.24114661266127  0.35125503620362 -2.90572796849685
 1 -11.74920397669767  1.12033803230323 -2.70032709800980
 1 -11.45786363146315 -0.52339109040904 -3.52041979957996
 1 -14.55458873217322 -2.47472642524252 -0.38154635843584
 1  8.48701776977698  0.45461568676868 -0.05753310711071
 1 -8.87222239113911  1.96626827962796 -0.37261258165817
 1  11.75545127962796 -2.45535703170317 -2.16772962446245
 1  10.01528439483948 -1.43853995569557 -2.10972690669067
 1  11.38365765946595 -0.76491958205821 -3.10036598469847
 1  15.11250043034303  1.14637273707371  1.21632960186019
 1  9.54880465676568 -2.50902398409841  0.03307686518652
 1 -5.72060652165217 -1.00102725342534  0.15645304210421
 1 -6.99139803790379 -1.12217419061906  1.25507776017602
 1 -7.38537477267727 -1.46700514871487 -0.34850306510651
 1 -6.71324361086109  2.40105890099010 -0.47076027772777
 1  7.07019056805681 -4.01136455905591  1.02414210991099
 1  6.63285063026303 -4.18362355015502 -0.61107069826983
 1  8.15903580098010 -4.26641282588259  0.05708267556756
 1  6.59179760666067 -0.10416765616562 -0.71678380028003
 1 -4.16992922452245  0.54151381658166 -0.25142119971997
 1  4.91900550405041 -2.64377363036304  0.15295763496350
 1 -4.54448049374937  3.31031901370137 -0.67222687818782
 1  4.17248732493249  0.36542388128813 -0.31234045144514
 1 -1.22744250245025  3.70380182688269 -1.79215748764876
 1 -1.35112795119512  4.23130028732873  0.05744378457846
 1 -2.57735722382238  4.77613002850285 -1.26045433913391
 1 -2.21689056945695  0.42886951245125  0.01129639963996
 1  2.18197723982398  1.33488747794779 -0.61669868496850
 1  2.92389091679168 -2.73438984138414  1.08739711821182
 1  0.81757682898290 -2.15272456355636  0.63606232113211
 1  2.07726047544754 -2.85380316751675 -0.87258150115011
 1  0.11317720262026  2.26733657335734 -0.80536752825283
 1 -0.18540143614361 -0.57238740854085 -0.16836749174917

