%nproc=4
%Mem=4GB
# td=(NStates=1) CAM-B3LYP/6-31G(d,p) 

TD

0 1
 8 -14.17475335053505 -2.08124650635063  0.53611386668667
 8  14.77489932673267  0.84165175177518  0.09326992289229
 6 -11.83804666426643  0.08036411131113  1.19533435343534
 6 -11.00996795929593  0.36045881688169 -0.05305159235924
 6 -11.99667514811481 -1.41482596699670  1.46137397869787
 6 -12.68376176967697 -2.14456552135214  0.32324647554755
 6 -11.60263555245525 -0.40028750705071 -1.20806629652965
 6  11.14307763836384  0.91001264376438  1.09875015471547
 6 -11.06235770897090  0.51371311011101  2.42794984568457
 6 -13.12733889628963  0.83124877177718  1.17547862466247
 6  12.51953913441344  1.46728615511551  0.80158754495450
 6 -12.31121210711071 -1.50210807860786 -1.00579334803480
 6  13.45768738963896  0.34074174677468  0.33065038393839
 6  10.71686116041604 -0.09805921612161  0.04659824492449
 6 -9.49500826472647 -0.10233308150815 -0.02069206160616
 6  13.05868384598460 -0.15548276767677 -1.02844843114311
 6  11.57178026682668 -0.62684773007301 -0.99084414321432
 6  10.07843472907291  2.12690200220022  1.19806251965197
 6  11.08863969646965  0.24490366576658  2.45512607390739
 6 -11.29116361386139  0.14453609510951 -2.61538379657966
 6 -8.46590269056906  0.72832781518152 -0.07268089058906
 6  9.29916484578458 -0.46518429422942  0.12087217101710
 6  11.23529347484748 -1.43258622542254 -2.08107771247125
 6 -7.07547887078708  0.45162240404040 -0.10446253555356
 6  8.72701915831583 -1.70623042054205 -0.04996013701370
 6 -6.62111353285329 -0.94701345824582  0.19973286188619
 6  7.33765225272527 -2.07005987798780  0.03019195689569
 6 -6.16810658665867  1.52988656315632 -0.21607346394639
 6  7.03032622682268 -3.53033675587559  0.07781800000000
 6  6.43905117411741 -1.10242053075308 -0.15080742314231
 6 -4.81102507620762  1.33976751595160 -0.27870878427843
 6  5.03896474237424 -1.37638548144814 -0.10786856705671
 6 -4.07873924632463  2.50364339053905 -0.68339952895290
 6 -2.65681611971197  2.61719967756776 -0.69518226602660
 6  4.09703366886689 -0.43359386548655 -0.26896641304130
 6  2.67036408500850 -0.63798827032703 -0.28387333993399
 6 -2.02062061226123  3.95251983458346 -1.04540368776878
 6 -1.77833491899190  1.52264500890089 -0.46356237263726
 6  1.82410095509551  0.44213577507751 -0.33793235513551
 6  2.15701902300230 -2.15983877117712 -0.01388902100210
 6 -0.42780503940394  1.49141046234623 -0.51323468326833
 6  0.40272510331033  0.32464413221322 -0.32645590639064
 1 -11.02246898839884  1.47892967826783 -0.13831567676768
 1 -12.34581805490549 -1.58482849654966  2.29456735143514
 1 -10.98701637123712 -2.06775597059706  1.58612189478948
 1 -12.38540217381738 -3.03937304460446  0.45099996209621
 1 -10.18973437473747  0.01314298989899  2.51815043894389
 1 -10.53921408800880  1.62390546754676  2.30460518241824
 1 -11.56993458575858  0.89314273327333  3.41771594939494
 1 -13.72671387318732  0.63667967026703  0.23708017831783
 1 -13.72182795339534  0.70379198659866  2.21616561856186
 1 -12.98079676507651  1.91665528732873  0.91989247254726
 1  12.34402176887689  2.10869581908191  0.05206304950495
 1  12.83224765186519  1.88540257915792  1.74080168136814
 1 -12.56677015561556 -2.19303610011001 -1.87606179687969
 1  13.45498508330833 -0.36451619741974  1.00007034293429
 1 -9.28340070577058 -1.08451331033103 -0.08970141014101
 1  13.69503464756476 -1.03642668196820 -1.25204036003600
 1  13.23839025652565  0.54168274617462 -1.67307723152315
 1  9.09445614321432  2.00173022482248  1.66202144954496
 1  9.94312617421742  2.43307590999100  0.26675359085909
 1  10.69097277057706  2.95948091979198  1.82762891389139
 1  11.79971281258126 -0.55673292189219  2.78637505890589
 1  10.03304827542754 -0.19275181618162  2.49264239233923
 1  11.24135503460346  1.12411020782078  3.03019796279628
 1 -10.08724122212221  0.48406831753175 -2.66168356405641
 1 -11.84395345164516  1.05621161966197 -2.69233629892989
 1 -11.74233207830783 -0.41209996129613 -3.27565532313231
 1 -14.71727500080008 -2.33977292989299 -0.27941614541454
 1  8.76656572457246  0.27944817001700  0.76009865606561
 1 -8.80481565046505  1.73041469426943 -0.30631595199520
 1  11.68791452595260 -2.40711220722072 -1.84910776227623
 1  10.18497136353635 -1.59586568826883 -2.30576651065106
 1  11.79329862356236 -1.06498958905891 -2.96059200730073
 1  15.17427660796080  1.13544164396440  0.93860182908291
 1  9.59411918821882 -2.61998508020802 -0.08814525702570
 1 -5.62338679967997 -1.29436658735874  0.24422181898190
 1 -7.14082298039804 -1.17181915511551  1.10729298169817
 1 -6.98771500670067 -1.63670211841184 -0.61567978277828
 1 -6.77643993049305  2.55344413951395 -0.33590679237924
 1  6.68057160616062 -3.75861928452845  1.16548624432443
 1  6.44795214041404 -3.66234142194220 -0.80350994219422
 1  8.13934383178318 -4.16494267886789  0.01636860416042
 1  6.53493192009201 -0.01756899629963 -0.37716983888389
 1 -4.26307853945395  0.33667333253325  0.01277521992199
 1  4.75511911541154 -2.42939219221922  0.19594193339334
 1 -4.49098514421442  3.43100108190819 -1.15713536903690
 1  4.41343141934193  0.73002034093409 -0.56509572697270
 1 -1.78086784498450  4.07000844754475 -2.21764003590359
 1 -1.00382322072207  4.15218237553755 -0.46732869266927
 1 -2.80002949104910  4.85480789628963 -0.84239253295330
 1 -2.28708758915892  0.50739736523652 -0.06140087008701
 1  2.20268931103110  1.33956794599460 -0.78791580668067
 1  2.56629515721572 -2.68021442384239  1.04695307380738
 1  1.09072414371437 -2.05122441354135  0.02535125002500
 1  2.54469721912191 -2.87717550475047 -0.86446068906891
 1 -0.01384549964996  2.41241108080808 -0.87462445394539
 1  0.10287739173917 -0.64786495629563  0.09817916291629

