%nproc=4
%Mem=4GB
# td=(NStates=1) CAM-B3LYP/6-31G(d,p) 

TD

0 1
 8 -14.21727760296030 -1.90617899959996  0.72981323662366
 8  14.76928876567657  0.94256184278428  0.58563915981598
 6 -11.78956181578158  0.09741581648165  1.46345116511651
 6 -10.99669663216322  0.28934170517052  0.06906061886189
 6 -11.98083356395639 -1.45943042744274  1.58136597789779
 6 -12.78142153565357 -2.06718778357836  0.40441459235924
 6 -11.57792308120812 -0.41654913321332 -1.09338482838284
 6  11.06976030663066  1.05016665916592  1.22216249594959
 6 -10.91610308350835  0.59484122292229  2.55146219691969
 6 -13.00417658005801  0.94568021492149  1.31043212001200
 6  12.48836601710171  1.62121154765477  0.88691607780778
 6 -12.33863484938494 -1.52123999179918 -0.98369113781378
 6  13.48125974687469  0.39390706330633  0.60981830073007
 6  10.68601807610761  0.05284587438744  0.13114669976998
 6 -9.40622938683868 -0.00889373757376  0.18581858945895
 6  13.13121109870987 -0.21745896529653 -0.68937452375237
 6  11.63312640144014 -0.47647269256926 -0.73864892369237
 6  10.14234111971197  2.19886919891989  1.26580929432943
 6  11.10680151265126  0.30079925532553  2.59766032733273
 6 -11.29808430593059  0.01412305380538 -2.47529978817882
 6 -8.41918801910191  0.83080806320632 -0.10864448694869
 6  9.27693262256226 -0.37474525032503  0.01316139993999
 6  11.19500944644464 -1.46990995779578 -1.72219182388239
 6 -7.09536085898590  0.52418966076608 -0.09878196749675
 6  8.77305376177618 -1.63291308880888 -0.06751189218922
 6 -6.67191861336134 -0.93662241914191  0.26425931453145
 6  7.37702619011901 -2.03043591559156 -0.22340340264026
 6 -6.22333210921092  1.48166174067407 -0.29477133373337
 6  7.15797899209921 -3.43055677787779  0.09443966216622
 6  6.30652792179218 -1.23840412911291 -0.56279862226223
 6 -4.70350432413241  1.46801034023402 -0.37785869926993
 6  4.97094794069407 -1.64621246414641 -0.62278005820582
 6 -3.97054842724272  2.56170919711971 -0.60355154415442
 6 -2.55407584568457  2.54922287988799 -0.77177992579258
 6  3.98494245974597 -0.74487499359936 -0.68664818121812
 6  2.59236628522852 -0.87338180968097 -0.63861881448145
 6 -1.98502705290529  3.99162374497450 -0.87565671307131
 6 -1.75878296379638  1.47791053545355 -0.83130914731473
 6  1.73912245724572  0.17701926342634 -0.83546210811081
 6  2.02703602470247 -2.23010579787979 -0.35504313641364
 6 -0.39469172807281  1.36618794009401 -0.92737609740974
 6  0.26466129692969  0.24641630943094 -0.87239049984998
 1 -11.05783252475247  1.43560534583458 -0.04920676587659
 1 -12.65769924302430 -1.49072908660866  2.44950284498450
 1 -11.07371504110411 -1.94253344834483  1.67910119271927
 1 -12.73076671027103 -3.26142524982498  0.40476533863386
 1 -9.99713511481148  0.07145882148215  2.74792341624162
 1 -10.69391955855586  1.57313039003900  2.43292801470147
 1 -11.51123871617162  0.64456787578758  3.39462364016402
 1 -13.76307750955096  0.69430543284328  0.62353882418242
 1 -13.66253202380238  0.89423103050305  2.23581758375838
 1 -12.46157484288429  1.95157877967797  0.99617010031003
 1  12.34424179087909  2.25198014751475  0.04201204440444
 1  12.79094352145214  2.28807284618462  1.78144574577458
 1 -12.86815029362936 -2.11017781428143 -1.61559575027503
 1  13.39210879567957 -0.37910765656566  1.37581791769177
 1 -8.96826919261926 -1.02195705470547  0.49431699169917
 1  13.74630977507751 -1.15949898919892 -0.98435359135914
 1  13.50257667516752  0.45625420332033 -1.51054097789779
 1  8.93955065266527  1.79998004980498  1.15923117051705
 1  10.26795865746575  2.92500510291029  0.41541845734573
 1  10.33560723402340  2.88033300500050  2.21757790879088
 1  11.61008384968497 -0.50578782738274  2.58548496989699
 1  10.01692666326633  0.01081854085409  2.62018514661466
 1  11.42302320142014  0.91402919971997  3.46105104810481
 1 -10.34967746574658 -0.11842193149315 -2.86284368006801
 1 -11.63500255655566  1.07760375887589 -2.69602666796680
 1 -11.64095194029403 -0.77774652595260 -3.25569332693269
 1 -14.78456172947295 -2.29647860046005  0.06531832803280
 1  8.59219828782878  0.62011223642364  0.09551219741974
 1 -8.74465963486349  1.90978263106311 -0.37909322972297
 1  11.26827256175618 -2.51878337433743 -1.42253510501050
 1  10.01812467886789 -1.29416551825183 -1.85129106310631
 1  12.01711100480048 -1.46945003510351 -2.65003095119512
 1  15.01641082138214  1.23803190299030  1.56381435033503
 1  9.38958873517352 -2.47271035273527 -0.00614705720572
 1 -5.66160062106211 -1.22684983568357  0.19521691849185
 1 -6.90586948504850 -1.24187616081608  1.33345559795980
 1 -6.94283051825183 -1.81997044524452 -0.40791900670067
 1 -6.67418970547055  2.34780357545755 -0.60904410611061
 1  6.16861041004100 -3.46135955855586  0.96333602930293
 1  6.66181352655266 -4.05167035483548 -0.86444603580358
 1  8.08504840224022 -4.22069825442544  0.65454242154215
 1  6.54566299319932 -0.06645388478848 -0.74873699559956
 1 -4.27933016461646  0.45829549474947 -0.33290934853485
 1  4.77459106260626 -2.68304755775578 -0.10614827562756
 1 -4.42028807450745  3.30560854265426 -0.81015067056706
 1  4.53199327552755  0.18370570947095 -1.04348356575658
 1 -1.65884564276428  4.32210365706571 -1.91497976987699
 1 -1.14556739513951  4.08556571387139 -0.19828178797880
 1 -2.70667015511551  4.88335075057506 -0.57898619231923
 1 -2.28419730013001  0.47781440694069 -1.01570630063006
 1  2.24229327142714  1.00022401160116 -1.07530454555456
 1  2.17567609530953 -2.52271867426743  0.65879425792579
 1  0.93538861016102 -2.20014930603060 -0.89238052315231
 1  2.74913766316632 -3.18857664486449 -0.79535377837784
 1  0.14761064596460  2.30620045974598 -0.83142013351335
 1 -0.24467736373637 -0.76980715051505 -0.64745540054005

