%nproc=4
%Mem=4GB
# td=(NStates=1) CAM-B3LYP/6-31G(d,p) 

TD

0 1
 8 -14.12839871507151 -1.92075045674567  0.77881813711371
 8  14.80895273207321  0.94229181578158  0.30265086098610
 6 -11.78677153675368  0.21917799269927  1.37413223322332
 6 -11.08660562306231  0.48856162716272 -0.04115040224022
 6 -12.00870635123512 -1.35089957435744  1.56110395169517
 6 -12.73598699219922 -2.06312737753775  0.32814696559656
 6 -11.68616390529053 -0.33134061236124 -1.17806329622962
 6  11.05879921052105  0.99562120462046  1.12929320902090
 6 -10.95423689688969  0.72943468226823  2.50056710741074
 6 -13.15632179457946  0.89715536243624  1.26334741154115
 6  12.54005118561856  1.61239066556656  0.79406679287929
 6 -12.51710269616962 -1.35333320112011 -1.01253402210221
 6  13.39729135003500  0.59615728832883  0.46147346624662
 6  10.70024949924992 -0.07818722892289  0.03287687278728
 6 -9.54644340824082  0.03448059985999 -0.04662465486549
 6  12.96560453805380 -0.06742396179618 -0.82900848714872
 6  11.58038112691269 -0.42794784008401 -0.88135319411941
 6  10.11944883048305  2.25587489948995  1.15543825722572
 6  10.96778761126113  0.38974815021502  2.49866042734273
 6 -11.24208870637064  0.11698333983398 -2.57376963516352
 6 -8.51667776807681  0.86543152555256 -0.13544716721672
 6  9.26653158245825 -0.41228900470047  0.15845592939294
 6  11.20071001650165 -1.16137910471047 -2.05163476817682
 6 -7.15458678157816  0.42553979577958 -0.15031712101210
 6  8.90777723412341 -1.72787258475848 -0.20567570857086
 6 -6.75700712221222 -0.96163492039204 -0.05415252665267
 6  7.43080156765677 -2.19291216321632 -0.20466152845285
 6 -6.15955573157316  1.36053962846285 -0.47202905950595
 6  7.37432062626263 -3.65119884208421 -0.06131591339134
 6  6.44307157615762 -1.28297858655866 -0.29430177257726
 6 -4.79452342604260  1.34586812601260 -0.64656556995700
 6  5.00508135403540 -1.65908375127513 -0.15615339553955
 6 -3.93243461586159  2.38714174037404 -0.73693488248825
 6 -2.47711814991499  2.43164112171217 -0.71156390419042
 6  3.99593355885589 -0.65872637873787 -0.27519703610361
 6  2.68352540114011 -0.87712218371837 -0.18560351295129
 6 -1.86625517571757  3.71852643524352 -0.77595674307431
 6 -1.80071715721572  1.21455419981998 -0.56893290969097
 6  1.75664420942094  0.18770033153315 -0.44682324422442
 6  2.07318063916392 -2.24996778407841 -0.02531016311631
 6 -0.45398765766577  1.23571489278928 -0.53607696749675
 6  0.44683951475147  0.24577624542454 -0.50226348714872
 1 -11.07345408690869  1.52532431773177 -0.21505335053505
 1 -12.52175564866487 -1.40775078877888  2.50758865356536
 1 -11.07946561616161 -1.77632682768277  1.50892417501750
 1 -12.46045967956796 -3.08199730703070  0.71611647374738
 1 -9.89839524082408  0.40857253285328  2.49500812471247
 1 -10.67539770637064  1.93423650065007  2.40818554045405
 1 -11.41063865616562  0.40983440244024  3.46424060186019
 1 -13.76420762256225  0.57776377867787  0.44812128242824
 1 -13.85830160076008  0.48602020942094  1.98208221022102
 1 -13.07149583498350  1.93011663346335  1.14015449874988
 1  12.45109247594760  2.64282923242324  0.17920576377638
 1  12.70508493559356  1.98117215611561  1.83574117531753
 1 -12.96536001460146 -1.88908570507051 -1.95216940764076
 1  13.39515910071007 -0.18017776357636  1.11379171507151
 1 -9.44186655235523 -1.19434429342934  0.02886044604460
 1  13.78543368746875 -0.81514455375538 -1.02505766176618
 1  13.30479689718972  0.61485006290629 -1.81519144294429
 1  9.14086078367837  1.86706675847585  1.59602484988499
 1  9.99835169676968  2.72516511891189  0.16273318881888
 1  10.46254992829283  3.20091506320632  1.82084823582358
 1  11.53020586188619 -0.56904415301530  2.49883630503050
 1  9.94009898049805 -0.09197173817382  2.61798492659266
 1  11.01378227732773  1.06127392419242  3.41851679467947
 1 -10.16814931293129  0.18166807750775 -2.77980537623762
 1 -11.76077513381338  0.95577157565757 -2.86847391269127
 1 -11.73647149224922 -0.58401715301530 -3.41477923552355
 1 -14.68810208350835 -2.10690964356436  0.13002479867987
 1  8.58308737673767  0.29123934913491  0.78720136633663
 1 -8.67700286918692  1.99135078787879  0.07576225582558
 1  11.45049078357836 -2.17516901290129 -1.99486233773377
 1  10.03398626502650 -1.09180528222822 -2.20853678767877
 1  11.77831712541254 -0.86460955105511 -2.83091904000400
 1  15.00856003630363  1.35500360016002  1.22645061396140
 1  9.73345312161216 -2.29993307500750 -0.42425886838684
 1 -5.62522698369837 -1.04439158985899 -0.16265886908691
 1 -7.17647654575458 -1.25159713291329  1.06987924032403
 1 -7.40726696189619 -1.64641308950895 -0.68778699349935
 1 -6.60224251075107  2.32231102620262 -0.45269847154715
 1  7.14640818981898 -4.19742316491649  0.87993768946895
 1  6.82720006520652 -3.90700588838884 -0.81626121732173
 1  8.33083298069807 -4.17260344494449 -0.06110914361436
 1  6.57299572647265 -0.18544578397840 -0.56302842474247
 1 -4.44573680528053  0.26817648284828 -0.65508156575658
 1  4.80611421492149 -2.48690794379438  0.10141248044804
 1 -4.45994203990399  3.48151613341334 -0.52505216071607
 1  4.35622569876988  0.28964630353035 -0.32285150255025
 1 -1.16097585578558  3.82396384308431 -1.47169544144414
 1 -1.30932377077708  4.00489764706471  0.12103014321432
 1 -2.53562305040504  4.45874829032903 -0.96606490019002
 1 -2.26231511191119  0.33806043154315 -0.27113184318432
 1  2.19881892399240  1.13866785598560 -0.34249126422642
 1  2.26698522622262 -2.96859326172617  0.85638401690169
 1  0.98802387368737 -2.25263455455546  0.00092880778078
 1  2.44225697509751 -2.90398818601860 -0.89739398239824
 1 -0.00857497259726  2.14971481118112 -0.77268425992599
 1  0.01506861086109 -0.90658082788279 -0.32494314931493

