%nproc=4
%Mem=4GB
# td=(NStates=1) CAM-B3LYP/6-31G(d,p) 

TD

0 1
 8 -14.05191106630663 -2.22758113981398  0.61551180648065
 8  14.87557939473947  0.77930551715172  0.34581517741774
 6 -11.68932179177918 -0.00078400350035  1.29031385138514
 6 -10.96424338683868  0.26095886688669  0.01295500830083
 6 -11.83906938753875 -1.47354183858386  1.44038187948795
 6 -12.61467486098610 -2.13401446624662  0.35307945884588
 6 -11.57035232413241 -0.42012949124912 -1.18897438733873
 6  11.11565489608961  1.11277291979198  0.93539381908191
 6 -10.84720619381938  0.51165290409041  2.50399745044504
 6 -13.03201936433643  0.67921356825683  1.30313138993899
 6  12.47344452495250  1.58246767326733  0.80144753095310
 6 -12.25052603850385 -1.54084195199520 -0.97298006670667
 6  13.57540916181618  0.34236190879088  0.53302062096210
 6  10.52446192049205 -0.07234664486449 -0.06462287718772
 6 -9.55976474037404 -0.06101895009501 -0.00771076347635
 6  13.07100507810781 -0.41721894129413 -0.65485107140714
 6  11.49690277907791 -0.61484652995300 -0.82877793659366
 6  10.25082196779678  2.36172548454845  0.94238695209521
 6  10.90832166466647  0.44003317871787  2.35286584788479
 6 -11.39526402390239  0.21274291579158 -2.48664092229223
 6 -8.58555465576558  0.85289027142714 -0.09555317781778
 6  9.17369229852985 -0.45433320912091  0.11030111391139
 6  11.20056000150015 -1.61896486328633 -1.89325893059306
 6 -7.09790111301130  0.61240848264826 -0.24095618491849
 6  8.69708616501650 -1.68095789328933 -0.31792693369337
 6 -6.69240066156616 -0.88045680258026 -0.10311742314231
 6  7.37808629612961 -2.09120199219922 -0.19133019531953
 6 -6.27151692769277  1.66034960946095 -0.33815567216722
 6  7.14318751295129 -3.55608933113311  0.10715093329333
 6  6.37102437143714 -1.15902619131913 -0.29883222562256
 6 -4.78606257995800  1.60179371857186 -0.46736765016502
 6  5.00786163206321 -1.54999284218422 -0.24672245244524
 6 -3.98449982238224  2.65639866606661 -0.72785397439744
 6 -2.59044948304830  2.71141909950995 -0.55494824262426
 6  3.99204316981698 -0.62213271937194 -0.38630814721472
 6  2.60875792439244 -0.86235070657066 -0.21884683728373
 6 -1.95937448764876  4.00906548914891 -0.86132527992799
 6 -1.76946403190319  1.57581032543254 -0.46725274167417
 6  1.76969551455146  0.28824038553855 -0.37906646854685
 6  2.00644396549655 -2.11856464376438  0.14297666556656
 6 -0.41106336523652  1.48883020432043 -0.55612897269727
 6  0.31599643044304  0.36511817961796 -0.33016627742774
 1 -11.15578231973197  1.34548633393339 -0.19652149734973
 1 -12.37509098219822 -1.72120213391339  2.35196309100910
 1 -10.79765743534353 -1.93511270627063  1.56418970157016
 1 -12.01119475307531 -3.21629073637364  0.06852171427143
 1 -9.90476587788779  0.07996967256726  2.63710233413341
 1 -10.83606377297730  1.54571764876488  2.57826254815482
 1 -11.26632422472247  0.03384680368037  3.65842001980198
 1 -13.65721692349235  0.50125612791279  0.38611508180818
 1 -13.59425519611961  0.47773938133813  2.16135013701370
 1 -12.85713439883988  1.78466208800880  1.31862234553455
 1  12.48302566926693  2.07961291079108 -0.15637779457946
 1  12.69816424352435  1.98653269216922  1.86196379757976
 1 -12.61481496009601 -1.82291908840884 -1.73092728342834
 1  13.42145172997300 -0.22133187898790  1.55306564246425
 1 -9.07656002170217 -1.03232809180918  0.01441900190019
 1  13.52658780288029 -1.42904594389439 -0.79424458045805
 1  13.29924634213421  0.35737431533153 -1.43721364516452
 1  9.18421511911191  2.25201525332533  1.07525277267727
 1  10.32865472707271  2.93775637803780 -0.21014409890989
 1  10.45909958325833  3.01038601030103  1.86083223422342
 1  11.55334817611761 -0.45612286088609  2.61982840424042
 1  9.89231420202020  0.12920037903790  2.79147227532753
 1  11.32807370647065  1.46594439123912  2.87748269126913
 1 -10.23708620662066  0.11083099379938 -2.80679807550755
 1 -11.76318537483748  1.33509950845085 -2.57342440774077
 1 -11.93956180128013 -0.46676542784278 -3.35289304690469
 1 -14.58984225752575 -2.36596554915492 -0.21202940674067
 1  8.46521558955896  0.23835406060606  0.55920856705671
 1 -8.97395256415642  1.89885153795380 -0.12962828322832
 1  11.21506724122412 -2.82098359435944 -1.46736958845885
 1  10.18055092149215 -1.48792489418942 -2.49948588258826
 1  11.97091638533853 -1.42707579767977 -2.68361430953095
 1  15.42615179547955  0.76635473527353  1.21668963786379
 1  9.35882565886589 -2.46141922362236 -0.44941138363836
 1 -5.56503096409641 -0.84444159485949 -0.18892149534953
 1 -7.01812071017102 -1.17197917111711  0.85912816521652
 1 -6.90195643084308 -1.52099054725473 -0.98164637943794
 1 -6.69167145364537  2.63871266636664 -0.41293449514951
 1  6.48692224122412 -3.65931935453545  0.85905560126013
 1  6.47995534073407 -4.03194838263826 -0.68634822602260
 1  8.06703660106011 -4.06392257685769 -0.02562559525953
 1  6.46404483138314 -0.16585382478248 -0.29881200310031
 1 -4.11647387898790  0.64619428462846 -0.29725578317832
 1  4.77191079457946 -2.53695294829483 -0.02451011181118
 1 -4.56089213491349  3.47588557035704 -0.84439409490949
 1  4.30403047924792  0.43305064396440 -0.70103932133213
 1 -1.43075283348335  3.94413586028603 -1.76439471137114
 1 -1.33862670107011  4.40030718801880 -0.17304926472647
 1 -2.56636612471247  5.00386280178018 -0.89336763046305
 1 -2.59219810021002  0.66283290879088 -0.32368709870987
 1  2.32297133923392  1.26180016921692 -0.83838085318532
 1  1.86123465116512 -2.33318972137214  1.40736911541154
 1  0.80404547584758 -2.20024931603160 -0.26892817791779
 1  2.70010275967597 -2.99031681888189 -0.49621386438644
 1 -0.04828894399440  2.41614145384538 -0.93128011951195
 1 -0.14332722872287 -0.64650482028203 -0.05627628262826

