%nproc=4
%Mem=4GB
# td=(NStates=1) CAM-B3LYP/6-31G(d,p) 

TD

0 1
 8 -14.13277915311531 -2.05144352605261  0.56085634093409
 8  14.76139797659766  1.07371495809581  0.33655425132513
 6 -11.65535839543954  0.07620369526953  1.30755557555756
 6 -10.90083704620462  0.32951572257226 -0.05607189438944
 6 -11.92431791239124 -1.45493997839784  1.39434727602760
 6 -12.66209960346035 -2.09801086588659  0.24192834373437
 6 -11.61079636853685 -0.34658213651365 -1.22190768066807
 6  11.02677600820082  1.11488313081308  0.99152943264326
 6 -10.78677015021502  0.44775651445145  2.49982703340334
 6 -12.95308147054705  0.80047569446945  1.26166724352435
 6  12.30133731423142  1.59974940144014  0.61383877007701
 6 -12.40440142604261 -1.39526739453945 -1.05355812451245
 6  13.41924354525453  0.54747241984198  0.43321063996400
 6  10.68149762406241 -0.02724213441344 -0.09914632953295
 6 -9.50096886078608  0.01014816661666 -0.02689268166817
 6  13.04929290689069 -0.14936215561556 -0.79825541184118
 6  11.65111820062006 -0.50190523582358 -0.80736579537954
 6  10.02424931053105  2.24647395939594  0.87733044644464
 6  10.94637547004701  0.41329050445044  2.43986454775478
 6 -11.40260475797580  0.41565320682068 -2.58162042024202
 6 -8.49772587288729  0.84861984438444 -0.11322494499450
 6  9.28983391269127 -0.58921669746975  0.01024110791079
 6  11.31276122162216 -1.40276324312431 -2.02075167986799
 6 -7.12473379627963  0.55269251105111 -0.11847393669367
 6  8.78919537593760 -1.74624442194219 -0.18717385838584
 6 -6.68804022552255 -0.87456621352135  0.05719860846085
 6  7.36145463296330 -2.22162503450345 -0.18646970927093
 6 -6.13843361936194  1.53978755325533 -0.39086094269427
 6  7.19516271047105 -3.72530625282528  0.05705592379238
 6  6.34686195519552 -1.29756004470447 -0.22753509590959
 6 -4.80880485418542  1.45399893909391 -0.32417333073307
 6  4.92805365126513 -1.52425026792679  0.01074329412941
 6 -3.91451282368237  2.52543556975698 -0.68542973197320
 6 -2.50590102820282  2.55879383698370 -0.64473722152215
 6  3.97325129062906 -0.63369387548755 -0.19415893229323
 6  2.61188823742374 -0.95510998249825 -0.05228018061806
 6 -1.88966751695170  3.93873845644564 -0.95836498389839
 6 -1.83167025252525  1.40915365976598 -0.49504552095210
 6  1.69330787578758  0.14068563006301 -0.36755531743174
 6  2.09574289538954 -2.33819660696070  0.12607497539754
 6 -0.40114237313731  1.30767208850885 -0.35091845164516
 6  0.32342717351735  0.15521718951895 -0.21493475427543
 1 -10.90596733823382  1.33229501480148  0.06954510931093
 1 -12.36998047114711 -1.74065407910791  2.40456835153515
 1 -10.93763143274327 -1.79392858785879  1.45368865146515
 1 -12.48502213581358 -3.19812892019202  0.29576443854385
 1 -9.90397579887989  0.18857053265326  2.24064268816882
 1 -10.60922108870887  1.52143522052205  2.69656437833783
 1 -11.36599419171917  0.21134455345535  3.35095927372737
 1 -13.67698890069007  0.47321332363236  0.29351582188219
 1 -13.60754652525253  0.50738234563456  2.09409341134113
 1 -12.80488917431743  1.90048367016702  1.25877636093609
 1  12.24891225792579  2.18835378487849 -0.25414757155716
 1  12.61691611871187  2.25724976387639  1.56976457765777
 1 -12.96819029762976 -1.69893669016902 -1.90728491919192
 1  13.37901748654866 -0.15265501130113  1.33672400830083
 1 -9.15020738643864 -1.07103196219622 -0.15578801880188
 1  13.58995413951395 -1.14463750305031 -1.01371652765277
 1  13.28339475697570  0.26285486338634 -1.70756067986799
 1  8.93691038863886  1.99396944874487  0.82931817921792
 1  9.94182604420442  2.74449705210521 -0.08582166666667
 1  10.12487616091609  3.20993596529653  1.58357450845085
 1  11.57076991829183 -0.43365061366137  2.23197961936194
 1  9.93907887848785 -0.17378991999200  2.35552868096810
 1  11.04180507960796  1.11231902870287  3.08377332033203
 1 -10.37338983698370  0.61622153285328 -2.71989938563856
 1 -11.87853690999100  1.43361936043604 -2.72912997829783
 1 -11.77419526462646 -0.21017976927693 -3.32796055365536
 1 -14.70916418971897 -2.10353930653065 -0.32916111991199
 1  8.64599366736674  0.22918314351435  0.55014766096610
 1 -8.72039720862086  1.90449210201020 -0.51872719311931
 1  11.61569730423042 -2.42045354135414 -1.55519837133713
 1  10.35616848324833 -1.31492759445945 -2.11737767176718
 1  11.97444673837384 -1.35791888198820 -2.98222417051705
 1  14.89927910821082  1.57342544234423  1.18300626952695
 1  9.36396617291729 -2.54397747944794 -0.56980342284228
 1 -5.65641010201020 -0.84822197289729  0.15976337313731
 1 -7.18467736583658 -1.27724969816982  1.08902115451545
 1 -6.99049528472847 -1.50896934513451 -0.77648586338634
 1 -6.45926821332133  2.56753554865486 -0.64455765746575
 1  7.15105865486549 -3.86878030063006  1.19628932463246
 1  6.16968431363136 -4.02086727452745 -0.30875046624662
 1  8.08170806820682 -4.43141932653265 -0.38938197089709
 1  6.55402382928293 -0.20914815421542 -0.47970009190919
 1 -4.14083631523152  0.42060172537254 -0.14954101170117
 1  4.52401600510051 -2.50271952495250  0.13457579677968
 1 -4.36640268596860  3.55215319711971 -1.06281593709371
 1  4.46428650485049  0.34947228612861 -0.49191840924092
 1 -1.00351010921092  4.12318376507651 -1.76672494439444
 1 -1.34351719011901  4.61213837113711 -0.09624158395840
 1 -2.55884537263726  4.58652106760676 -1.16186448014802
 1 -2.30668954935494  0.38191481698170 -0.60511524152415
 1  1.95483452555256  1.22212620182018 -0.51580859595960
 1  2.16850537823782 -2.40915731813181  1.33381175967597
 1  1.01223629492949 -2.27728701980198 -0.25192647774777
 1  2.69083183258326 -2.92781056825683 -0.27510175317532
 1  0.07455334023402  2.19806964666467 -0.54889188068807
 1 -0.23271616761676 -0.66400657045705  0.01662100710071

