%nproc=4
%Mem=4GB
# td=(NStates=1) CAM-B3LYP/6-31G(d,p) 

TD

0 1
 8 -14.09202507770777 -2.22126050775077  0.61773202850285
 8  14.89961179797980  0.81601918851885  0.34417501340134
 6 -11.98665152475248  0.22659873477348  1.35600042004200
 6 -11.04655161766177  0.32359513051305  0.06402011481148
 6 -12.07328280888089 -1.27133161756176  1.57022486378638
 6 -12.66880027352735 -2.08577964276428  0.40431458235824
 6 -11.63759904880488 -0.43690116841684 -1.07150264016402
 6  11.16844017461746  0.98176981948195  1.15860614031403
 6 -11.20281175437544  0.84552629142914  2.59708675937594
 6 -13.29591575397540  0.88718436533653  1.15656673347335
 6  12.60373755425543  1.53211263776378  0.92562994919492
 6 -12.38661964786479 -1.53591145894589 -0.98455122382238
 6  13.46128774967497  0.40438811141114  0.54691201010101
 6  10.73431290559056  0.00761135093509  0.05626921202120
 6 -9.62295105900590 -0.09629247744774  0.12651265886589
 6  13.04731270887089 -0.26085330473047 -0.77534312061206
 6  11.61704479327933 -0.63243828912891 -0.80933599239924
 6  10.37745463106311  2.20594990699070  1.14550726412641
 6  11.06197703020302  0.25870504590459  2.41130169146915
 6 -11.18835333283328 -0.01638999749975 -2.47740999919992
 6 -8.55568166846685  0.71144612701270 -0.16138976147615
 6  9.37904283358336 -0.34707248304830  0.06850693449345
 6  11.20596054155416 -1.35991895869587 -1.98874847954796
 6 -7.06710803370337  0.48244548634863 -0.18780086938694
 6  8.88217467386739 -1.60148994649465 -0.07369251025103
 6 -6.63286470797080 -0.91987074397440  0.20975386398640
 6  7.45529401690169 -2.08017088908891 -0.16792785508551
 6 -6.21390116611661  1.54747832233223 -0.42244410101010
 6  7.29629282348235 -3.55014873707371 -0.17969775157516
 6  6.38068533753375 -1.13337362606261 -0.10531287368737
 6 -4.74803877757776  1.49896343554355 -0.36324723812381
 6  5.01159200510051 -1.53951179407941 -0.29001678187819
 6 -4.02027339973997  2.51104413061306 -0.67131832083208
 6 -2.64121455955596  2.57311526912691 -0.84161690949095
 6  3.98678264376438 -0.57862836893689 -0.35997551395140
 6  2.67049409800980 -0.83201767326733 -0.42270722332233
 6 -1.98186673687369  3.90275485808581 -0.87273642104210
 6 -1.91916900240024  1.40071281568157 -0.72978899529953
 6  1.72294083908391  0.28307986948695 -0.44691325322532
 6  2.04344766586659 -2.17275006230623 -0.32950058215822
 6 -0.49575183408341  1.43466478777878 -0.61406476627663
 6  0.37172200300030  0.27474914271427 -0.57861112191219
 1 -11.06341308280828  1.50880266556656 -0.24198604380438
 1 -12.70154362746275 -1.55934594829483  2.43607150185018
 1 -11.19005667526753 -1.75497469246925  1.89661294389439
 1 -12.25752938653865 -3.09341844914491  0.31649651175117
 1 -10.48837423872387 -0.11672999739974  2.92506113001300
 1 -10.47022718931893  1.79941301830183  2.23907862976298
 1 -12.03281087338734  1.07796121512151  3.42894707250725
 1 -13.72840404220422  0.51898790109011  0.08926539683968
 1 -13.94414018461846  0.57503911131113  2.03327732973297
 1 -13.07242592799280  2.02034565636564  1.39004948824883
 1  12.81667903460346  2.37983293279328  0.16600444364437
 1  12.87142156925693  2.11787582648265  1.82119972117212
 1 -12.94266774537454 -2.22398919541954 -1.69470366106611
 1  13.66198578337834 -0.35161490729073  1.42089242514251
 1 -9.55072743844384 -1.23486834583458  0.38092565256526
 1  13.80424556865687 -1.14177721702170 -0.96645180118012
 1  13.45396181368137  0.53324190209021 -1.53777370117012
 1  9.50732743034303  2.14580463226323  1.71248649604961
 1  10.17786964856486  2.66653925632563  0.13326024152415
 1  10.72004567786779  2.94092906460646  1.96220237123712
 1  11.65921876317632 -0.84177142574257  2.60598702010201
 1  10.01210618121812 -0.15220776177618  2.67608073617362
 1  11.32981388048805  0.81607940474047  3.32874781778178
 1 -10.16456895489549  0.01248115881588 -2.33746114181418
 1 -11.33692274857486  1.08923492199220 -2.84566163146315
 1 -11.60589843494349 -0.65931468276828 -3.24072182978298
 1 -14.17626089938994 -2.60374932753275 -0.28750695449545
 1  8.62247131513151  0.43403362856286  0.13886653285328
 1 -8.64264943384338  1.77969962276228 -0.30308562896290
 1  11.49598533303330 -2.37879937593759 -1.68523137463746
 1  10.16666953335334 -1.24236033773377 -2.19187512151215
 1  11.85301459515952 -0.99019210931093 -2.81858780688069
 1  15.27065624592459  1.30635873567357  1.09841781068107
 1  9.38173795009501 -2.41196427812781 -0.20357680018002
 1 -5.52907736873687 -1.05100225092509  0.44254165096510
 1 -7.29363826192619 -1.30783275647565  1.07471972437244
 1 -6.95278151335133 -1.64001244944494 -0.48693690849085
 1 -6.67258954545454  2.50523931903190 -0.52046524822482
 1  6.78363191219122 -3.92074549714971  0.67077677337734
 1  6.59891723692369 -3.98052324012401 -0.91443103430343
 1  8.24119401680168 -4.04229041364136 -0.13666669936994
 1  6.44570299719972  0.00208296889689 -0.08748086998700
 1 -4.37401963356336  0.44140380558056 -0.14076013361336
 1  4.78855245874587 -2.56896614961496  0.01696403560356
 1 -4.56959300500050  3.47855583738374 -1.02457211271127
 1  4.32363243944394  0.52310964986499 -0.73639285668567
 1 -0.97554731293129  3.82602404910491 -1.51132940484048
 1 -1.49056189458946  4.01150830813081  0.13542158235824
 1 -2.68946843494349  4.59278169366937 -1.15332362606261
 1 -2.59672855325533  0.52874950045004 -0.85840057005701
 1  2.05492453455346  1.46354034323432 -0.53736075117512
 1  1.77518604630463 -2.72936933933393  0.70945932443244
 1  0.90196526782678 -2.20404969606961 -0.84746603170317
 1  2.69156190559056 -2.93065085228523 -0.94950919391939
 1 -0.12384649974997  2.47938777847785 -0.69387637913791
 1 -0.11872476847685 -0.69566973677368 -0.77324797979798

