%nproc=4
%Mem=4GB
# td=(NStates=1) CAM-B3LYP/6-31G(d,p) 

TD

0 1
 8 -14.11388726392639 -2.03213159485949  0.68659891519152
 8  14.77597943474347  0.84271185778578  0.27500809670967
 6 -11.71226408600860  0.10898697359736  1.36869168916892
 6 -11.03364032653265  0.37373014401440 -0.01770805800580
 6 -11.87286276687669 -1.40493497789779  1.52489033033303
 6 -12.63750714421442 -2.16460752555256  0.41378552945295
 6 -11.67993328222822 -0.44512199049905 -1.10286577647765
 6  11.05019835043504  0.91185282778278  1.21441172087209
 6 -10.89507098029803  0.69793153195320  2.44314136483648
 6 -13.08547470987099  0.83917956485649  1.37182825962596
 6  12.56485366586659  1.33527295379538  1.05755314151415
 6 -12.45100608650865 -1.47071493929393 -0.90199296799680
 6  13.54826644754475  0.27069474207421  0.58384570347035
 6  10.68476795109511  0.01135172497250 -0.03950036493649
 6 -9.55619438333833 -0.10676352455246 -0.00487047944794
 6  13.11355933353335 -0.18968618801880 -0.76635222152215
 6  11.59033212201220 -0.58735378067807 -0.91017607640764
 6  10.23540042564257  2.17638695069507  1.17386009940994
 6  10.90291112361236  0.12853202860286  2.55324588588859
 6 -11.39345384288429  0.12053369486949 -2.51451370957096
 6 -8.47985408570857  0.70987596999700 -0.24015763826383
 6  9.18524345364536 -0.34063183898390 -0.02502241844184
 6  11.18671861736174 -1.28873183998400 -2.17908751345135
 6 -7.09318064096410  0.40771801360136 -0.32683477277728
 6  8.78197465386539 -1.55964576207621 -0.10868600960096
 6 -6.62884430593059 -0.95906466336634 -0.09947705910591
 6  7.43482196969697 -2.01673454545455 -0.20428149044904
 6 -6.19383915991599  1.41991556605661 -0.39776163276328
 6  7.12933612781278 -3.53864758695870  0.17679789798980
 6  6.38497576657666 -1.17132742144214 -0.32177451985199
 6 -4.79413338703870  1.29843338253825 -0.34574548794879
 6  5.01088193409341 -1.47966580948095 -0.24428220842084
 6 -4.06448782118212  2.43974700090009 -0.63249443844384
 6 -2.63880431853185  2.62745070267027 -0.80882363016302
 6  4.00733469896990 -0.56681718781878 -0.28475799219922
 6  2.60398744734473 -0.71575604710471 -0.27502245484548
 6 -2.09049759996000  3.96527110971097 -1.16251539893989
 6 -1.81946903240324  1.53570631503150 -0.53288930533053
 6  1.74329287428743  0.41520308180818 -0.42936149804981
 6  2.12317563866387 -2.17907069436944  0.00668303620362
 6 -0.41263352225223  1.53894521582158 -0.63489684948495
 6  0.36171100190019  0.43041470927093 -0.53118637943794
 1 -10.88438518001800  1.31364314961496 -0.31275312051205
 1 -12.42043551665166 -1.66436645034503  2.45531342604260
 1 -10.93712138173817 -1.92840203520352  1.64702798539854
 1 -12.31033466706671 -3.22929203650365  0.45136999909991
 1 -9.98646404770477  0.27086876247625  2.54742336623662
 1 -10.57936810341034  1.78919199619962  2.19129385128513
 1 -11.33396098839884  0.79242266126613  3.37285146294629
 1 -13.71430263206321  0.43089909220922  0.58835530583058
 1 -13.42607837843785  0.59493110051005  2.41559556155616
 1 -12.91846053145314  1.99447306910691  1.46476695999600
 1  12.65538290499050  2.08371332083208  0.00031787498750
 1  12.93251767886789  1.86389042794279  1.89655725692569
 1 -12.85888936753675 -2.01703850035003 -1.85486967766777
 1  13.64215380018002 -0.50838058385839  1.27673800970097
 1 -9.29117148284828 -1.26164102310231 -0.18407084708471
 1  13.83905905000500 -0.89854289358936 -1.52403755975598
 1  13.25623204070407  0.57048562646265 -1.43432335613561
 1  9.20692739033903  2.07309736153615  1.58720396779678
 1  10.18220008160816  2.70001260366037  0.18197511301130
 1  10.87508118141814  3.06123109480948  1.81186733773377
 1  11.79577241854185 -0.54318156675668  2.66912333373337
 1  9.96299126972697 -0.24116665766577  2.94615774387439
 1  11.19560045914591  0.80519831663166  3.36128107110711
 1 -10.19084158215822 -0.13037312661266 -2.72011940764076
 1 -11.63055211151115  1.20596659515952 -2.53180024532453
 1 -12.20221806690669 -0.32345109640964 -3.24430218781878
 1 -14.44754802810281 -2.53391234383438 -0.10951915571557
 1  8.45304437243724  0.43938416361636  0.06510915711571
 1 -8.68851402030203  1.84991664446445  0.00856553615361
 1  11.43189892439244 -2.39995149114911 -2.32874572607261
 1  10.17629049544955 -1.17732383408341 -2.36226216021602
 1  11.68375766946695 -0.72960605070507 -2.91714766286629
 1  15.07246642694269  1.14480258005801  1.04769273817382
 1  9.56966674297430 -2.33381646334633 -0.08863530603060
 1 -5.51745620662066 -1.22013916461646 -0.26681928512851
 1 -6.67636653475348 -1.35930790399040  0.98478073047305
 1 -7.18399463466347 -1.52732118031803 -0.59341755655566
 1 -6.46865915241524  2.36919571467147 -0.40657385908591
 1  6.71546509550955 -3.65331875447545  1.18821851755176
 1  6.24014135933593 -3.75628081588159 -0.49928952015201
 1  7.90580047744774 -4.31628781338134  0.01906887418742
 1  6.89457788468847 -0.26562380178018 -0.53381550345034
 1 -4.25662789438944  0.60692035723572  0.04137808020802
 1  4.77496109960996 -2.59100835383538 -0.33936159695970
 1 -4.75827187288729  3.18671665346535 -0.83334298979898
 1  4.31980205640564  0.45756309520952 -0.39918913631363
 1 -1.35702546074607  3.83417486418642 -2.10186845874587
 1 -1.31711454985499  4.47779493679368 -0.41647360716072
 1 -2.91916140424042  4.67308972447245 -1.48438673237324
 1 -2.14430331073107  0.40850747624763 -0.29406413641364
 1  2.10781982408241  1.28320230943094 -0.61106812191219
 1  2.92243077077708 -2.90957736013601  0.65265364386439
 1  1.07358242954295 -2.11812110321032  0.45410412531253
 1  2.12642539193919 -2.82074986218622 -0.87879212221222
 1  0.07811369626963  2.48162800250025 -0.77315430693069
 1 -0.13710660666067 -0.61134130393039 -0.54670532553255

