%nproc=4
%Mem=4GB
# td=(NStates=1) CAM-B3LYP/6-31G(d,p) 

TD

0 1
 8 -14.05961183638364 -2.06856523822382  0.36298655395540
 8  14.82152398919892  1.03558114471447 -0.19704910901090
 6 -11.70403326292629  0.07178325322532  1.27351217121712
 6 -11.06508347084709  0.28926169716972  0.05008872167217
 6 -12.00318579917992 -1.50401488588859  1.29340718201820
 6 -12.62114550805081 -2.08670973577358  0.14801895279528
 6 -11.59956524542454 -0.38492597089709 -1.36936242614261
 6  11.13726705730573  0.96097774027403  0.97947822752275
 6 -10.93344481768177  0.44523626242624  2.50326737743774
 6 -13.05516167856786  0.92352799969997  1.23738481528153
 6  12.58665584608461  1.48558798529853  0.60182756895690
 6 -12.33411439733973 -1.39708757655766 -1.16997976667667
 6  13.50407202810281  0.39579725232523  0.16345366426643
 6  10.73877335163516 -0.11896130633063 -0.05452186708671
 6 -9.51619038293829 -0.11098394659466  0.00308031563156
 6  12.97445542314231 -0.23602082148215 -1.08878446474647
 6  11.52054514331433 -0.61640668596860 -1.00766582538254
 6  10.17576446204620  2.18343765576558  1.10650336373637
 6  11.27843867636764  0.30619979537954  2.37341790309031
 6 -11.28005250275028  0.32208384988499 -2.58491074927493
 6 -8.50605670597060  0.75535051745175 -0.25294891739174
 6  9.28343327262726 -0.50345812161216  0.10606068986899
 6  11.02589253475347 -1.52219518631863 -2.06757636233623
 6 -7.06191751465147  0.44393163496350 -0.20933302260226
 6  8.80620707710771 -1.68248804630463 -0.01109625062506
 6 -6.74405582708271 -1.05811456835684 -0.00071718311831
 6  7.33013150065006 -2.07141001300130  0.12512144984498
 6 -6.15163493949395  1.39567314181418 -0.28230008660866
 6  7.11199439363936 -3.58330205240524  0.38663888208821
 6  6.37216448544854 -1.14729501820182 -0.04916725912591
 6 -4.74560853455346  1.26004954415442 -0.34728564196420
 6  5.03964481038104 -1.50124796769677  0.01156337613761
 6 -3.98389976237624  2.43555658185819 -0.63751494049405
 6 -2.59325976407641  2.67366532413241 -0.45488823662366
 6  3.96067003250325 -0.50586109220922 -0.14173368976898
 6  2.56334338293829 -0.73697816931693 -0.00539549214921
 6 -2.00864941514151  3.99447403000300 -0.95595474287429
 6 -1.78818590409041  1.56932967736774 -0.25786180258026
 6  1.75742428742874  0.38927048854886 -0.09958852075208
 6  2.00100342144214 -2.17048983628363  0.12382475037504
 6 -0.39489174807481  1.53076439773977 -0.33307666746675
 6  0.37727255805581  0.46006767456746 -0.04140740154015
 1 -11.03014975647565  1.47494928022802 -0.01063290849085
 1 -12.68990246334633 -1.90188020172017  2.06953484818482
 1 -11.01367903750375 -1.88097729272927  1.37617089968997
 1 -12.12958659225922 -3.23690279757976  0.08401326342634
 1 -10.00158555985599  0.03147482308231  2.64844346824682
 1 -10.81387155375537  1.58004108110811  2.42113683558356
 1 -11.59740733303330  0.29666308530853  3.33268744654465
 1 -13.83123432523252  0.69336533883388  0.38281475177518
 1 -13.85105087568757  0.66023763116312  2.03163716571657
 1 -12.82952163756376  2.04025764756476  1.24554503780378
 1  12.36794416111611  2.24759970947095 -0.07059921672167
 1  12.94974940204020  2.23478751765177  1.38994659585959
 1 -12.68021149974998 -1.83193999049905 -2.19252344304430
 1  13.64258384318432 -0.40853059885989  1.13649398529853
 1 -9.35809817551755 -1.33416827582758  0.22268982898290
 1  13.49718486258626 -1.18073111241124 -1.26567172317232
 1  13.24981139863986  0.36986556445645 -1.95585550935093
 1  9.08491518911891  2.09685973777378  1.53474872227223
 1  10.01157301890189  2.49850245264527  0.16961387688769
 1  10.81507518081808  2.99967493919392  1.81906805780578
 1  12.05786862816282 -0.52022927152715  2.41117753915392
 1  10.39504447504750 -0.25186772777278  2.73808693679368
 1  11.69722062116212  1.20359815661566  2.87419236223622
 1 -10.14341683968397  0.48246815751575 -2.81661905760576
 1 -11.61765082138214  1.35809180768077 -2.70469753505350
 1 -11.53889173427343 -0.20471922322232 -3.46585434303430
 1 -14.57367064036404 -2.25755470807081 -0.42180038383838
 1  8.59853892189219  0.34505473067307  0.63166581278128
 1 -8.95120028892889  1.76683833663366 -0.56598191859186
 1  11.47486322082208 -2.49828132413241 -1.99533238473847
 1  10.00013287968797 -1.61491759345935 -2.12922885688569
 1  11.26981627532753 -1.20631372147215 -3.09235518361836
 1  15.22487166746675  1.37905600540054  0.69786775567557
 1  9.56877665396540 -2.45942902460246 -0.22797924042404
 1 -5.77899236023602 -1.37596474717472 -0.14207681088109
 1 -7.19602850095009 -1.43240521372137  0.91182343474347
 1 -7.51007724292429 -1.44164261246125 -0.77272548734873
 1 -6.61602388888889  2.32478127322732 -0.42224542624262
 1  6.78158170717072 -3.67807122972297  1.43302299799980
 1  6.48411575677568 -4.02723791159116 -0.24324391559156
 1  7.91338123552355 -4.14204038863886  0.13318028532853
 1  6.63093152005201 -0.06919415881588 -0.22993511541154
 1 -4.34998723032303  0.35367503270327 -0.11585764336434
 1  4.69867347084708 -2.45109436243624  0.38011035023502
 1 -4.69229527522752  3.35333331513151 -0.73478313381338
 1  4.26795687188719  0.52717005590559 -0.34208342574257
 1 -1.36282604080408  3.70377182388239 -1.87958623052305
 1 -1.45850868926893  4.66932408970897 -0.18023998379838
 1 -2.70750023812381  4.77917033253325 -1.52233052675268
 1 -2.39043792419242  0.74753137863786 -0.01948667866787
 1  2.18930797289729  1.34787877707771 -0.25848286338634
 1  2.04894342204220 -2.51855825822582  1.32045042354235
 1  0.80844591589159 -2.25611490259026 -0.31817310241024
 1  2.67555030443044 -2.89948773597360 -0.50163440644064
 1 -0.00785490059006  2.45716555625563 -0.70996798829883
 1 -0.27935083108311 -0.56101627142714  0.15603494849485

