%nproc=4
%Mem=4GB
# td=(NStates=1) CAM-B3LYP/6-31G(d,p) 

TD

0 1
 8 -14.13101897709771 -2.19096747844785  0.50400065536554
 8  14.97584942174217  0.46511409800980  0.35107570347035
 6 -11.84644750435044 -0.15016894199420  1.38299311931193
 6 -11.05361232373237  0.33356612761276  0.02697641044104
 6 -11.98402388298830 -1.66665114951495  1.40719856115612
 6 -12.64707810131013 -2.16505757055706  0.21028517941794
 6 -11.64160944984498 -0.42119959825983 -1.21820731063106
 6  11.14735806640664  1.02020366286629  0.99785006470647
 6 -11.13799527272727  0.40279201800180  2.65477252795280
 6 -13.29378554095410  0.54253990089009  1.34087516431643
 6  12.67596477697770  1.44351377787779  0.85996338253825
 6 -12.34388537443744 -1.54586245404540 -1.12423519221922
 6  13.60552217311731  0.28255592819282  0.44005132403240
 6  10.79709918421842 -0.08061747194719 -0.00812722762276
 6 -9.61336009990999 -0.05302815101510  0.08509851745175
 6  13.12632060966097 -0.43127034643464 -0.80624621092109
 6  11.56723981278128 -0.63238828412841 -0.89893495229523
 6  10.30939782538254  2.28204751675168  0.81018373177318
 6  10.94186501900190  0.42619179457946  2.49360992229223
 6 -11.35564006150615  0.19802144364436 -2.45838809700970
 6 -8.61072717301730  0.83061804420442 -0.11772539503950
 6  9.38806373567357 -0.32161993779378  0.01866194999500
 6  11.20161010651065 -1.69313228002800 -1.96843644834483
 6 -7.18984030693069  0.62009925172517 -0.13678576787679
 6  8.82473893029303 -1.62970276777678  0.07952281128113
 6 -6.68436985848585 -0.74176293319332  0.17899078767877
 6  7.44548303580358 -1.97324019601960  0.00832977067707
 6 -6.31559133513351  1.72412598709871 -0.28225008160816
 6  7.16943013721372 -3.48814253645365  0.33807402560256
 6  6.35778304730473 -1.13715400410041 -0.32319466186619
 6 -4.86687066076608  1.64144768396840 -0.45910682408241
 6  5.00064090999100 -1.42033987688769 -0.15242302250225
 6 -4.03617498989899  2.70861388758876 -0.63019420842084
 6 -2.56716715481548  2.68795675327533 -0.61203395119512
 6  4.11516548204820 -0.47431793789379 -0.58241775817582
 6  2.68803585218522 -0.76847131863186 -0.40268522112211
 6 -1.98845739593959  4.11193577617762 -0.91540068746875
 6 -1.83470055555556  1.49910265466547 -0.49131514791479
 6  1.79646819181918  0.36439800130013 -0.54861342324232
 6  2.13627694879488 -2.07355014231423 -0.02952058415842
 6 -0.44492675157516  1.58723004430443 -0.59787314711471
 6  0.42361719251925  0.43104477227723 -0.46863012381238
 1 -11.16067280878088  1.37700948624862  0.12435058985899
 1 -12.51297477057706 -2.21187120082008  2.27870576527653
 1 -10.82577024662466 -2.05872506750675  1.20779406200620
 1 -12.38301193479348 -3.28249735703570  0.24345920802080
 1 -9.96813221452145  0.07465914151415  2.71363998789879
 1 -11.31504167076708  1.47867094409441  2.58143286518652
 1 -11.64426201850185 -0.14693127412741  3.57480165796580
 1 -13.74120532233223  0.17778378067807  0.53325979627963
 1 -13.61945771637164  0.40950255765577  2.42794679667967
 1 -12.91847053245325  1.55237885968597  1.28448893219322
 1  12.55833320002000  2.13867881738174 -0.02574473127313
 1  13.02544697179718  2.03097713661366  1.70949855105511
 1 -12.72484596319632 -2.00905770227023 -2.16168035873587
 1  13.26986657145715 -0.41885163096310  1.22612294819482
 1 -9.18301066676668 -1.19161402040204  0.35770333033303
 1  13.81804694879488 -1.27344038333833 -0.94473962996300
 1  13.31463788128813  0.27831640954095 -1.74782470627063
 1  9.32138883648365  2.01367141894189  1.20100534793479
 1  10.27682954455445  2.66176877927793 -0.28915199969997
 1  10.51540521382138  3.23992896459646  1.34257040804080
 1  11.63964680598060 -0.37359460806081  2.57743416481648
 1  9.94436940754075  0.03147060606061  2.50336346444644
 1  10.97041794089409  1.14554235103510  3.30647559055906
 1 -10.24266676467647  0.36169608030803 -2.40411780748075
 1 -11.75698475477548  1.17591358985899 -2.51174824012401
 1 -11.98324616971697 -0.39204795609561 -3.31459921752175
 1 -14.68308158145815 -1.84217316991699 -0.34296250005000
 1  8.57809687768777  0.60104032923292  0.14475712191219
 1 -9.28190335923592  1.90691234403440 -0.53579890029003
 1  11.54863059755976 -2.79301079707971 -1.79337218871887
 1  10.06571943834384 -1.65111121282128 -2.04573050705070
 1  11.62505179887989 -1.25577866796680 -2.95587153525352
 1  15.08007718801880  1.06380448024803  1.02382035093509
 1  9.62210198649865 -2.28872195389539  0.33133669116912
 1 -5.65242970397040 -0.74656180688069  0.22920031683168
 1 -7.14604350245025 -1.03337531073107  1.04878713111311
 1 -7.10870710591059 -1.53634208240824 -0.53134134893489
 1 -6.98055034153415  2.55055385048505 -0.39583278497850
 1  6.39265281428143 -3.54493791639164  1.23077277297730
 1  6.79668701390139 -3.95848103590359 -0.77776736793679
 1  8.21322121952195 -4.20633681828183  0.76673364066407
 1  6.52247067396740 -0.08956619601960 -0.51701382328233
 1 -4.51076330793079  0.54696436163616 -0.21254731233123
 1  4.54385798929893 -2.42650190319032  0.10333267246725
 1 -4.58633467916792  3.63401138293829 -1.09713936943694
 1  4.24947502370237  0.44584192309231 -0.97009622702270
 1 -1.43217297549755  4.22367381408141 -2.05340361226123
 1 -1.30003284168417  4.47894505180518 -0.11641360116012
 1 -2.65700518861886  4.85496791229123 -1.11597989168917
 1 -2.31542042244224  0.52296892239224 -0.35143987398740
 1  2.14135317741774  1.46179016821682 -0.99592660776078
 1  2.40124865256526 -2.24517091949195  1.26850522902290
 1  1.21128619991999 -1.98306759785979 -0.04385567066707
 1  2.50824357375738 -3.02593038023802 -0.64522876587659
 1  0.03479936483648  2.49686952665266 -1.07100409190919
 1 -0.10419331533153 -0.49836000580058 -0.18841949694969

