%nproc=4
%Mem=4GB
# td=(NStates=1) CAM-B3LYP/6-31G(d,p) 

TD

0 1
 8 -13.89329520472047 -2.13518189988999  0.62089234453445
 8  14.79038087488749  1.14418200480048  0.35584618051805
 6 -11.71165402500250  0.08484455935594  1.35982080208021
 6 -10.96396335883588  0.33884665566557 -0.00809709690969
 6 -11.71240672127213 -1.43095758015802  1.44307214851485
 6 -12.50244363786379 -2.10880194499450  0.28418256915692
 6 -11.62846813571357 -0.20372785108511 -1.18705419531953
 6  11.00384371497150  0.97874951745175  1.11216149584958
 6 -10.90397187038704  0.59423116191619  2.60276732743274
 6 -13.12587875027503  0.80509615651565  1.29941101790179
 6  12.44711189168917  1.50482990949095  0.94994238043804
 6 -12.21306229212921 -1.41830969876988 -1.01324409310931
 6  13.43014463536354  0.45428310091009  0.53520083898390
 6  10.69227870217022 -0.03879328952895  0.02631621672167
 6 -9.50851961586159 -0.01756460466047  0.00697070467047
 6  13.03160113771377 -0.03976119551955 -0.87063264956496
 6  11.53826691549155 -0.49176422172217 -0.89645470427043
 6  10.00082696829683  2.14453376537654  1.08054076747675
 6  10.94954578707871  0.24722389778978  2.49561012231223
 6 -11.34935943344334  0.30251189268927 -2.53853611181118
 6 -8.42716881718172  0.84516949934994 -0.02056567906791
 6  9.28248317761776 -0.48061583738374  0.00535061886189
 6  11.15797574307431 -1.34993796059606 -2.01716132083208
 6 -7.07676899979998  0.51641888368837 -0.05064715401540
 6  8.82385884228423 -1.75116491399140 -0.13362850385038
 6 -6.63617503900390 -0.90628938583858  0.11792468106811
 6  7.39113760126013 -2.22315518751875 -0.20834189648965
 6 -6.19096887288729  1.51524509900990 -0.38427028362836
 6  7.12418561276128 -3.71735545774577 -0.02253203500350
 6  6.31240850985099 -1.36894718341834 -0.24995733813381
 6 -4.79918389208921  1.48361190039004 -0.43996490989099
 6  4.92126297219722 -1.57134497739774 -0.16152393259326
 6 -3.99679105150515  2.60631365756576 -0.65850703970397
 6 -2.64639507760776  2.60362832043204 -0.83452620042004
 6  3.87988195369537 -0.68442894899490 -0.30983049944995
 6  2.54520156875688 -0.95006947844784 -0.21138609120912
 6 -1.89743829402940  3.92684726732673 -1.17643679107911
 6 -1.85395248074807  1.50216296069607 -0.69472548894889
 6  1.63553209820982  0.20497205870587 -0.65105366726673
 6  1.97468078917892 -2.18285107240724  0.32644501240124
 6 -0.39377163606361  1.43483480478048 -0.71889524932493
 6  0.30290512131213  0.29895156295630 -0.50986424722472
 1 -11.04103084458446  1.50071185648565 -0.13027487268727
 1 -12.39840331343134 -1.66440645434543  2.38554644934493
 1 -10.78837650725072 -1.92356155115511  1.59040232283228
 1 -12.08602223582358 -3.08523763106311  0.33950881298130
 1 -9.82111751305131 -0.09311763616362  2.61812043594359
 1 -10.73624379097910  1.62621569856986  2.51099582148215
 1 -11.32745033733373  0.26157957695770  3.48781295909591
 1 -13.52973417521752  0.54855085738574  0.29967643794379
 1 -14.00517628822882  0.27759936733673  2.04312831483148
 1 -12.92438112351235  1.81785540734073  1.50066054935494
 1  12.44227159385938  2.30789573907391  0.10929877307731
 1  12.73742816991699  2.01779581848185  1.88399600080008
 1 -12.65013849244925 -1.98713551005101 -1.90688487918792
 1  13.55163474827483 -0.41633137893789  1.21155149104910
 1 -9.42332469816982 -1.14325918491849  0.02563012301230
 1  13.64994013811381 -0.73879691899190 -1.26403155915592
 1  13.16186260376038  0.71366994489449 -1.59620954475448
 1  9.03092979057906  1.54260431223122  1.43704895229523
 1  9.90722258385838  2.33806640904090  0.05830274577458
 1  10.49699337263726  2.92964793649365  1.50267641864186
 1  11.54009685098510 -0.70332758135814  2.63783020442044
 1  9.94351932253225  0.03416087508751  3.00704383248325
 1  11.40219111821182  0.91664946174618  3.17438238123812
 1 -10.35454795279528  0.29233914461446 -2.70091748744874
 1 -11.70735979227923  1.35814181268127 -2.45953301860186
 1 -11.94689253435344 -0.13293204450445 -3.28847660526053
 1 -14.27551082438244 -2.91631058365837 -0.04500270407041
 1  8.80404947294729  0.35630585578558  0.54401704790479
 1 -8.60280544944495  1.79232088488849 -0.00145546594659
 1  11.66439217371737 -2.43896539253925 -1.94690754225423
 1  10.17508037443744 -1.54047014871487 -2.18007394139414
 1  11.74015330903090 -1.06694978507851 -2.92931887998800
 1  14.83474265456546  1.77426552635263  1.15812378127813
 1  9.39758953525353 -2.50777385908591 -0.11040748324833
 1 -5.39055351635163 -1.02351950265027  0.09353675047505
 1 -6.86203510161016 -1.30017199039904  1.20035228762876
 1 -6.99705594079408 -1.69930837903790 -0.62288050285029
 1 -6.65557784428443  2.45162395749575 -0.30630383208321
 1  7.37448099709971 -3.97148057065707  1.10897059275928
 1  6.02266961216122 -3.89803499129913 -0.45869546074607
 1  7.74519441684168 -4.47153333793379 -0.49143217591759
 1  6.39077750465047 -0.21591883128313 -0.38630075197520
 1 -4.25156738833883  0.51449111431143 -0.19233529112911
 1  4.71210481398140 -2.67414666766677 -0.11560922172217
 1 -4.58429447514751  3.51769975177518 -0.78051770727073
 1  4.25874595079508  0.39020635953595 -0.29726894429443
 1 -1.26966672487249  3.80123156985699 -2.08788706060606
 1 -1.43787662606261  4.02291944924492 -0.14010597039704
 1 -2.51516100420042  4.84742715821582 -1.31700999469947
 1 -2.34596347674767  0.82061868736874 -0.35177990799080
 1  2.43767280938094  1.10395438463846 -0.98070508560856
 1  2.21644017171717 -2.48805520792079  1.25252363086309
 1  0.91827689898990 -2.17228651975197  0.57961667656766
 1  2.24703745314531 -3.00872866006601 -0.54904914791479
 1  0.01737762266227  2.28424826452645 -1.00774776627663
 1 -0.38794169016902 -0.58111828162816 -0.44003465846585

