%nproc=4
%Mem=4GB
# td=(NStates=1) CAM-B3LYP/6-31G(d,p) 

TD

0 1
 8 -14.02983885908591 -2.15750413211321  0.76188644394439
 8  14.82242407920792  0.76231381798180 -0.01544094819482
 6 -11.65695855545555  0.03943001790179  1.25058987898790
 6 -11.00360732323232  0.24342711371137 -0.16841312851285
 6 -11.84797027762776 -1.43972845724572  1.44559240054005
 6 -12.71298469196920 -2.18083914871487  0.34191834273427
 6 -11.77236252515251 -0.43062054035404 -1.28608409830983
 6  11.20491382198220  0.85998764126413  1.03564384408441
 6 -10.88104957815782  0.69900163896390  2.30441749244924
 6 -13.03253941634163  0.73489913681368  1.23645472227223
 6  12.59813699419942  1.40500992749275  0.77686507270727
 6 -12.45500648654866 -1.50107797559756 -1.07702047074707
 6  13.52981460236024  0.35897356995700  0.25629294819482
 6  10.62356183048305 -0.10065947614761  0.01744532963296
 6 -9.51183994789479 -0.07935078327833 -0.07272726512651
 6  12.93260123772377 -0.35550276967697 -0.97575316161616
 6  11.45806889568957 -0.55130017531753 -0.94230928972897
 6  10.29441632723272  2.11617092909291  1.17392010541054
 6  11.21231206370637  0.27093626902690  2.51449201050105
 6 -11.52195669316932  0.02477411891189 -2.72276453465347
 6 -8.46484258455846  0.75378036043604 -0.14741836433643
 6  9.12857778707871 -0.44732250805081  0.15293537733773
 6  11.03718366386639 -1.29794276107611 -2.08748835353535
 6 -7.03014433733373  0.39716695849585 -0.28345043434343
 6  8.78840529692969 -1.71883168066807 -0.05172031303130
 6 -6.56871829332933 -0.95542429932993  0.01546443504350
 6  7.35043353085308 -2.04110698269827 -0.01773283558356
 6 -6.14153392939294  1.49565313981398 -0.36978883548355
 6  6.96755995019502 -3.50492421462146  0.28241846004600
 6  6.34050131913191 -1.20575086378638 -0.20371271367137
 6 -4.72044601830183  1.37865140434043 -0.30911182458246
 6  4.97126797269727 -1.41089893279328 -0.06166394659466
 6 -3.98595996839684  2.57990101630163 -0.60766195519552
 6 -2.66904734283428  2.60604856245625 -0.64881762956296
 6  3.96202016751675 -0.49040954705471 -0.19913943034303
 6  2.68574562316232 -0.62166663816382 -0.15219017161716
 6 -2.00596914711471  4.08358294089409 -0.76951609900990
 6 -1.78926601210121  1.58975171957196 -0.48038405480548
 6  1.75684422942294  0.43913547504750 -0.46776533843384
 6  2.11546486758676 -2.09283207050705  0.15807817571757
 6 -0.34122638153815  1.61535285658566 -0.43194655445545
 6  0.34564939573957  0.50602227002700 -0.34013727452745
 1 -11.00201694319432  1.34151593689369 -0.40071191639164
 1 -12.44569804290429 -1.70426043974397  2.30351824652465
 1 -10.90270794039404 -1.77913710871087  1.44072735533553
 1 -12.33874750835083 -3.36422552985299  0.20040490259026
 1 -9.87193259455946  0.26247792339234  2.73126175007501
 1 -10.62588275487549  1.73101617861786  2.07632235413541
 1 -11.38220581288129  0.64149756875688  3.21809598739874
 1 -13.59468066986699  0.66892289458946  0.32918938923892
 1 -13.70670644124412  0.24212581998200  2.09809381138114
 1 -13.09714840024002  1.88411203300330  1.23871435473547
 1  12.66393376007601  2.26946189568957  0.10831867506751
 1  13.00195462256226  1.76559059795980  1.55307290849085
 1 -12.80240371897190 -1.93762055855586 -2.06621081178118
 1  13.55487507230723 -0.54136388218822  1.08639897579758
 1 -9.22510487618762 -1.23459831883188  0.17691525152515
 1  13.68368351245124 -1.12648568786879 -1.24421957795780
 1  13.24229064656466  0.24785336323632 -1.82992291609161
 1  9.31688838643864  1.95092514431443  1.48641388878888
 1  10.15036689828983  2.65165776817682  0.19910682618262
 1  10.64973864716472  2.87871284298430  1.89878602960296
 1  11.90662350365037 -0.56971422002200  2.62056847824783
 1  10.17395236583658  0.15812327132713  2.68220134823482
 1  11.35471637073707  1.03847164396440  3.37076201920192
 1 -10.50107260526053 -0.10739082838284 -2.96591398709871
 1 -11.65247430373037  1.13439943844384 -2.74068113341334
 1 -12.02407025212521 -0.64074282558256 -3.42708046564656
 1 -14.54203747704770 -2.10065901850185 -0.21901010481048
 1  8.34557362536254  0.27321754695470  0.50173281948195
 1 -8.79163433233323  1.76699835263526 -0.33840916131613
 1  11.32917865236524 -2.42411390739074 -2.29820267176718
 1  9.94043691009101 -1.18465456715672 -2.10698663266327
 1  11.45978527222722 -0.78243133323332 -2.97658360646065
 1  15.07546672697270  1.09166726652665  0.93105107400740
 1  9.65867564386439 -2.26083916561656 -0.35047148964896
 1 -5.55942040304030 -1.14636178687869  0.37250464726473
 1 -7.45843474157416 -1.64930690389039  0.69621187358736
 1 -6.77307354255426 -1.53691213941394 -1.00539875467547
 1 -6.65004729122912  2.41823061816182 -0.67395059675968
 1  6.30651420042004 -3.69734315691569  1.17228692439244
 1  6.40809815501550 -3.95471065886589 -0.69741933313331
 1  7.70432032943294 -4.17438362296230  0.25530249754975
 1  6.63481190809081 -0.31015825522552 -0.36295841774177
 1 -4.17714994659466  0.39034870007001 -0.00805686328633
 1  4.62863646714671 -2.49943919691969  0.10259259845985
 1 -4.74319036473647  3.49583756555656 -0.58073772927293
 1  4.24732480868087  0.70244758365837 -0.26082529992999
 1 -1.04699445764576  4.02010345704570 -1.55703397529753
 1 -1.61698453685369  4.34749190649065  0.30497853805381
 1 -2.65053454155416  4.88132054755475 -0.94377267096710
 1 -2.27006588698870  0.80365699119912 -0.13098782878288
 1  2.30725976807681  1.44930892009201 -0.86882389748975
 1  3.04587311501150 -2.38704510691069  0.85296367486749
 1  1.00176524782478 -2.05023431453145  0.79374808970897
 1  1.94390714011401 -2.71516930413041 -0.87604184718472
 1  0.06685257015702  2.50079991969197 -0.59445643714371
 1 -0.12948584458446 -0.47946811661166 -0.06568722372237

