%nproc=4
%Mem=4GB
# td=(NStates=1) CAM-B3LYP/6-31G(d,p) 

TD

0 1
 8 -14.07293316851685 -2.19903828552855  0.39078933423342
 8  14.83902573937394  0.94063164976498  0.14195479137914
 6 -11.79256211581158  0.07163323822382  1.33110793079308
 6 -10.97919488198820  0.42592536353635 -0.04593088028803
 6 -11.91843732433243 -1.48549303370337  1.42750059135914
 6 -12.65233862736274 -2.10183124792479  0.23791794269427
 6 -11.59834512341234 -0.26928440674067 -1.24795028492849
 6  11.04000733133313  1.18103974647465  0.95869614931493
 6 -11.04418589178918  0.52521426022602  2.53854090479048
 6 -13.20029619201920  0.81478712561256  1.23876495329533
 6  12.43950113061306  1.69073850035004  0.70537792399240
 6 -12.29517050295030 -1.47352522032203 -1.05556832553255
 6  13.44471609250925  0.46612428502850  0.33362068096810
 6  10.67305677997800 -0.08397780798080 -0.02000841574157
 6 -9.52843160706071 -0.06949979817982 -0.02754274667467
 6  12.98979695729573 -0.25404262366237 -0.87828341464146
 6  11.49886297509751 -0.55728077337734 -0.86261131993199
 6  10.05691257685769  2.32956226822682  0.79770248364837
 6  10.82880371287129  0.56591576697670  2.35176573787379
 6 -11.35258975647565  0.34304594609461 -2.51560381858186
 6 -8.62144824512451  0.83708869126913 -0.14520814331433
 6  9.34062899219922 -0.52479025482548  0.02702278607861
 6  11.17862780828083 -1.45971893869387 -2.00531013571357
 6 -7.11370269316932  0.52726996879688 -0.20013210251025
 6  8.90406686308631 -1.70463026052605 -0.18695383638364
 6 -6.73749517101710 -0.95446420332033  0.00691357995800
 6  7.46150463796380 -2.22115498749875 -0.08843990629063
 6 -6.26038581458146  1.62546612111211 -0.33516537313731
 6  7.28805199939994 -3.73119684188419  0.16521673987399
 6  6.36301357035703 -1.31020130883088 -0.13507584998500
 6 -4.77319129282928  1.54809834903490 -0.43042395579558
 6  5.09202004790479 -1.61707955085509 -0.04186196639664
 6 -3.87298867126713  2.63876690289029 -0.50079126812681
 6 -2.53666410451045  2.62039999759976 -0.51478422622262
 6  3.98783274877488 -0.69340984708471 -0.16842635903590
 6  2.68227527612761 -0.93876834833483 -0.16207115971597
 6 -1.77066561676168  3.95011959455946 -0.67739688708871
 6 -1.75928301380138  1.44501724612461 -0.49753576997700
 6  1.75286383138314  0.19211077257726 -0.30971953385339
 6  2.03226654775478 -2.26329911721172  0.24799716761676
 6 -0.35064732363236  1.45861718301830 -0.45253861366137
 6  0.36058088888889  0.18031969976998 -0.32763602440244
 1 -10.97365410691069  1.50740252555256 -0.37098894409441
 1 -12.75755922902290 -1.46500651435144  2.12213010771077
 1 -11.00228789838984 -2.03661285628563  1.47055033763376
 1 -12.33273690729073 -3.05306441374137  0.35333019511951
 1 -10.09398479977998 -0.02316064046405  2.84734335823582
 1 -10.50300046664666  1.53814689168917  2.35775049694969
 1 -11.63470106240624  0.64209762876288  3.44569874767477
 1 -13.81604280608061  0.48422442474247  0.49008547884789
 1 -13.59952572317232  0.60858246564656  2.23785778777878
 1 -13.09912859825982  1.79370299209921  1.21529201250125
 1  12.38450581728173  2.51746669616962  0.03584142734273
 1  12.79004343144314  2.11066510541054  1.56256385758576
 1 -12.76121960056006 -1.81144794129413 -2.07556174687469
 1  13.20556014081408 -0.20248999479948  1.07592792869287
 1 -9.22773513921392 -1.12663752275228  0.03294085408541
 1  13.54682982708271 -1.31509454875488 -0.84602975897590
 1  13.32120853835384  0.21510008790879 -1.94975489928993
 1  9.11270796839684  1.65424547634763  1.26093134053405
 1  9.91601346294630  2.60218282068207 -0.13103618811881
 1  10.43877755105511  3.13148812051205  1.52378852985299
 1  11.58221106240624 -0.17161441004100  2.68855527692769
 1  9.60779575017502  0.47743520252025  2.44245737383738
 1  10.93200409950995  1.38868666546655  3.16973191619162
 1 -10.19174167216722  0.71941185188519 -2.65978337403740
 1 -11.86595565186519  1.17241323982398 -2.61434850015002
 1 -11.71648949404941 -0.24650340164016 -3.58999675727573
 1 -14.59525279857986 -2.15983493609361 -0.45456366016602
 1  8.48659772777278  0.35685591079108  0.07533017921792
 1 -8.82535770467047  1.93342499529953 -0.41811713211321
 1  11.21829756425643 -2.67932942894289 -1.56326917841784
 1  10.20825369176918 -1.28536463816382 -2.44006994099410
 1  11.96747604130413 -1.35581867196720 -2.70842679077908
 1  15.09828900920092  1.16033413321332  0.91668963786379
 1  9.56922669896990 -2.54940802250225 -0.39674611711171
 1 -5.62537699869987 -1.01128827952795  0.07122451925193
 1 -7.10724962306231 -1.46811878507851  1.01654390679068
 1 -7.06691292649265 -1.52912136033603 -1.03661187598760
 1 -6.68354064056406  2.61722051715171 -0.53711691339134
 1  6.98182173117312 -3.76328975157516  1.38511820752075
 1  6.58426577177718 -4.07297248504851 -0.52260185138514
 1  8.10783068046805 -4.33544972957296 -0.18876190889089
 1  6.76859528642864 -0.39337657705771 -0.50210233213321
 1 -4.30485271687169  0.50966063126313 -0.44678073567357
 1  4.78858246174618 -2.66426567956796  0.24757709690969
 1 -4.43908995469547  3.54261224302430 -0.71220087558756
 1  4.06056613281328  0.24386172507251 -0.30949016641664
 1 -1.05102486068607  3.87027847454745 -1.47093536543654
 1 -1.24389722812281  4.28623578087809  0.15068310851085
 1 -2.33564305240524  4.61913432893289 -0.97627592129213
 1 -2.39267814821482  0.70572719821982 -0.47159188918892
 1  2.22392143424342  1.02461645084508 -0.62089910501050
 1  2.03524205190519 -2.45960236263626  1.47170554905491
 1  0.98299337063706 -2.29581887298730 -0.22217350245025
 1  2.65840859025903 -3.10508829602960 -0.13853809680968
 1  0.25710159505951  2.43623346304630 -0.63202019351935
 1 -0.23445634163416 -0.68830900070007 -0.22173282828283

