%nproc=4
%Mem=4GB
# td=(NStates=1) CAM-B3LYP/6-31G(d,p) 

TD

0 1
 8 -14.02347822302230 -2.05726410811081  0.41649190449045
 8  14.83198503530353  0.79792737933793 -0.06183558765877
 6 -11.63238609820982 -0.00168409350935  1.32116693669367
 6 -10.88546550905091  0.31355412641264  0.00048376117612
 6 -11.96767224782478 -1.51200568496850  1.39239708100810
 6 -12.63226662016202 -2.10021108590859  0.25774992589259
 6 -11.57589287818782 -0.37440491879188 -1.20569605950595
 6  11.11598492909291  0.96832847534753  1.07891817151715
 6 -10.79011048424842  0.35831757055706  2.52009906060606
 6 -12.92196835923592  0.74686033293329  1.47716879367937
 6  12.57900508100810  1.46090551705171  0.82172955915592
 6 -12.27757874377438 -1.46885475327533 -1.07557032573257
 6  13.45019664056406  0.43866153875388  0.23609092799280
 6  10.65051452575258 -0.05324473467347  0.07621120622062
 6 -9.53931269516952 -0.05753860206021 -0.05086507890789
 6  12.87950592819282 -0.12656987638764 -0.95541112741274
 6  11.53065615441544 -0.58105315061506 -0.88234329312931
 6  10.20871775737574  2.14445375737574  1.10567328072807
 6  11.02706353885388  0.28472764816482  2.52020258155816
 6 -11.42551704920492  0.25778742024202 -2.49899215741574
 6 -8.46862296259626  0.71104608700870 -0.30030365286529
 6  9.27498242754275 -0.50738851465147  0.20072015581558
 6  11.09053899939994 -1.45704867166717 -2.03183278797880
 6 -7.02413373627363  0.49053629542954 -0.16984907420742
 6  8.84321077747775 -1.75487528502850 -0.14614975597560
 6 -6.56343776527653 -0.97046580348035 -0.07350446184618
 6  7.32317080458046 -2.06046891889189  0.05901483918392
 6 -6.17049682568257  1.57190076457646 -0.35624748134813
 6  6.88208140234023 -3.56883060526053  0.22516273447345
 6  6.35332260126013 -1.12993328202820 -0.12685502790279
 6 -4.74964893859386  1.51705524472447 -0.37863877727773
 6  4.91291213711371 -1.38747659055906 -0.01911969216922
 6 -4.03346471887189  2.63796682288229 -0.67154834383438
 6 -2.54639507760776  2.69288724632463 -0.68155090289029
 6  3.91288525402540 -0.47005751185119 -0.14993450985099
 6  2.56021306990699 -0.76519099059906 -0.13487844044404
 6 -1.90406895709571  4.02858744134413 -1.09992914031403
 6 -1.82870995649565  1.48973171757176 -0.53341935833583
 6  1.75649419441944  0.26986854835484 -0.46824538643864
 6  1.99122244334433 -2.10371315861586  0.28182054995500
 6 -0.43496575547555  1.49138045934593 -0.55462882268227
 6  0.36314114491449  0.32571423922392 -0.38489174997500
 1 -11.01487822932293  1.57390917621762 -0.10496234143414
 1 -12.69900337343734 -1.59388940264026  2.28167606230623
 1 -11.17128479807981 -2.14488368336834  1.55247853045305
 1 -12.21950558415842 -3.22211131843184  0.17646250835084
 1 -9.75659106040604 -0.08905723012301  2.40414903880388
 1 -10.72490265686569  1.39327240424042  2.38908363026303
 1 -11.28873646594659 -0.00382696369637  3.42706688448845
 1 -13.84671587338734  0.57982398469847  0.85695216551655
 1 -13.42723849444945  0.42049365676568  2.49657365936594
 1 -12.67716640204020  1.95264888668867  1.36538702200220
 1  12.50177754445444  2.19558450795079  0.04422226542654
 1  12.91043547064706  1.98627266616662  1.72312991419142
 1 -12.80894437303730 -1.96314311081108 -1.82686687738774
 1  13.53059264406441 -0.45465521132113  0.81367170307031
 1 -9.35779814551455 -1.15064992399240 -0.02504494449445
 1  13.48431357545754 -1.07912095139514 -1.36489164516452
 1  12.96645306280628  0.79363794169417 -1.80031995579558
 1  9.26756345394539  1.91283133493349  1.50614586198620
 1  10.04084594619462  2.57130973337334  0.04924183968397
 1  10.50651432473247  2.92120709240924  1.72843899489949
 1  11.86446928822882 -0.34190143874387  2.57540396179618
 1  10.07581255185518 -0.44756729772977  2.44212734083408
 1  10.77516841594159  1.17269506630663  3.32533747674767
 1 -10.50278277627763  0.36621653235324 -2.92193958965897
 1 -11.72560161646165  1.24788078657866 -2.24637170247025
 1 -11.84697254235424 -0.24205295659566 -3.35284304190419
 1 -14.50827410071007 -2.35955490809081 -0.38604680848085
 1  8.68439750775078  0.16260648584858  0.70972361856186
 1 -8.85736090499050  1.82412406520652 -0.26453177357736
 1  11.37031276577658 -2.48915041104110 -1.79767261876188
 1  9.89386225262526 -1.59119522122212 -2.14906084008401
 1  11.62909220292029 -1.02369545964596 -3.04049999809981
 1  15.18985816611661  1.29796789658966  0.80771874077408
 1  9.47258703500350 -2.70242332403240 -0.50962740524052
 1 -5.44756921792179 -1.03161031173117  0.12653004980498
 1 -6.93222212031203 -1.58791076427643  0.81959421182118
 1 -6.70429666486649 -1.65280372857286 -0.93153136793679
 1 -6.65993828032803  2.47395619071907 -0.51027422912291
 1  6.31171472047205 -3.68056147874787  1.18922861856186
 1  6.17203454865487 -3.87516270407041 -0.57092668386839
 1  7.90883078047805 -4.08260444504451  0.20236720402040
 1  6.53088151505151 -0.10192743214321 -0.31820394229423
 1 -4.13115534713471  0.61334099929993 -0.19264532213221
 1  4.65809941344134 -2.30789004200420  0.38967130633063
 1 -4.55771181688169  3.72391037283728 -0.68780843634363
 1  4.42712278847885  0.58194553345334 -0.32450166756676
 1 -1.13254301250125  4.01693314001400 -1.95614388628863
 1 -1.48390122852285  4.33943110041004 -0.03110507030703
 1 -2.51826131423142  4.62659507500750 -1.34823311701170
 1 -2.26977585798580  0.63016964246425 -0.44412914291429
 1  2.20336937903790  1.10153414261426 -0.70331734683468
 1  2.42364089178918 -2.50257666006601  1.34394277277728
 1  0.88054312561256 -2.23045233633363  0.47294600950095
 1  2.08869161856186 -2.86436422362236 -0.49486372937294
 1  0.09164504940494  2.52188202790279 -0.86058304980498
 1 -0.25365826182618 -0.52481265106511  0.05693503850385

