%nproc=4
%Mem=4GB
# td=(NStates=1) CAM-B3LYP/6-31G(d,p) 

TD

0 1
 8 -14.22355823102310 -1.97448583028303  0.38593884918492
 8  14.77629946674667  0.87624521112111  0.11188178407841
 6 -11.71474433403340  0.05002107700770  1.25361018101810
 6 -10.95967292979298  0.37706047704770 -0.05533182038204
 6 -12.06295177577758 -1.42149663406341  1.33057089838984
 6 -12.80080347384738 -2.05167623242324  0.09955410631063
 6 -11.62969825872587 -0.26989446774677 -1.26260175007501
 6  11.10245357595760  0.96627827032703  1.01335161486149
 6 -11.02175364856486  0.64459619841984  2.43646069676968
 6 -13.21408757115712  0.80486613351335  1.09992106890689
 6  12.47227440794079  1.54586401290129  0.76147353355336
 6 -12.43605459135914 -1.40173804160416 -1.18140090879088
 6  13.44259588048805  0.51773944654465  0.28881620052005
 6  10.51883135743574 -0.00828023822382 -0.16752316721672
 6 -9.57144590849085 -0.06299914811481  0.01193120072007
 6  12.93011098869887 -0.08952617201720 -1.13046863316332
 6  11.43957704650465 -0.36685173047305 -1.13823888268827
 6  10.25166205180518  2.26211552355236  1.06782949634964
 6  11.04782561506151  0.24650382578258  2.41007156845685
 6 -11.31035553305331  0.42171381288129 -2.59565182338234
 6 -8.46457255755576  0.72497748014801 -0.15610923342334
 6  9.28194312361236 -0.36204398019802 -0.03248316451645
 6  11.08258820432043 -1.21484445124512 -2.29052865756576
 6 -7.07151847474748  0.43413065486549 -0.05110720002000
 6  8.80959741614161 -1.69174897239724 -0.06762190319032
 6 -6.64804622612261 -0.89879863676368  0.32662555115512
 6  7.50096858435844 -2.17773064506451 -0.08558962126213
 6 -6.12854263026303  1.44767834233423 -0.30371222782278
 6  7.22265545974597 -3.57640136233623  0.16460667886789
 6  6.41233850285028 -1.20965125382538 -0.16759910231023
 6 -4.69805377907791  1.22780631983198 -0.24090500390039
 6  5.06152699859986 -1.56998484138414  0.11270349014901
 6 -3.92360373277328  2.37843086928693 -0.60352154115412
 6 -2.47973841194119  2.55976393399340 -0.70632338013801
 6  4.02002596809681 -0.67890839693969 -0.13546306270627
 6  2.63519056765677 -0.89295376687669  0.11707675507551
 6 -1.99631818201820  3.85234981758176 -1.07973712111211
 6 -1.66574365986599  1.43350609500950 -0.47142315871587
 6  1.83704224922492  0.13233479497950 -0.08705726762676
 6  2.17588090919092 -2.21512429972997  0.57300966886689
 6 -0.30363262216222  1.37682900420042 -0.46196955675568
 6  0.38481331213121  0.15651731953195 -0.26917017781778
 1 -11.27609435093509  1.49540132543254 -0.19507135233523
 1 -12.41434490759076 -1.46097611131113  2.28126602130213
 1 -11.08635630523052 -1.85359455445545  1.43827711031103
 1 -12.52543617721772 -3.25064417171717  0.02338720082008
 1 -10.08689409070907 -0.11816014041404  2.38718734263426
 1 -10.70729089568957  1.55620869786979  2.33768849074907
 1 -11.68954654695469  0.31225464446445  3.46018019581958
 1 -13.76645784758476  0.32930893319332  0.18952542284228
 1 -13.80488625922592  0.56025763316332  1.83862786478648
 1 -13.00601928732873  1.90531415321532  1.06510699399940
 1  12.52050941764177  2.42307725722572  0.10600844404440
 1  12.69553398049805  2.13129716861686  1.69676727792779
 1 -12.86100957955796 -1.69765656215622 -2.14004819551955
 1  13.29381896669667 -0.41166091189119  1.12799313521352
 1 -9.52428479417942 -0.96015087408741  0.14127168716872
 1  13.49343448754876 -1.09746278557856 -1.20541569756976
 1  13.20694711221122  0.56219479737974 -2.14098402220222
 1  9.23181987958796  2.11705175697570  1.32369761716172
 1  10.18186004760476  2.71807440984098  0.10644756025603
 1  10.62738641194119  2.99312428412841  1.95938208920892
 1  11.69452229352935 -0.59850709930993  2.69649607100710
 1  10.02279725032503 -0.09282182318232  2.57648077617762
 1  11.25913681278128  1.10675847264726  3.24301924492449
 1 -10.33208570657066  0.66393630433043 -2.56717411311131
 1 -11.83508256455646  1.33962996149615 -2.34092115741574
 1 -11.83447129222922 -0.13013176447645 -3.43876163376338
 1 -14.63488676197620 -1.84750370297030 -0.59464766856686
 1  8.48770783878388  0.45613583878388  0.29408205440544
 1 -8.76940210911091  1.78643029582958 -0.27761308170817
 1  11.75273100760076 -2.22888438443844 -2.35214806630663
 1  10.06519938633863 -1.43753985568557 -2.10442637663766
 1  11.24924421812181 -0.62431552165216 -3.24929087718772
 1  15.01486066636664  1.01288938873887  1.04348231713171
 1  9.52007178347835 -2.49521260296030 -0.25021146364636
 1 -5.47099156015602 -0.90394754545454  0.08400579737974
 1 -6.80613951205121 -1.07293926712671  1.64727698009801
 1 -7.37219345454545 -1.67730617881788 -0.33360157495750
 1 -6.45441772827283  2.31438023312331 -0.48102130383038
 1  6.87357090609061 -3.67194061666167  1.13586328202820
 1  6.61093843904390 -4.05525071287129 -0.55240483168317
 1  8.08299819721972 -4.19599578417842 -0.08620165286529
 1  6.45080350725072 -0.11889912931293 -0.53044516641664
 1 -4.16421865346535  0.29349901510151  0.09496343874387
 1  4.75135873937394 -2.65207446044604  0.43758609780978
 1 -4.54327037273727  3.17924590639064 -0.76373602910291
 1  4.33489356555656  0.35503284218422 -0.31347056445645
 1 -1.12845260346035  3.60462190889089 -1.74650292219222
 1 -1.47692053045305  4.23435059235924 -0.16348830863086
 1 -2.75940542864286  4.45252766826683 -1.35139343304330
 1 -2.17314619501950  0.43958058355836 -0.02724745474547
 1  2.31619066116612  1.18476246544654 -0.35865288038804
 1  3.15625415311531 -2.59879628202820  1.41000937943794
 1  1.06116118741874 -2.17666695779578  1.27664637953795
 1  2.29289203860386 -2.97170495769577 -0.38318256125613
 1  0.55679156405641  2.16944678437844 -0.55283227472747
 1 -0.31489438543854 -0.68418858865887 -0.31674232923292

