%nproc=4
%Mem=4GB
# td=(NStates=1) CAM-B3LYP/6-31G(d,p) 

TD

0 1
 8 -14.12301817701770 -2.06407478917892  0.37620787608761
 8  14.81191302810281  0.83334092069207 -0.04001340544054
 6 -11.82061492109211  0.00559663456346  1.25196001600160
 6 -10.98930589308931  0.20158292929293 -0.00463675087509
 6 -12.12122760336034 -1.47004148854885  1.49521736303630
 6 -12.74147754125413 -2.12061312611261  0.19967411831183
 6 -11.51755704460446 -0.43983146144614 -1.21270676057606
 6  11.17300063066306  0.91606324882488  1.07124740444044
 6 -11.05779725292529  0.53117485628563  2.47631468216822
 6 -13.11780794319432  0.81581722862286  1.23734481128113
 6  12.62202938343834  1.48314774127413  0.79942732893289
 6 -12.22494348024803 -1.55101296909691 -1.12401517021702
 6  13.48943056395639  0.37610528312831  0.28867618651865
 6  10.62999247354736 -0.00541995219522 -0.03039945484548
 6 -9.49574833873387 -0.11443429162916  0.03770377797780
 6  12.91071904950495 -0.22328954835484 -0.98853443974397
 6  11.47512060086009 -0.56484152945294 -0.98343340214021
 6  10.28433531913191  2.20007931993199  1.13049576297630
 6  10.98935976847685  0.26221539693969  2.45915647694769
 6 -11.13266776427643  0.05288693019302 -2.61779403760376
 6 -8.56871297159716  0.82888787118712 -0.23936755925593
 6  9.28923385268527 -0.33355113091309  0.04144422822282
 6  11.01333127862786 -1.49020198699870 -2.09294889958996
 6 -7.09982130503050  0.53813105490549 -0.11173326262626
 6  8.80682713911391 -1.67005680318032 -0.05026016701670
 6 -6.66227764926493 -0.85208396529653  0.31152404100410
 6  7.42597108460846 -2.11448432043204  0.02367130483048
 6 -6.18076785278528  1.54993856835684 -0.31839369596960
 6  7.09000219441944 -3.58442216441644  0.31203142134213
 6  6.38069533853385 -1.24664495319532 -0.11774411681168
 6 -4.88928290199020  1.49207274647465 -0.31883279667967
 6  5.02295314121412 -1.51035887878788 -0.16789456965697
 6 -4.02338371077108  2.67261028722872 -0.51606279527953
 6 -2.64140457855786  2.71104906250625 -0.65764851265127
 6  4.04383834933493 -0.57556806290629 -0.34559407580758
 6  2.68560560916092 -0.78820329182918 -0.23465841844184
 6 -1.93407195739574  4.04127871047105 -0.82969211661166
 6 -1.78475556105611  1.54433717811781 -0.57340335673567
 6  1.83777232223222  0.33958552005200 -0.36402496439644
 6  2.15562888398840 -2.06702949024902  0.12808517641764
 6 -0.30431269016902  1.52002332363236 -0.50039339913991
 6  0.41945677647765  0.33032470027003 -0.30160342114211
 1 -10.93470021152115  1.16631841714171 -0.12222406760676
 1 -12.82878635173517 -1.52374238793879  2.32224011871187
 1 -11.14285195479548 -2.00189938493849  1.89552283488349
 1 -12.36581021462146 -3.17020612791279  0.27556241834183
 1 -10.19390479177918  0.05029670527053  2.56665528942894
 1 -10.92618278487849  1.61797487448745  2.41780650255025
 1 -11.79195678797880  0.50242366136614  3.35399957775778
 1 -13.70304150595059  0.29455545784578  0.37594406470647
 1 -13.78711448204820  0.54069567696770  2.07232123412341
 1 -12.98879756515652  1.78844246604660  1.07184766806681
 1  12.60795816251625  2.27635258475848  0.08342618581858
 1  12.88667309440944  1.96295033393339  1.79944754595460
 1 -12.62830630923092 -2.12786958345835 -2.15458964966497
 1  13.46363594839484 -0.38221796759676  0.99290962686269
 1 -9.17127949364937 -1.21368622762276  0.12535009500950
 1  13.58682382648265 -1.16474951425143 -1.07953310931093
 1  13.17091350885089  0.45582416031603 -1.75407533133313
 1  9.29677637523752  1.95851590339034  1.61336658405841
 1  10.12979484108411  2.30779338173817  0.09931684718472
 1  10.68106177947795  3.04950992269227  1.64356050705071
 1  11.81245408670867 -0.33372062066207  2.60156657805781
 1  9.99326429702970 -0.42818535953595  2.53559668776878
 1  11.12085298439844  1.11205900270027  3.27021196419642
 1 -10.08349084708471  0.05301521222122 -2.63250064576458
 1 -11.19623868016802  1.04130012851285 -2.71536860216022
 1 -11.65400324542454 -0.45587433873387 -3.34349210681068
 1 -14.51247452075208 -2.16733568616862 -0.50564876867687
 1  8.69405847384738  0.30686091129113  0.31758440464046
 1 -8.93928909780978  1.86750840364036 -0.54238955935594
 1  11.26113184768477 -2.35960745674567 -1.71263411491149
 1  10.05102796919692 -1.38191429312931 -2.16463239723972
 1  11.45823511721172 -1.16252934303430 -3.06677262536254
 1  15.19490867116712  1.21839993979398  0.89412738163816
 1  9.55821559785979 -2.46906998869887  0.13709726722672
 1 -5.73400786178618 -1.06587373807381  0.14157155395540
 1 -7.04036293439344 -0.98898087128713  1.39308156055605
 1 -7.23109934513451 -1.38447689588959 -0.24981319611961
 1 -6.72033431993199  2.58240703580358 -0.27819102080208
 1  6.47826137513751 -3.67083050565057  1.18131782748275
 1  6.40924827002700 -3.78789397719772 -0.56120571177118
 1  8.05962585998600 -4.05529171377138  0.42176914421442
 1  6.58934736163616 -0.13382062146215 -0.29303142504250
 1 -4.37853008460846  0.60104977017702 -0.11754781238124
 1  4.72754635813581 -2.42501175417542  0.05834817401740
 1 -4.46842288798880  3.75008299009901 -0.69385904140414
 1  4.32601267746775  0.44604194309431 -0.63247246464647
 1 -1.35885564376438  3.83961540824082 -1.70692896479648
 1 -1.21873471187119  4.31962912021202 -0.03337529732973
 1 -2.62878236633663  4.85619803530353 -0.84578287198720
 1 -2.28704758515852  0.49761638713871 -0.50977570757076
 1  2.32638168026803  1.30157414661466 -0.28968598369837
 1  2.18812734043404 -2.22306870927093  1.21570994949495
 1  1.12632770407041 -2.16946623772377  0.00207892279228
 1  2.77333008240824 -2.85930371757176 -0.36777102010201
 1  0.25137102200220  2.44330417011701 -0.69717670917092
 1 -0.24472736873687 -0.71225139493949 -0.16862751775178

