%nproc=4
%Mem=4GB
# td=(NStates=1) CAM-B3LYP/6-31G(d,p) 

TD

0 1
 8 -14.21209708490849 -2.03076145784578  0.60787104240424
 8  14.89532136893689  0.71662924952495  0.25715631153115
 6 -11.81522438203820  0.13520959585959  1.22876769676968
 6 -11.01723868636864  0.23796656765677 -0.13842012921292
 6 -12.13922940354035 -1.44655914031403  1.60376821812181
 6 -12.73943733723372 -2.25277634243424  0.48479263016302
 6 -11.69841513041304 -0.60994847314731 -1.20605609550955
 6  11.22622595319532  0.85517716021602  1.08649892959296
 6 -10.89117059025903  0.66810854965497  2.43185023572357
 6 -13.12179834223422  0.88575422232223  1.18799987678768
 6  12.68905608610861  1.38526795329533  0.77247463366337
 6 -12.37786877277728 -1.64819268706871 -0.90615338403840
 6  13.54834645554555  0.29640731333133  0.41469878877888
 6  10.78404787908791 -0.10143955415542  0.07129071417142
 6 -9.56512527642764 -0.09242209040904  0.01701170877088
 6  13.01606958455845 -0.24855207460746 -0.90034562086209
 6  11.61205429422942 -0.56502154745475 -0.87378243704370
 6  10.39337622322232  2.16994630663066  1.25055776917692
 6  11.28875970847085  0.12172134753475  2.57100766206621
 6 -11.57759225672567 -0.06683504200420 -2.60337259545955
 6 -8.51482758305831  0.70899588198820 -0.30730435293529
 6  9.23011794109411 -0.36507428322832  0.01345142894289
 6  11.06665661116111 -1.32142510931093 -2.14354395909591
 6 -7.01807313021302  0.42202944474447 -0.28642073137314
 6  8.71743820022002 -1.62968276577658 -0.03156829782978
 6 -6.66733815531553 -0.95212396929693  0.14086697529753
 6  7.38267675517552 -1.93746661866187  0.02740167786779
 6 -6.25964574057406  1.58159173367337 -0.35689754635464
 6  7.05390858505851 -3.39717343954395  0.09264948314831
 6  6.34320158915892 -1.07278756745675 -0.14924726712671
 6 -4.83610758445845  1.52612615181518 -0.50283119651965
 6  4.99621046694669 -1.45793363626363 -0.07036481668167
 6 -3.99636100850085  2.64982800900090 -0.51731292029203
 6 -2.54766520462046  2.67055501310131 -0.69670241804180
 6  3.99842380788079 -0.49674018011801 -0.25891540794079
 6  2.56534358295830 -0.62407687918792 -0.27879283188319
 6 -1.94925347554756  3.99300388298830 -0.80914006140614
 6 -1.78545563106311  1.55383812821282 -0.56018203460346
 6  1.76049459445945  0.44753631513151 -0.39137769966997
 6  2.21518483958396 -2.03370615791579 -0.21839947204720
 6 -0.39476173507351  1.51660298159816 -0.56300966076608
 6  0.42228705950595  0.28201986978698 -0.53685694649465
 1 -11.11702844434443  1.20292207750775 -0.42324416961696
 1 -12.97270074317432 -1.29233924762476  2.49386728142814
 1 -11.25516318591859 -1.94708390339034  1.92457574017402
 1 -12.50392402600260 -3.24621372867287  0.66278114021402
 1 -9.95200060136014  0.12397407300730  2.43357198109811
 1 -10.47545771237124  1.67170024702470  2.34954967686769
 1 -11.47295488778878  0.58710212921292  3.55203938173817
 1 -13.73854505630563  0.31267727002700  0.36342281258126
 1 -13.67930370097010  0.93524513191319  2.29076307830783
 1 -12.94844352975297  2.05429905170517  0.90165064836484
 1  12.58991635833583  2.11782673217322 -0.15122727952795
 1  12.98802322942294  1.96693073197320  1.64899250045005
 1 -12.67705118371837 -2.53668046454646 -1.72711690239024
 1  13.46715630043004 -0.58800854665467  1.07964830073007
 1 -9.37666003170317 -1.12459731873187  0.22224978497850
 1  13.49639478357836 -1.25599863916392 -1.32812796879688
 1  13.14396081358136  0.22029060696070 -2.01348127192719
 1  9.31442814041404  2.01340139193919  1.41919716711671
 1  10.33802566416642  2.86671927432743  0.37289420492049
 1  10.47755142844284  2.76743171487149  2.16859301030103
 1  11.82520536183618 -0.91972922152215  2.55420184158416
 1  10.30297526812681 -0.21871441244124  2.50412354045405
 1  11.47993889298930  0.72589038583858  3.38578352135214
 1 -10.42906540454045 -0.12399248854886 -2.91033842954295
 1 -11.92341139743974  0.86284228272827 -2.59870693599360
 1 -11.98022586768677 -0.58274702600260 -3.49288704630463
 1 -14.45410868416842 -2.62923187578758 -0.08564676847685
 1  8.65589465746575  0.57317754295430  0.36880952715271
 1 -8.82110727962796  1.67908956175618 -0.64669999039904
 1  11.34846058055806 -2.40494199019902 -2.11362421392139
 1  9.99863272967297 -1.21487758945895 -2.39864579857986
 1  11.55129442314231 -1.09567265736574 -3.11033698179818
 1  15.42544172447245  1.12777087688769  0.98674664356436
 1  9.40715049134914 -2.64599768146815 -0.20651709420942
 1 -5.67558201920192 -1.19038618931893  0.30576797359736
 1 -7.19437833593359 -1.39943191639164  0.98984123652365
 1 -6.93169940514051 -1.55701414961496 -0.68918713351335
 1 -6.70812309880988  2.50172896799680 -0.35036823852385
 1  6.18913246224622 -3.56989041164116  1.00884057975798
 1  6.53447079227923 -3.91565675347535 -0.89125871707171
 1  8.04637453485349 -4.03176936153615  0.43989095639564
 1  6.51004943184318 -0.10583782318232 -0.36572869476948
 1 -4.57309954155416  0.43496316151615 -0.36370242784278
 1  4.77347095059506 -2.48140739373937  0.08530086928693
 1 -4.54138018371837  3.55584356615662 -0.69057871337134
 1  4.41304138033803  0.48778611751175 -0.54742395979598
 1 -1.35658541674167  4.24240568726873 -1.70614888678868
 1 -1.18918175657566  4.57435459275928 -0.04169612941294
 1 -2.46686617471747  4.81320373587359 -1.11955024872487
 1 -2.44236311671167  0.71034766026603 -0.32972770277028
 1  2.25957499959996  1.42238622782278 -0.49975699079908
 1  2.86829535723572 -2.67534393679368  0.57281566006601
 1  1.17089216051605 -2.13081237233723  0.12691140604060
 1  2.27403015241524 -2.51309909710971 -1.34035827882788
 1  0.06564244914491  2.58439827952795 -0.81456844834483
 1 -0.02930582658266 -0.58913908370837 -0.23689434443444

