%nproc=4
%Mem=4GB
# td=(NStates=1) CAM-B3LYP/6-31G(d,p) 

TD

0 1
 8 -14.29758563376338 -1.67476585828583  0.42774302960296
 8  14.95221705850585  0.86444403100310  0.34358495439544
 6 -11.82548540814081  0.23389946484648  1.30108492849285
 6 -11.05150211271127  0.29745251625163 -0.04456074327433
 6 -12.09308478907891 -1.26546103050305  1.51117895919592
 6 -12.82626602010201 -1.97174823962396  0.30069422032203
 6 -11.59689497839784 -0.47714519281928 -1.26024151405141
 6  11.13269660026003  1.03719536203620  1.08403868356836
 6 -11.04515598879888  0.67982972177218  2.46161321202120
 6 -13.17781394379438  0.82932857975798  1.19642071887189
 6  12.61605878637864  1.42555198169817  0.99330671687169
 6 -12.39658064396440 -1.51846971477148 -1.09204197289729
 6  13.55324694559456  0.35820349294929  0.55302262116212
 6  10.81734120842084  0.04404499429943  0.00074365946595
 6 -9.62299106300630 -0.13979682788279  0.28111811941194
 6  13.18283626122612 -0.01737895729573 -0.78232381868187
 6  11.68458154695469 -0.50447549284928 -0.81164622342234
 6  10.23759064466447  2.29959927192719  1.04205691909191
 6  10.98141897439744  0.34920409580958  2.41200176147615
 6 -11.17462195969597  0.14746638813881 -2.50841309950995
 6 -8.51309741004101  0.68869385178518  0.01106748424842
 6  9.29672460176018 -0.29162693849385 -0.01340125632563
 6  11.41685163066307 -1.34727769456946 -2.02890249494950
 6 -7.10969229212921  0.40085732753275  0.02611052175218
 6  8.80028648504851 -1.57393719121912 -0.10375551655166
 6 -6.71175259675968 -1.00802955985599  0.53019590819082
 6  7.44660314781478 -2.01642451445145 -0.17886894919492
 6 -6.17756753275328  1.33538711321132 -0.25452730933093
 6  7.23035622982298 -3.56717043924392  0.04515473367337
 6  6.38638590759076 -1.23111340004000 -0.28907124952495
 6 -4.78518249194919  1.20137367656766 -0.39023993739374
 6  4.96981782768277 -1.58997684058406 -0.33329110931093
 6 -4.02060343274327  2.41763478967897 -0.69343053205321
 6 -2.58387882598260  2.56874483208321 -0.71122387018702
 6  3.99608357385739 -0.63359386548655 -0.44088360476048
 6  2.61177822642264 -0.88702317381738 -0.44218917151715
 6 -1.97673622382238  3.84132871547155 -1.04235338273827
 6 -1.80129721522152  1.43174591899190 -0.65700171657166
 6  1.64615316031603  0.12869443094309 -0.42010057195720
 6  2.04943826492649 -2.28918170547055 -0.23690132223222
 6 -0.42348460736074  1.43282460376038 -0.64467782758276
 6  0.18563339413941  0.22743441124112 -0.36686994779478
 1 -10.99653639513951  1.55291707700770 -0.45430727592759
 1 -12.50254372747275 -1.60745075877588  2.46549444414441
 1 -11.06993466306631 -1.77380657565757  1.49038232083208
 1 -12.50898453205320 -3.05325443274327  0.03612847494749
 1 -10.19078447974798 -0.01397972237224  2.61475009890989
 1 -10.73139330593059  1.64083716071607  2.47432215411541
 1 -11.71183877617762  0.36373979297930  3.44693887168717
 1 -13.80788198999900  0.54852085438544  0.41096756705671
 1 -13.69648541914191  0.59744135153515  2.23341734373437
 1 -12.93133181858186  1.91914553635364  1.31861234453445
 1  12.60698806550655  2.20844579407941  0.23680152335234
 1  12.91222564966496  1.98990302920292  1.90089769096910
 1 -12.78215169376938 -1.89971676817682 -1.86500069076908
 1  13.75097468226823 -0.39404915071507  1.34547488338834
 1 -9.46462882858286 -1.03552841184118  0.60039759975998
 1  13.76306145024503 -0.98383142244224 -1.10185534153415
 1  13.43588000550055  0.76807538543854 -1.39147907170717
 1  9.25737243484348  2.08906895869587  1.40136538393839
 1  10.27966982858286  2.51721432383238 -0.02528561306131
 1  10.57487116041604  3.22983795549555  1.50934708570857
 1  11.60159300060006 -0.42885013361336  2.42611903330333
 1  10.02129710031003 -0.09060160116012  2.41854498259826
 1  11.10674157325733  0.93088088488849  3.18432337533753
 1 -10.10402290029003  0.37791770247025 -2.47783517921792
 1 -11.70463952025203  1.03723972247225 -2.65228229352935
 1 -11.42027987308731 -0.33121187248725 -3.44132188978898
 1 -14.86313958725873 -2.27589654225423 -0.04359256305631
 1  8.72402147014702  0.59175940114011  0.31580422662266
 1 -8.74446961586159  1.76308796159616 -0.19453477387739
 1  11.65952168666867 -2.49539103510351 -1.88989184068407
 1  10.35109797619762 -1.07346344804480 -2.31476741074107
 1  11.96609590329033 -1.15811890199020 -3.00730667876788
 1  15.18157733803380  1.38745684548455  1.17310527942794
 1  9.37316709300930 -2.44069715141514 -0.11197764026403
 1 -5.63091755275528 -1.19485663636364  0.79326672347235
 1 -7.32735163326333 -1.22169414261426  1.61749400180018
 1 -7.12065830103010 -1.70684913311331 -0.30351856665667
 1 -6.53676596309631  2.29090788588859 -0.49439264096410
 1  6.96770031903190 -3.66624004660466  1.15014471017102
 1  6.36909425462546 -3.85693088088809 -0.61534112531253
 1  8.19320921832183 -4.18934511911191  0.00257722502250
 1  6.66776520342034 -0.04817205660566 -0.41292341424142
 1 -4.35763799539954  0.28444811001100  0.04899884228423
 1  4.75304890839084 -2.52781203420342 -0.35218287908791
 1 -4.67173321902190  3.40572855465547 -0.63604325982598
 1  4.19708978517852  0.37482482138214 -0.54167338473847
 1 -1.66487624582458  3.64971641834183 -1.92571084298430
 1 -1.25963880228023  4.25526268356836 -0.26786874667467
 1 -2.82063155125513  4.64667708320832 -1.07311560526053
 1 -2.23269214961496  0.26414303980398 -0.91140587058706
 1  2.05892493459346  1.15514950415042 -0.34901191629163
 1  2.33139166686669 -2.95885228762876  0.58952733123312
 1  0.99019409070907 -2.30548984008401 -0.51439272437244
 1  2.50271302070207 -3.04274206140614 -0.97390163316332
 1  0.24853073797380  2.39272911261126 -0.66744373587359
 1 -0.38874177017702 -0.52375254505450 -0.16541719671967

